32
1A 10B 17A 21A 22B 11 15 30 31 29 3 4 2 1 7 2 3 0 0 nosym
C    1.1242422    0.0179350   -0.7919007  
C    0.7472226    0.0287339   -2.1148546  
C   -0.6788874    0.0186534   -2.1414699  
C   -1.1202164    0.0019455   -0.7935545  
N    0.0000000    0.0000000    0.0000000  
C   -2.4730651   -0.0111004   -0.4408236  
C   -3.3972322   -0.0069019   -1.4675053  
O   -4.7313373   -0.0187991   -1.1793460  
C   -2.9765058    0.0093232   -2.8186318  
O   -4.0168275    0.0111351   -3.7247615  
C   -1.6420529    0.0219262   -3.1673480  
H    1.4176159    0.0411130   -2.9571213  
H   -2.8159173   -0.0240048    0.5845972  
H   -5.1939159   -0.0136062   -2.0274375  
H   -3.6467181    0.0224675   -4.6127337  
H   -1.3500223    0.0340504   -4.2109230  
H    2.1061564    0.0201614   -0.3505412  
C    2.4972452    2.0914603    2.9809380  
C    1.9457414    1.6294981    1.8291961  
C    0.8767493    0.7341067    2.2038498  
C    0.8504681    0.7121541    3.6788474  
N    1.8576566    1.5552682    4.0882609  
C   -0.0205205   -0.0168538    4.4215661  
C   -0.9971160   -0.8345952    3.7214979  
O   -1.8240050   -1.5267997    4.3006425  
C   -0.9873189   -0.8267766    2.1595606  
O   -1.8046031   -1.5115237    1.5592035  
C    0.0000000    0.0000000    1.4700000  
H    2.2528631    1.8864929    0.8310761  
H   -0.0229791   -0.0187087    5.5027230  
H    3.3172477    2.7783336    3.1139444  
H    2.0907425    1.7524413    5.0442112  
