32
1A 10B 22B 27B 11 15 29 30 3 4 7 4 2 2 0 0 nosym
C    1.1242422    0.0179350   -0.7919007  
C    0.7472226    0.0287339   -2.1148546  
C   -0.6788874    0.0186534   -2.1414699  
C   -1.1202164    0.0019455   -0.7935545  
N    0.0000000    0.0000000    0.0000000  
C   -2.4730651   -0.0111004   -0.4408236  
C   -3.3972322   -0.0069019   -1.4675053  
O   -4.7313373   -0.0187991   -1.1793460  
C   -2.9765058    0.0093232   -2.8186318  
O   -4.0168275    0.0111351   -3.7247615  
C   -1.6420529    0.0219262   -3.1673480  
H    1.4176159    0.0411130   -2.9571213  
H   -2.8159173   -0.0240048    0.5845972  
H   -5.1939159   -0.0136062   -2.0274375  
H   -3.6467181    0.0224675   -4.6127337  
H   -1.3500223    0.0340504   -4.2109230  
H    2.1061564    0.0201614   -0.3505412  
C    0.0000000    0.0000000    1.4700000  
C    1.0541688    0.0001722    2.3260392  
C    0.5103138    0.0000454    3.6635956  
C   -0.9576371   -0.0002459    3.5155732  
N   -1.2018458    0.0001392    2.1615969  
C   -1.8348311   -0.0008317    4.5510609  
C   -1.2972847   -0.0009736    5.9014604  
O   -2.0050672   -0.0014265    6.9001319  
C    0.2542623   -0.0004184    6.0817573  
O    0.7184670   -0.0002256    7.2139121  
C    1.0974552   -0.0000873    4.8889129  
H    2.0940752    0.0005483    2.0517982  
H   -2.9081052   -0.0011668    4.4207061  
H    2.1707277    0.0000911    5.0223670  
H   -2.1128194   -0.0014912    1.7406791  
