34
5B 10B 17A 18A 27B 13 16 33 28 32 7 4 2 3 4 2 3 0 0 nosym
C    0.0000000    0.0000000    0.0000000  
C    1.0521667   -0.0011902   -0.8862343  
C    0.4917217   -0.0011957   -2.1979130  
C   -0.9187429    0.0003148   -2.0478681  
N   -1.1833172   -0.0009411   -0.7007913  
C   -1.7951701    0.0010350   -3.1372091  
C   -1.2375838    0.0005224   -4.4010423  
O   -2.0474215    0.0015360   -5.4997577  
C    0.1673579   -0.0013566   -4.5711962  
O    0.5673523   -0.0020687   -5.8915550  
C    1.0325769   -0.0023412   -3.4969890  
H    2.0953057   -0.0030649   -0.6200562  
H   -2.0989778    0.0102372   -0.2891825  
H   -2.8710934    0.0020419   -3.0295512  
H   -1.4634886    0.0006497   -6.2693597  
H    1.5290709   -0.0033153   -5.9180048  
H    2.1042146   -0.0039609   -3.6584455  
C    3.3003543   -0.0005276    2.9438989  
C    2.5232812   -0.0003497    4.0790748  
C    1.1623199    0.0001319    3.6520102  
C    1.1711883   -0.0000583    2.2336141  
N    2.4852299    0.0014920    1.8362361  
C    0.0000000    0.0000000    1.4700000  
C   -1.2020384   -0.0000520    2.1506477  
O   -2.3759250   -0.0003494    1.4542253  
C   -1.2314658    0.0005113    3.5655508  
O   -2.5054393    0.0008037    4.0950179  
C   -0.0764518    0.0007272    4.3195194  
H    2.8919952    0.0005619    5.0905303  
H    2.8036267   -0.0088181    0.8841339  
H   -3.0835639   -0.0000348    2.1118817  
H   -2.4360050    0.0011527    5.0545920  
H   -0.1304098    0.0013421    5.4019087  
H    4.3715549   -0.0004895    2.8367138  
