32
0A 1A 10B 22B 27B 16 11 15 29 30 2 3 4 7 4 3 2 0 0 nosym
C    3.3003545    0.0005276   -1.4738989  
C    2.5232812    0.0003497   -2.6090747  
C    1.1623198   -0.0001319   -2.1820102  
C    1.1711883    0.0000583   -0.7636142  
N    2.4852301   -0.0014920   -0.3662360  
C    0.0000000    0.0000000    0.0000000  
C   -1.2020384    0.0000520   -0.6806478  
O   -2.3759249    0.0003494    0.0157747  
C   -1.2314658   -0.0005113   -2.0955509  
O   -2.5054391   -0.0008037   -2.6250177  
C   -0.0764518   -0.0007272   -2.8495194  
H    2.8919954   -0.0005619   -3.6205304  
H    2.8036267    0.0088181    0.5858660  
H   -3.0835639    0.0000348   -0.6418816  
H   -2.4360049   -0.0011527   -3.5845920  
H   -0.1304099   -0.0013421   -3.9319086  
H    4.3715546    0.0004895   -1.3667138  
C    0.0000000    0.0000000    1.4700000  
C    1.0541688    0.0001722    2.3260392  
C    0.5103138    0.0000454    3.6635956  
C   -0.9576371   -0.0002459    3.5155732  
N   -1.2018458    0.0001392    2.1615969  
C   -1.8348311   -0.0008317    4.5510609  
C   -1.2972847   -0.0009736    5.9014604  
O   -2.0050672   -0.0014265    6.9001319  
C    0.2542623   -0.0004184    6.0817573  
O    0.7184670   -0.0002256    7.2139121  
C    1.0974552   -0.0000873    4.8889129  
H    2.0940752    0.0005483    2.0517982  
H   -2.9081052   -0.0011668    4.4207061  
H    2.1707277    0.0000911    5.0223670  
H   -2.1128194   -0.0014912    1.7406791  
