32
0A 1A 10B 17A 22B 16 11 15 31 29 2 3 4 2 7 3 2 0 0 nosym
C    3.3003545    0.0005276   -1.4738989  
C    2.5232812    0.0003497   -2.6090747  
C    1.1623198   -0.0001319   -2.1820102  
C    1.1711883    0.0000583   -0.7636142  
N    2.4852301   -0.0014920   -0.3662360  
C    0.0000000    0.0000000    0.0000000  
C   -1.2020384    0.0000520   -0.6806478  
O   -2.3759249    0.0003494    0.0157747  
C   -1.2314658   -0.0005113   -2.0955509  
O   -2.5054391   -0.0008037   -2.6250177  
C   -0.0764518   -0.0007272   -2.8495194  
H    2.8919954   -0.0005619   -3.6205304  
H    2.8036267    0.0088181    0.5858660  
H   -3.0835639    0.0000348   -0.6418816  
H   -2.4360049   -0.0011527   -3.5845920  
H   -0.1304099   -0.0013421   -3.9319086  
H    4.3715546    0.0004895   -1.3667138  
C    2.3993443    2.0101651    3.1728260  
C    1.9448885    1.6286938    1.9564670  
C    0.8503809    0.7118365    2.2356185  
C    0.7801184    0.6536854    3.7115134  
N    1.6856053    1.4127659    4.2663826  
C   -0.1887449   -0.1576487    4.3957118  
C   -1.0485908   -0.8778400    3.6398520  
O   -2.0034026   -1.6774359    4.1448486  
C   -1.0031221   -0.8399697    2.1483229  
O   -1.8164043   -1.5213097    1.5241687  
C    0.0000000    0.0000000    1.4700000  
H    2.3075388    1.9320886    0.9892483  
H   -0.2172630   -0.1812891    5.4753125  
H   -2.4509605   -2.0523080    3.3649027  
H    3.2078111    2.6876695    3.3971983  
