32
4A 5B 21A 22B 11 12 31 28 1 7 1 7 2 2 0 0 nosym
C    1.1188639    0.0013342   -0.8003806  
C    0.0000000    0.0000000    0.0000000  
C   -1.1323863    0.0003717   -0.8673528  
C   -0.6382667    0.0016758   -2.1969281  
N    0.7324002    0.0041832   -2.1202240  
C   -1.4770921    0.0020559   -3.3154809  
C   -2.8395478    0.0007950   -3.0876859  
O   -3.7039203    0.0007476   -4.1440354  
C   -3.3517869   -0.0001409   -1.7684335  
O   -4.7300493   -0.0009279   -1.7073127  
C   -2.5248544   -0.0002431   -0.6644821  
H    1.3576341   -0.0049955   -2.9057042  
H   -1.1067579    0.0031923   -4.3313814  
H   -4.5940033    0.0000805   -3.7685136  
H   -4.9934598   -0.0015589   -0.7819920  
H   -2.9462576   -0.0007880    0.3339653  
H    2.1619889    0.0019248   -0.5342065  
C    0.8407257    0.7039925    2.2710304  
C    0.0000000    0.0000000    1.4700000  
C   -0.8850885   -0.7415183    2.3369512  
C   -0.4882656   -0.4094173    3.7186280  
N    0.5633905    0.4709239    3.6095011  
C   -1.0845074   -0.9085311    4.8308716  
C   -2.1907649   -1.8347900    4.6554461  
O   -2.7927872   -2.3388394    5.5944904  
C   -2.6277017   -2.2007987    3.2011665  
O   -3.5576200   -2.9798117    3.0410059  
C   -1.9083308   -1.5982251    2.0816745  
H   -0.7780501   -0.6518849    5.8354244  
H   -2.2171857   -1.8566753    1.0779135  
H    1.6397106    1.3732919    1.9961646  
H    1.0526281    0.8824490    4.3830260  
