32
1A 10B 21A 22B 11 15 31 28 3 4 1 7 2 2 0 0 nosym
C    1.1242422    0.0179350   -0.7919007  
C    0.7472226    0.0287339   -2.1148546  
C   -0.6788874    0.0186534   -2.1414699  
C   -1.1202164    0.0019455   -0.7935545  
N    0.0000000    0.0000000    0.0000000  
C   -2.4730651   -0.0111004   -0.4408236  
C   -3.3972322   -0.0069019   -1.4675053  
O   -4.7313373   -0.0187991   -1.1793460  
C   -2.9765058    0.0093232   -2.8186318  
O   -4.0168275    0.0111351   -3.7247615  
C   -1.6420529    0.0219262   -3.1673480  
H    1.4176159    0.0411130   -2.9571213  
H   -2.8159173   -0.0240048    0.5845972  
H   -5.1939159   -0.0136062   -2.0274375  
H   -3.6467181    0.0224675   -4.6127337  
H   -1.3500223    0.0340504   -4.2109230  
H    2.1061564    0.0201614   -0.3505412  
C    0.8407257    0.7039925    2.2710304  
C    0.0000000    0.0000000    1.4700000  
C   -0.8850885   -0.7415183    2.3369512  
C   -0.4882656   -0.4094173    3.7186280  
N    0.5633905    0.4709239    3.6095011  
C   -1.0845074   -0.9085311    4.8308716  
C   -2.1907649   -1.8347900    4.6554461  
O   -2.7927872   -2.3388394    5.5944904  
C   -2.6277017   -2.2007987    3.2011665  
O   -3.5576200   -2.9798117    3.0410059  
C   -1.9083308   -1.5982251    2.0816745  
H   -0.7780501   -0.6518849    5.8354244  
H   -2.2171857   -1.8566753    1.0779135  
H    1.6397106    1.3732919    1.9961646  
H    1.0526281    0.8824490    4.3830260  
