32
5B 10B 17A 21A 22B 13 16 30 31 29 7 4 2 1 7 2 3 0 0 nosym
C    0.0000000    0.0000000    0.0000000  
C    1.0521667   -0.0011902   -0.8862343  
C    0.4917217   -0.0011957   -2.1979130  
C   -0.9187429    0.0003148   -2.0478681  
N   -1.1833172   -0.0009411   -0.7007913  
C   -1.7951701    0.0010350   -3.1372091  
C   -1.2375838    0.0005224   -4.4010423  
O   -2.0474215    0.0015360   -5.4997577  
C    0.1673579   -0.0013566   -4.5711962  
O    0.5673523   -0.0020687   -5.8915550  
C    1.0325769   -0.0023412   -3.4969890  
H    2.0953057   -0.0030649   -0.6200562  
H   -2.0989778    0.0102372   -0.2891825  
H   -2.8710934    0.0020419   -3.0295512  
H   -1.4634886    0.0006497   -6.2693597  
H    1.5290709   -0.0033153   -5.9180048  
H    2.1042146   -0.0039609   -3.6584455  
C    3.2573656   -0.0030468    2.9809380  
C    2.5379456   -0.0024304    1.8291961  
C    1.1435036   -0.0012052    2.2038498  
C    1.1092601   -0.0011287    3.6788474  
N    2.4227547   -0.0026741    4.0882609  
C   -0.0265531    0.0002796    4.4215661  
C   -1.3003026    0.0015968    3.7214979  
O   -2.3786768    0.0028514    4.3006425  
C   -1.2877719    0.0012888    2.1595606  
O   -2.3539949    0.0020822    1.5592035  
C    0.0000000    0.0000000    1.4700000  
H    2.9384075   -0.0029751    0.8310761  
H   -0.0296287    0.0004389    5.5027230  
H    4.3270376   -0.0039587    3.1139444  
H    2.7280492   -0.0014555    5.0442112  
