32
5B 10B 17A 18A 27B 13 16 30 28 29 7 4 2 3 4 2 3 0 0 nosym
C    0.0000000    0.0000000    0.0000000  
C    1.0521667   -0.0011902   -0.8862343  
C    0.4917217   -0.0011957   -2.1979130  
C   -0.9187429    0.0003148   -2.0478681  
N   -1.1833172   -0.0009411   -0.7007913  
C   -1.7951701    0.0010350   -3.1372091  
C   -1.2375838    0.0005224   -4.4010423  
O   -2.0474215    0.0015360   -5.4997577  
C    0.1673579   -0.0013566   -4.5711962  
O    0.5673523   -0.0020687   -5.8915550  
C    1.0325769   -0.0023412   -3.4969890  
H    2.0953057   -0.0030649   -0.6200562  
H   -2.0989778    0.0102372   -0.2891825  
H   -2.8710934    0.0020419   -3.0295512  
H   -1.4634886    0.0006497   -6.2693597  
H    1.5290709   -0.0033153   -5.9180048  
H    2.1042146   -0.0039609   -3.6584455  
C    3.2798086   -0.0005857    2.9199648  
C    2.5571146   -0.0005566    4.0696553  
C    1.1637436   -0.0001548    3.6910360  
C    1.1336965    0.0000200    2.2159470  
N    2.4483514    0.0001428    1.8102719  
C    0.0000000    0.0000000    1.4700000  
C   -1.2757367    0.0000186    2.1664417  
O   -2.3524596    0.0000640    1.5842315  
C   -1.2676493    0.0000873    3.7284083  
O   -2.3355761    0.0004100    4.3257297  
C    0.0181563   -0.0001760    4.4216297  
H    2.9547357   -0.0006076    5.0689105  
H    0.0150794   -0.0003319    5.5031631  
H    4.3498549   -0.0008612    2.7900019  
H    2.7563627   -0.0012824    0.8551938  
