32
0A 4A 5B 22B 16 12 13 28 2 1 7 7 3 1 0 0 nosym
C    3.3041271    0.0002620   -1.5420430  
C    2.5845372   -0.0003652   -0.3695852  
C    1.2040006    0.0000518   -0.7283588  
C    1.1422372    0.0006536   -2.1454371  
N    2.4348639    0.0027172   -2.6077466  
C   -0.0655182    0.0008769   -2.8497917  
C   -1.2321768    0.0001786   -2.1101399  
O   -2.4392816    0.0000081   -2.7472519  
C   -1.1911210   -0.0000528   -0.6955264  
O   -2.4371525   -0.0003384   -0.1032860  
C    0.0000000    0.0000000    0.0000000  
H    3.0031533    0.0000651    0.6222583  
H    2.7054629   -0.0069917   -3.5745259  
H   -0.1193551    0.0014791   -3.9297469  
H   -3.1132989   -0.0002008   -2.0551785  
H   -2.3200280   -0.0005084    0.8516410  
H    4.3686622    0.0005979   -1.7024292  
C    0.8177235    0.6858319    2.3021913  
C    0.0000000    0.0000000    1.4700000  
C   -0.8889724   -0.7453940    2.3478473  
C   -0.4550950   -0.3815412    3.7138435  
N    0.5449504    0.4571968    3.6934124  
C   -1.0948380   -0.9178831    4.8835240  
C   -2.1216108   -1.7782902    4.6970523  
O   -2.8090798   -2.3546035    5.6976972  
C   -2.5830450   -2.1647504    3.3310774  
O   -3.5236387   -2.9531163    3.2362962  
C   -1.9105525   -1.6010174    2.1470656  
H   -0.7569012   -0.6347602    5.8697035  
H   -3.4736851   -2.9114234    5.2533954  
H   -2.2748451   -1.9059861    1.1752040  
H    1.6193537    1.3580571    2.0405121  
