34
5B 10B 21A 22B 13 16 28 29 7 4 1 7 2 2 0 0 nosym
C    0.0000000    0.0000000    0.0000000  
C    1.0521667   -0.0011902   -0.8862343  
C    0.4917217   -0.0011957   -2.1979130  
C   -0.9187429    0.0003148   -2.0478681  
N   -1.1833172   -0.0009411   -0.7007913  
C   -1.7951701    0.0010350   -3.1372091  
C   -1.2375838    0.0005224   -4.4010423  
O   -2.0474215    0.0015360   -5.4997577  
C    0.1673579   -0.0013566   -4.5711962  
O    0.5673523   -0.0020687   -5.8915550  
C    1.0325769   -0.0023412   -3.4969890  
H    2.0953057   -0.0030649   -0.6200562  
H   -2.0989778    0.0102372   -0.2891825  
H   -2.8710934    0.0020419   -3.0295512  
H   -1.4634886    0.0006497   -6.2693597  
H    1.5290709   -0.0033153   -5.9180048  
H    2.1042146   -0.0039609   -3.6584455  
C    1.1188637   -0.0013342    2.2703808  
C    0.0000000    0.0000000    1.4700000  
C   -1.1323865   -0.0003717    2.3373528  
C   -0.6382671   -0.0016758    3.6669281  
N    0.7323997   -0.0041832    3.5902241  
C   -1.4770924   -0.0020559    4.7854808  
C   -2.8395481   -0.0007950    4.5576857  
O   -3.7039209   -0.0007476    5.6140350  
C   -3.3517871    0.0001409    3.2384331  
O   -4.7300496    0.0009279    3.1773122  
C   -2.5248545    0.0002431    2.1344818  
H    1.3576338    0.0049955    4.3757045  
H   -1.1067586   -0.0031923    5.8013813  
H   -4.5940038   -0.0000805    5.2385129  
H   -4.9934599    0.0015589    2.2519915  
H   -2.9462577    0.0007880    1.1360343  
H    2.1619889   -0.0019248    2.0042067  
