34
4A 5B 21A 22B 11 12 28 29 1 7 1 7 2 2 0 0 sym
C    1.1188639    0.0013342   -0.8003806  
C    0.0000000    0.0000000    0.0000000  
C   -1.1323863    0.0003717   -0.8673528  
C   -0.6382667    0.0016758   -2.1969281  
N    0.7324002    0.0041832   -2.1202240  
C   -1.4770921    0.0020559   -3.3154809  
C   -2.8395478    0.0007950   -3.0876859  
O   -3.7039203    0.0007476   -4.1440354  
C   -3.3517869   -0.0001409   -1.7684335  
O   -4.7300493   -0.0009279   -1.7073127  
C   -2.5248544   -0.0002431   -0.6644821  
H    1.3576341   -0.0049955   -2.9057042  
H   -1.1067579    0.0031923   -4.3313814  
H   -4.5940033    0.0000805   -3.7685136  
H   -4.9934598   -0.0015589   -0.7819920  
H   -2.9462576   -0.0007880    0.3339653  
H    2.1619889    0.0019248   -0.5342065  
C    0.8579569    0.7181696    2.2703808  
C    0.0000000    0.0000000    1.4700000  
C   -0.8672195   -0.7281687    2.3373528  
C   -0.4878637   -0.4115539    3.6669281  
N    0.5637397    0.4675729    3.5902241  
C   -1.1301970   -0.9510316    4.7854808  
C   -2.1747090   -1.8258354    4.5576857  
O   -2.8368875   -2.3814071    5.6140350  
C   -2.5677084   -2.1543793    3.2384331  
O   -3.6240247   -3.0397065    3.1773122  
C   -1.9343070   -1.6227589    2.1344818  
H    1.0367968    0.8764969    4.3757045  
H   -0.8457743   -0.7138562    5.8013813  
H   -3.5191593   -2.9530304    5.2385129  
H   -3.8262142   -3.2085400    2.2519915  
H   -2.2574709   -1.8932143    1.1360343  
H    1.6574168    1.3882252    2.0042067  
