32
0A 4A 5B 22B 27B 16 12 13 29 31 2 1 7 7 4 3 2 0 0 nosym
C    3.3041271    0.0002620   -1.5420430  
C    2.5845372   -0.0003652   -0.3695852  
C    1.2040006    0.0000518   -0.7283588  
C    1.1422372    0.0006536   -2.1454371  
N    2.4348639    0.0027172   -2.6077466  
C   -0.0655182    0.0008769   -2.8497917  
C   -1.2321768    0.0001786   -2.1101399  
O   -2.4392816    0.0000081   -2.7472519  
C   -1.1911210   -0.0000528   -0.6955264  
O   -2.4371525   -0.0003384   -0.1032860  
C    0.0000000    0.0000000    0.0000000  
H    3.0031533    0.0000651    0.6222583  
H    2.7054629   -0.0069917   -3.5745259  
H   -0.1193551    0.0014791   -3.9297469  
H   -3.1132989   -0.0002008   -2.0551785  
H   -2.3200280   -0.0005084    0.8516410  
H    4.3686622    0.0005979   -1.7024292  
C    0.0000000    0.0000000    1.4700000  
C    1.0662921    0.0000102    2.3034270  
C    0.4961870   -0.0000064    3.6418889  
C   -0.9663858    0.0000850    3.4240247  
N   -1.2632773    0.0000084    2.1528658  
C   -1.8985362    0.0000517    4.5177257  
C   -1.3925775   -0.0004564    5.7720543  
O   -2.1456383   -0.0005410    6.8851312  
C    0.0786232   -0.0009323    6.0245000  
O    0.4683759   -0.0012588    7.1921102  
C    1.0143166   -0.0008442    4.8859032  
H    2.1107198   -0.0000632    2.0421868  
H   -2.9622183    0.0003270    4.3293377  
H   -1.5042274   -0.0009692    7.6184419  
H    2.0724152   -0.0013148    5.1109744  
