32
5B 10B 22B 27B 13 16 29 31 7 4 7 4 2 2 0 0 nosym
C    0.0000000    0.0000000    0.0000000  
C    1.0521667   -0.0011902   -0.8862343  
C    0.4917217   -0.0011957   -2.1979130  
C   -0.9187429    0.0003148   -2.0478681  
N   -1.1833172   -0.0009411   -0.7007913  
C   -1.7951701    0.0010350   -3.1372091  
C   -1.2375838    0.0005224   -4.4010423  
O   -2.0474215    0.0015360   -5.4997577  
C    0.1673579   -0.0013566   -4.5711962  
O    0.5673523   -0.0020687   -5.8915550  
C    1.0325769   -0.0023412   -3.4969890  
H    2.0953057   -0.0030649   -0.6200562  
H   -2.0989778    0.0102372   -0.2891825  
H   -2.8710934    0.0020419   -3.0295512  
H   -1.4634886    0.0006497   -6.2693597  
H    1.5290709   -0.0033153   -5.9180048  
H    2.1042146   -0.0039609   -3.6584455  
C    0.0000000    0.0000000    1.4700000  
C    1.0662921    0.0000102    2.3034270  
C    0.4961870   -0.0000064    3.6418889  
C   -0.9663858    0.0000850    3.4240247  
N   -1.2632773    0.0000084    2.1528658  
C   -1.8985362    0.0000517    4.5177257  
C   -1.3925775   -0.0004564    5.7720543  
O   -2.1456383   -0.0005410    6.8851312  
C    0.0786232   -0.0009323    6.0245000  
O    0.4683759   -0.0012588    7.1921102  
C    1.0143166   -0.0008442    4.8859032  
H    2.1107198   -0.0000632    2.0421868  
H   -2.9622183    0.0003270    4.3293377  
H   -1.5042274   -0.0009692    7.6184419  
H    2.0724152   -0.0013148    5.1109744  
