32
0A 4A 5B 22B 27B 16 12 13 29 30 2 1 7 7 4 3 2 0 0 nosym
C    3.3041271    0.0002620   -1.5420430  
C    2.5845372   -0.0003652   -0.3695852  
C    1.2040006    0.0000518   -0.7283588  
C    1.1422372    0.0006536   -2.1454371  
N    2.4348639    0.0027172   -2.6077466  
C   -0.0655182    0.0008769   -2.8497917  
C   -1.2321768    0.0001786   -2.1101399  
O   -2.4392816    0.0000081   -2.7472519  
C   -1.1911210   -0.0000528   -0.6955264  
O   -2.4371525   -0.0003384   -0.1032860  
C    0.0000000    0.0000000    0.0000000  
H    3.0031533    0.0000651    0.6222583  
H    2.7054629   -0.0069917   -3.5745259  
H   -0.1193551    0.0014791   -3.9297469  
H   -3.1132989   -0.0002008   -2.0551785  
H   -2.3200280   -0.0005084    0.8516410  
H    4.3686622    0.0005979   -1.7024292  
C    0.0000000    0.0000000    1.4700000  
C    1.0541688    0.0001722    2.3260392  
C    0.5103138    0.0000454    3.6635956  
C   -0.9576371   -0.0002459    3.5155732  
N   -1.2018458    0.0001392    2.1615969  
C   -1.8348311   -0.0008317    4.5510609  
C   -1.2972847   -0.0009736    5.9014604  
O   -2.0050672   -0.0014265    6.9001319  
C    0.2542623   -0.0004184    6.0817573  
O    0.7184670   -0.0002256    7.2139121  
C    1.0974552   -0.0000873    4.8889129  
H    2.0940752    0.0005483    2.0517982  
H   -2.9081052   -0.0011668    4.4207061  
H    2.1707277    0.0000911    5.0223670  
H   -2.1128194   -0.0014912    1.7406791  
