32
4A 5B 22B 27B 11 12 29 30 1 7 7 4 2 2 0 0 nosym
C    1.1188639    0.0013342   -0.8003806  
C    0.0000000    0.0000000    0.0000000  
C   -1.1323863    0.0003717   -0.8673528  
C   -0.6382667    0.0016758   -2.1969281  
N    0.7324002    0.0041832   -2.1202240  
C   -1.4770921    0.0020559   -3.3154809  
C   -2.8395478    0.0007950   -3.0876859  
O   -3.7039203    0.0007476   -4.1440354  
C   -3.3517869   -0.0001409   -1.7684335  
O   -4.7300493   -0.0009279   -1.7073127  
C   -2.5248544   -0.0002431   -0.6644821  
H    1.3576341   -0.0049955   -2.9057042  
H   -1.1067579    0.0031923   -4.3313814  
H   -4.5940033    0.0000805   -3.7685136  
H   -4.9934598   -0.0015589   -0.7819920  
H   -2.9462576   -0.0007880    0.3339653  
H    2.1619889    0.0019248   -0.5342065  
C    0.0000000    0.0000000    1.4700000  
C    1.0541688    0.0001722    2.3260392  
C    0.5103138    0.0000454    3.6635956  
C   -0.9576371   -0.0002459    3.5155732  
N   -1.2018458    0.0001392    2.1615969  
C   -1.8348311   -0.0008317    4.5510609  
C   -1.2972847   -0.0009736    5.9014604  
O   -2.0050672   -0.0014265    6.9001319  
C    0.2542623   -0.0004184    6.0817573  
O    0.7184670   -0.0002256    7.2139121  
C    1.0974552   -0.0000873    4.8889129  
H    2.0940752    0.0005483    2.0517982  
H   -2.9081052   -0.0011668    4.4207061  
H    2.1707277    0.0000911    5.0223670  
H   -2.1128194   -0.0014912    1.7406791  
