32
0A 1A 10B 18A 27B 16 11 15 28 30 2 3 4 3 4 3 2 0 0 nosym
C    3.3003545    0.0005276   -1.4738989  
C    2.5232812    0.0003497   -2.6090747  
C    1.1623198   -0.0001319   -2.1820102  
C    1.1711883    0.0000583   -0.7636142  
N    2.4852301   -0.0014920   -0.3662360  
C    0.0000000    0.0000000    0.0000000  
C   -1.2020384    0.0000520   -0.6806478  
O   -2.3759249    0.0003494    0.0157747  
C   -1.2314658   -0.0005113   -2.0955509  
O   -2.5054391   -0.0008037   -2.6250177  
C   -0.0764518   -0.0007272   -2.8495194  
H    2.8919954   -0.0005619   -3.6205304  
H    2.8036267    0.0088181    0.5858660  
H   -3.0835639    0.0000348   -0.6418816  
H   -2.4360049   -0.0011527   -3.5845920  
H   -0.1304099   -0.0013421   -3.9319086  
H    4.3715546    0.0004895   -1.3667138  
C    0.8682841    0.7261809    2.2709268  
C    0.6128985    0.5094733    3.5869401  
C   -0.4921586   -0.4174308    3.6542670  
C   -0.8622704   -0.7251947    2.2596025  
N    0.0000000    0.0000000    1.4700000  
C   -1.8644976   -1.5655642    1.8976294  
C   -2.6298794   -2.2097613    2.9520183  
O   -3.5519880   -2.9830709    2.7283916  
C   -2.2554256   -1.8982020    4.4361073  
O   -2.8929480   -2.4344164    5.3323774  
C   -1.1546061   -0.9752893    4.7012123  
H    1.1385178    0.9489409    4.4159191  
H   -2.1196378   -1.7777562    0.8686553  
H   -0.9015203   -0.7650272    5.7314848  
H    1.6176114    1.3554541    1.8188057  
