32
4A 5B 18A 27B 11 12 28 30 1 7 3 4 2 2 0 0 nosym
C    1.1188639    0.0013342   -0.8003806  
C    0.0000000    0.0000000    0.0000000  
C   -1.1323863    0.0003717   -0.8673528  
C   -0.6382667    0.0016758   -2.1969281  
N    0.7324002    0.0041832   -2.1202240  
C   -1.4770921    0.0020559   -3.3154809  
C   -2.8395478    0.0007950   -3.0876859  
O   -3.7039203    0.0007476   -4.1440354  
C   -3.3517869   -0.0001409   -1.7684335  
O   -4.7300493   -0.0009279   -1.7073127  
C   -2.5248544   -0.0002431   -0.6644821  
H    1.3576341   -0.0049955   -2.9057042  
H   -1.1067579    0.0031923   -4.3313814  
H   -4.5940033    0.0000805   -3.7685136  
H   -4.9934598   -0.0015589   -0.7819920  
H   -2.9462576   -0.0007880    0.3339653  
H    2.1619889    0.0019248   -0.5342065  
C    0.8682841    0.7261809    2.2709268  
C    0.6128985    0.5094733    3.5869401  
C   -0.4921586   -0.4174308    3.6542670  
C   -0.8622704   -0.7251947    2.2596025  
N    0.0000000    0.0000000    1.4700000  
C   -1.8644976   -1.5655642    1.8976294  
C   -2.6298794   -2.2097613    2.9520183  
O   -3.5519880   -2.9830709    2.7283916  
C   -2.2554256   -1.8982020    4.4361073  
O   -2.8929480   -2.4344164    5.3323774  
C   -1.1546061   -0.9752893    4.7012123  
H    1.1385178    0.9489409    4.4159191  
H   -2.1196378   -1.7777562    0.8686553  
H   -0.9015203   -0.7650272    5.7314848  
H    1.6176114    1.3554541    1.8188057  
