34
0A 1A 10B 17A 18A 27B 16 11 15 33 28 32 2 3 4 2 3 4 3 3 0 0 sym
C    3.3003545    0.0005276   -1.4738989  
C    2.5232812    0.0003497   -2.6090747  
C    1.1623198   -0.0001319   -2.1820102  
C    1.1711883    0.0000583   -0.7636142  
N    2.4852301   -0.0014920   -0.3662360  
C    0.0000000    0.0000000    0.0000000  
C   -1.2020384    0.0000520   -0.6806478  
O   -2.3759249    0.0003494    0.0157747  
C   -1.2314658   -0.0005113   -2.0955509  
O   -2.5054391   -0.0008037   -2.6250177  
C   -0.0764518   -0.0007272   -2.8495194  
H    2.8919954   -0.0005619   -3.6205304  
H    2.8036267    0.0088181    0.5858660  
H   -3.0835639    0.0000348   -0.6418816  
H   -2.4360049   -0.0011527   -3.5845920  
H   -0.1304099   -0.0013421   -3.9319086  
H    4.3715546    0.0004895   -1.3667138  
C    2.5285572    2.1210227    2.9438989  
C    1.9331703    1.6216660    4.0790748  
C    0.8903039    0.7472258    3.6520102  
C    0.8972198    0.7527806    2.2336141  
N    1.9028376    1.5986179    1.8362361  
C    0.0000000    0.0000000    1.4700000  
C   -0.9207814   -0.7726952    2.1506477  
O   -1.8198395   -1.5274828    1.4542253  
C   -0.9436862   -0.7911793    3.5655508  
O   -1.9197945   -1.6098497    4.0950179  
C   -0.0590329   -0.0485852    4.3195194  
H    2.2150357    1.8593692    5.0905303  
H    2.1533708    1.7953814    0.8841339  
H   -2.3621246   -1.9821033    2.1118817  
H   -1.8668290   -1.5649508    5.0545920  
H   -0.1007624   -0.0827977    5.4019087  
H    3.3491200    2.8096064    2.8367138  
