34
1A 10B 17A 18A 27B 11 15 33 28 32 3 4 2 3 4 2 3 0 0 nosym
C    1.1242422    0.0179350   -0.7919007  
C    0.7472226    0.0287339   -2.1148546  
C   -0.6788874    0.0186534   -2.1414699  
C   -1.1202164    0.0019455   -0.7935545  
N    0.0000000    0.0000000    0.0000000  
C   -2.4730651   -0.0111004   -0.4408236  
C   -3.3972322   -0.0069019   -1.4675053  
O   -4.7313373   -0.0187991   -1.1793460  
C   -2.9765058    0.0093232   -2.8186318  
O   -4.0168275    0.0111351   -3.7247615  
C   -1.6420529    0.0219262   -3.1673480  
H    1.4176159    0.0411130   -2.9571213  
H   -2.8159173   -0.0240048    0.5845972  
H   -5.1939159   -0.0136062   -2.0274375  
H   -3.6467181    0.0224675   -4.6127337  
H   -1.3500223    0.0340504   -4.2109230  
H    2.1061564    0.0201614   -0.3505412  
C    2.5285572    2.1210227    2.9438989  
C    1.9331703    1.6216660    4.0790748  
C    0.8903039    0.7472258    3.6520102  
C    0.8972198    0.7527806    2.2336141  
N    1.9028376    1.5986179    1.8362361  
C    0.0000000    0.0000000    1.4700000  
C   -0.9207814   -0.7726952    2.1506477  
O   -1.8198395   -1.5274828    1.4542253  
C   -0.9436862   -0.7911793    3.5655508  
O   -1.9197945   -1.6098497    4.0950179  
C   -0.0590329   -0.0485852    4.3195194  
H    2.2150357    1.8593692    5.0905303  
H    2.1533708    1.7953814    0.8841339  
H   -2.3621246   -1.9821033    2.1118817  
H   -1.8668290   -1.5649508    5.0545920  
H   -0.1007624   -0.0827977    5.4019087  
H    3.3491200    2.8096064    2.8367138  
