34
4A 5B 17A 21A 22B 11 12 33 29 30 1 7 2 1 7 2 3 0 0 nosym
C    1.1188639    0.0013342   -0.8003806  
C    0.0000000    0.0000000    0.0000000  
C   -1.1323863    0.0003717   -0.8673528  
C   -0.6382667    0.0016758   -2.1969281  
N    0.7324002    0.0041832   -2.1202240  
C   -1.4770921    0.0020559   -3.3154809  
C   -2.8395478    0.0007950   -3.0876859  
O   -3.7039203    0.0007476   -4.1440354  
C   -3.3517869   -0.0001409   -1.7684335  
O   -4.7300493   -0.0009279   -1.7073127  
C   -2.5248544   -0.0002431   -0.6644821  
H    1.3576341   -0.0049955   -2.9057042  
H   -1.1067579    0.0031923   -4.3313814  
H   -4.5940033    0.0000805   -3.7685136  
H   -4.9934598   -0.0015589   -0.7819920  
H   -2.9462576   -0.0007880    0.3339653  
H    2.1619889    0.0019248   -0.5342065  
C    2.5312767    2.1236513    3.0120429  
C    1.9796357    1.6615883    1.8395852  
C    0.9223513    0.7738770    2.1983588  
C    0.8754246    0.7337153    3.6154372  
N    1.8669605    1.5630187    4.0777464  
C   -0.0496261   -0.0427860    4.3197917  
C   -0.9437874   -0.7921648    3.5801400  
O   -1.8685929   -1.5679462    4.2172520  
C   -0.9124855   -0.7655974    2.1655264  
O   -1.8671848   -1.5663123    1.5732860  
C    0.0000000    0.0000000    1.4700000  
H    2.3005908    1.9303399    0.8477417  
H    2.0680109    1.7443942    5.0445261  
H   -0.0904804   -0.0778530    5.3997470  
H   -2.3850543   -2.0010361    3.5251786  
H   -1.7775715   -1.4908959    0.6183591  
H    3.3469740    2.8076641    3.1724291  
