32
0A 1A 10B 22B 27B 16 11 15 29 31 2 3 4 7 4 3 2 0 0 nosym
C    3.3003545    0.0005276   -1.4738989  
C    2.5232812    0.0003497   -2.6090747  
C    1.1623198   -0.0001319   -2.1820102  
C    1.1711883    0.0000583   -0.7636142  
N    2.4852301   -0.0014920   -0.3662360  
C    0.0000000    0.0000000    0.0000000  
C   -1.2020384    0.0000520   -0.6806478  
O   -2.3759249    0.0003494    0.0157747  
C   -1.2314658   -0.0005113   -2.0955509  
O   -2.5054391   -0.0008037   -2.6250177  
C   -0.0764518   -0.0007272   -2.8495194  
H    2.8919954   -0.0005619   -3.6205304  
H    2.8036267    0.0088181    0.5858660  
H   -3.0835639    0.0000348   -0.6418816  
H   -2.4360049   -0.0011527   -3.5845920  
H   -0.1304099   -0.0013421   -3.9319086  
H    4.3715546    0.0004895   -1.3667138  
C    0.0000000    0.0000000    1.4700000  
C    1.0662921    0.0000102    2.3034270  
C    0.4961870   -0.0000064    3.6418889  
C   -0.9663858    0.0000850    3.4240247  
N   -1.2632773    0.0000084    2.1528658  
C   -1.8985362    0.0000517    4.5177257  
C   -1.3925775   -0.0004564    5.7720543  
O   -2.1456383   -0.0005410    6.8851312  
C    0.0786232   -0.0009323    6.0245000  
O    0.4683759   -0.0012588    7.1921102  
C    1.0143166   -0.0008442    4.8859032  
H    2.1107198   -0.0000632    2.0421868  
H   -2.9622183    0.0003270    4.3293377  
H   -1.5042274   -0.0009692    7.6184419  
H    2.0724152   -0.0013148    5.1109744  
