32
5B 10B 22B 13 16 28 7 4 7 2 1 0 0 nosym
C    0.0000000    0.0000000    0.0000000  
C    1.0521667   -0.0011902   -0.8862343  
C    0.4917217   -0.0011957   -2.1979130  
C   -0.9187429    0.0003148   -2.0478681  
N   -1.1833172   -0.0009411   -0.7007913  
C   -1.7951701    0.0010350   -3.1372091  
C   -1.2375838    0.0005224   -4.4010423  
O   -2.0474215    0.0015360   -5.4997577  
C    0.1673579   -0.0013566   -4.5711962  
O    0.5673523   -0.0020687   -5.8915550  
C    1.0325769   -0.0023412   -3.4969890  
H    2.0953057   -0.0030649   -0.6200562  
H   -2.0989778    0.0102372   -0.2891825  
H   -2.8710934    0.0020419   -3.0295512  
H   -1.4634886    0.0006497   -6.2693597  
H    1.5290709   -0.0033153   -5.9180048  
H    2.1042146   -0.0039609   -3.6584455  
C    1.0672568   -0.0002448    2.3021913  
C    0.0000000    0.0000000    1.4700000  
C   -1.1601223    0.0004155    2.3478473  
C   -0.5938729    0.0002519    3.7138435  
N    0.7113367   -0.0000543    3.6934124  
C   -1.4286985    0.0006090    4.8835240  
C   -2.7683111    0.0014958    4.6970523  
O   -3.6653899    0.0019107    5.6976972  
C   -3.3702020    0.0020544    3.3310774  
O   -4.5974904    0.0027330    3.2362962  
C   -2.4926822    0.0016290    2.1470656  
H   -0.9878359    0.0002721    5.8697035  
H   -4.5324240    0.0025620    5.2533954  
H   -2.9677767    0.0021722    1.1752040  
H    2.1134391   -0.0005684    2.0405121  
