30
5B 10B 20B 25B 12 13 27 29 7 4 7 4 2 2 0 0 nosym
C    0.0000000    0.0000000    0.0000000  
C    1.0541688   -0.0001722   -0.8560392  
C    0.5103138   -0.0000454   -2.1935957  
C   -0.9576371    0.0002459   -2.0455733  
N   -1.2018458   -0.0001392   -0.6915970  
C   -1.8348311    0.0008317   -3.0810610  
C   -1.2972847    0.0009736   -4.4314607  
O   -2.0050672    0.0014265   -5.4301318  
C    0.2542622    0.0004184   -4.6117574  
O    0.7184670    0.0002256   -5.7439124  
C    1.0974552    0.0000873   -3.4189131  
H    2.0940750   -0.0005483   -0.5817985  
H   -2.9081053    0.0011668   -2.9507061  
H    2.1707275   -0.0000911   -3.5523672  
H   -2.1128195    0.0014912   -0.2706792  
C    0.0000000    0.0000000    1.4700000  
C    1.0662921    0.0000102    2.3034270  
C    0.4961870   -0.0000064    3.6418889  
C   -0.9663858    0.0000850    3.4240247  
N   -1.2632773    0.0000084    2.1528658  
C   -1.8985362    0.0000517    4.5177257  
C   -1.3925775   -0.0004564    5.7720543  
O   -2.1456383   -0.0005410    6.8851312  
C    0.0786232   -0.0009323    6.0245000  
O    0.4683759   -0.0012588    7.1921102  
C    1.0143166   -0.0008442    4.8859032  
H    2.1107198   -0.0000632    2.0421868  
H   -2.9622183    0.0003270    4.3293377  
H   -1.5042274   -0.0009692    7.6184419  
H    2.0724152   -0.0013148    5.1109744  
