30
5B 10B 15A 19A 20B 12 13 28 29 27 7 4 2 1 7 2 3 0 0 nosym
C    0.0000000    0.0000000    0.0000000  
C    1.0541688   -0.0001722   -0.8560392  
C    0.5103138   -0.0000454   -2.1935957  
C   -0.9576371    0.0002459   -2.0455733  
N   -1.2018458   -0.0001392   -0.6915970  
C   -1.8348311    0.0008317   -3.0810610  
C   -1.2972847    0.0009736   -4.4314607  
O   -2.0050672    0.0014265   -5.4301318  
C    0.2542622    0.0004184   -4.6117574  
O    0.7184670    0.0002256   -5.7439124  
C    1.0974552    0.0000873   -3.4189131  
H    2.0940750   -0.0005483   -0.5817985  
H   -2.9081053    0.0011668   -2.9507061  
H    2.1707275   -0.0000911   -3.5523672  
H   -2.1128195    0.0014912   -0.2706792  
C    3.2573656   -0.0030468    2.9809380  
C    2.5379456   -0.0024304    1.8291961  
C    1.1435036   -0.0012052    2.2038498  
C    1.1092601   -0.0011287    3.6788474  
N    2.4227547   -0.0026741    4.0882609  
C   -0.0265531    0.0002796    4.4215661  
C   -1.3003026    0.0015968    3.7214979  
O   -2.3786768    0.0028514    4.3006425  
C   -1.2877719    0.0012888    2.1595606  
O   -2.3539949    0.0020822    1.5592035  
C    0.0000000    0.0000000    1.4700000  
H    2.9384075   -0.0029751    0.8310761  
H   -0.0296287    0.0004389    5.5027230  
H    4.3270376   -0.0039587    3.1139444  
H    2.7280492   -0.0014555    5.0442112  
