30
5B 10B 16A 25B 12 13 26 28 7 4 3 4 2 2 0 0 nosym
C    0.0000000    0.0000000    0.0000000  
C    1.0541688   -0.0001722   -0.8560392  
C    0.5103138   -0.0000454   -2.1935957  
C   -0.9576371    0.0002459   -2.0455733  
N   -1.2018458   -0.0001392   -0.6915970  
C   -1.8348311    0.0008317   -3.0810610  
C   -1.2972847    0.0009736   -4.4314607  
O   -2.0050672    0.0014265   -5.4301318  
C    0.2542622    0.0004184   -4.6117574  
O    0.7184670    0.0002256   -5.7439124  
C    1.0974552    0.0000873   -3.4189131  
H    2.0940750   -0.0005483   -0.5817985  
H   -2.9081053    0.0011668   -2.9507061  
H    2.1707275   -0.0000911   -3.5523672  
H   -2.1128195    0.0014912   -0.2706792  
C    1.1319243   -0.0018355    2.2709268  
C    0.7969907   -0.0036844    3.5869401  
C   -0.6453347   -0.0034171    3.6542670  
C   -1.1266836   -0.0012746    2.2596025  
N    0.0000000    0.0000000    1.4700000  
C   -2.4346133   -0.0008158    1.8976294  
C   -3.4350117   -0.0023215    2.9520183  
O   -4.6384617   -0.0019910    2.7283916  
C   -2.9478970   -0.0043474    4.4361073  
O   -3.7809394   -0.0053200    5.3323774  
C   -1.5113835   -0.0049485    4.7012123  
H    1.4821227   -0.0048942    4.4159191  
H   -2.7664564    0.0006366    0.8686553  
H   -1.1823546   -0.0065587    5.7314848  
H    2.1104313   -0.0014425    1.8188057  
