30
0A 1A 10B 15A 16A 25B 13 11 12 28 26 27 2 3 4 2 3 4 3 3 0 0 sym
C    3.2798086    0.0005857   -1.4499647  
C    2.5571146    0.0005566   -2.5996553  
C    1.1637436    0.0001548   -2.2210360  
C    1.1336965   -0.0000200   -0.7459470  
N    2.4483514   -0.0001428   -0.3402719  
C    0.0000000    0.0000000    0.0000000  
C   -1.2757368   -0.0000186   -0.6964417  
O   -2.3524597   -0.0000640   -0.1142314  
C   -1.2676494   -0.0000873   -2.2584084  
O   -2.3355761   -0.0004100   -2.8557297  
C    0.0181562    0.0001760   -2.9516298  
H    2.9547356    0.0006076   -3.5989105  
H    0.0150794    0.0003319   -4.0331633  
H    4.3498551    0.0008612   -1.3200020  
H    2.7563627    0.0012824    0.6148062  
C    2.5128556    2.1077716    2.9199648  
C    1.9592212    1.6432552    4.0696553  
C    0.8915788    0.7479214    3.6910360  
C    0.8684491    0.7287414    2.2159470  
N    1.8754542    1.5738793    1.8102719  
C    0.0000000    0.0000000    1.4700000  
C   -0.9772830   -0.8200135    2.1664417  
O   -1.8021297   -1.5120829    1.5842315  
C   -0.9711318   -0.8147624    3.7284083  
O   -1.7894187   -1.5009653    4.3257297  
C    0.0140216    0.0115358    4.4216297  
H    2.2638494    1.8988021    5.0689105  
H    0.0117648    0.0094386    5.5031631  
H    3.3327358    2.7953732    2.7900019  
H    2.1123206    1.7707734    0.8551938  
