30
5B 10B 20B 25B 12 13 27 28 7 4 7 4 2 2 0 0 sym
C    0.0000000    0.0000000    0.0000000  
C    1.0541688   -0.0001722   -0.8560392  
C    0.5103138   -0.0000454   -2.1935957  
C   -0.9576371    0.0002459   -2.0455733  
N   -1.2018458   -0.0001392   -0.6915970  
C   -1.8348311    0.0008317   -3.0810610  
C   -1.2972847    0.0009736   -4.4314607  
O   -2.0050672    0.0014265   -5.4301318  
C    0.2542622    0.0004184   -4.6117574  
O    0.7184670    0.0002256   -5.7439124  
C    1.0974552    0.0000873   -3.4189131  
H    2.0940750   -0.0005483   -0.5817985  
H   -2.9081053    0.0011668   -2.9507061  
H    2.1707275   -0.0000911   -3.5523672  
H   -2.1128195    0.0014912   -0.2706792  
C    0.0000000    0.0000000    1.4700000  
C    1.0541688    0.0001722    2.3260392  
C    0.5103138    0.0000454    3.6635956  
C   -0.9576371   -0.0002459    3.5155732  
N   -1.2018458    0.0001392    2.1615969  
C   -1.8348311   -0.0008317    4.5510609  
C   -1.2972847   -0.0009736    5.9014604  
O   -2.0050672   -0.0014265    6.9001319  
C    0.2542623   -0.0004184    6.0817573  
O    0.7184670   -0.0002256    7.2139121  
C    1.0974552   -0.0000873    4.8889129  
H    2.0940752    0.0005483    2.0517982  
H   -2.9081052   -0.0011668    4.4207061  
H    2.1707277    0.0000911    5.0223670  
H   -2.1128194   -0.0014912    1.7406791  
