30
1A 10B 16A 25B 11 13 26 28 3 4 3 4 2 2 0 0 sym
C    1.1319243    0.0018355   -0.8009268  
C    0.7969906    0.0036844   -2.1169401  
C   -0.6453348    0.0034171   -2.1842670  
C   -1.1266838    0.0012746   -0.7896025  
N    0.0000000    0.0000000    0.0000000  
C   -2.4346133    0.0008158   -0.4276294  
C   -3.4350119    0.0023215   -1.4820183  
O   -4.6384621    0.0019910   -1.2583916  
C   -2.9478971    0.0043474   -2.9661073  
O   -3.7809392    0.0053200   -3.8623773  
C   -1.5113837    0.0049485   -3.2312122  
H    1.4821225    0.0048942   -2.9459193  
H   -2.7664564   -0.0006366    0.6013448  
H   -1.1823548    0.0065587   -4.2614848  
H    2.1104314    0.0014425   -0.3488057  
C    0.8682841    0.7261809    2.2709268  
C    0.6128985    0.5094733    3.5869401  
C   -0.4921586   -0.4174308    3.6542670  
C   -0.8622704   -0.7251947    2.2596025  
N    0.0000000    0.0000000    1.4700000  
C   -1.8644976   -1.5655642    1.8976294  
C   -2.6298794   -2.2097613    2.9520183  
O   -3.5519880   -2.9830709    2.7283916  
C   -2.2554256   -1.8982020    4.4361073  
O   -2.8929480   -2.4344164    5.3323774  
C   -1.1546061   -0.9752893    4.7012123  
H    1.1385178    0.9489409    4.4159191  
H   -2.1196378   -1.7777562    0.8686553  
H   -0.9015203   -0.7650272    5.7314848  
H    1.6176114    1.3554541    1.8188057  
