30
4A 5B 15A 16A 25B 14 11 28 26 27 1 7 2 3 4 2 3 0 0 nosym
C    1.0965509    0.0011185   -0.8010305  
C    0.0000000    0.0000000    0.0000000  
C   -1.1546561   -0.0008879   -0.8669510  
C   -0.6372020   -0.0002192   -2.2486280  
N    0.7342858    0.0013918   -2.1395012  
C   -1.4147740   -0.0011327   -3.3608714  
C   -2.8576040   -0.0026659   -3.1854456  
O   -3.6427768   -0.0035141   -4.1244900  
C   -3.4275828   -0.0031445   -1.7311660  
O   -4.6406813   -0.0041258   -1.5710051  
C   -2.4891857   -0.0023400   -0.6116741  
H   -1.0150452   -0.0007482   -4.3654242  
H   -2.8919107   -0.0028837    0.3920869  
H    2.1388262    0.0019831   -0.5261649  
H    1.3735867    0.0006212   -2.9130263  
C    2.5128556    2.1077716    2.9199648  
C    1.9592212    1.6432552    4.0696553  
C    0.8915788    0.7479214    3.6910360  
C    0.8684491    0.7287414    2.2159470  
N    1.8754542    1.5738793    1.8102719  
C    0.0000000    0.0000000    1.4700000  
C   -0.9772830   -0.8200135    2.1664417  
O   -1.8021297   -1.5120829    1.5842315  
C   -0.9711318   -0.8147624    3.7284083  
O   -1.7894187   -1.5009653    4.3257297  
C    0.0140216    0.0115358    4.4216297  
H    2.2638494    1.8988021    5.0689105  
H    0.0117648    0.0094386    5.5031631  
H    3.3327358    2.7953732    2.7900019  
H    2.1123206    1.7707734    0.8551938  
