30
5B 10B 19A 20B 12 13 29 26 7 4 1 7 2 2 0 0 nosym
C    0.0000000    0.0000000    0.0000000  
C    1.0541688   -0.0001722   -0.8560392  
C    0.5103138   -0.0000454   -2.1935957  
C   -0.9576371    0.0002459   -2.0455733  
N   -1.2018458   -0.0001392   -0.6915970  
C   -1.8348311    0.0008317   -3.0810610  
C   -1.2972847    0.0009736   -4.4314607  
O   -2.0050672    0.0014265   -5.4301318  
C    0.2542622    0.0004184   -4.6117574  
O    0.7184670    0.0002256   -5.7439124  
C    1.0974552    0.0000873   -3.4189131  
H    2.0940750   -0.0005483   -0.5817985  
H   -2.9081053    0.0011668   -2.9507061  
H    2.1707275   -0.0000911   -3.5523672  
H   -2.1128195    0.0014912   -0.2706792  
C    1.0965510   -0.0011185    2.2710304  
C    0.0000000    0.0000000    1.4700000  
C   -1.1546559    0.0008879    2.3369512  
C   -0.6372015    0.0002192    3.7186280  
N    0.7342862   -0.0013918    3.6095011  
C   -1.4147734    0.0011327    4.8308716  
C   -2.8576035    0.0026659    4.6554461  
O   -3.6427761    0.0035141    5.5944904  
C   -3.4275825    0.0031445    3.2011665  
O   -4.6406811    0.0041258    3.0410059  
C   -2.4891855    0.0023400    2.0816745  
H   -1.0150445    0.0007482    5.8354244  
H   -2.8919107    0.0028837    1.0779135  
H    2.1388262   -0.0019831    1.9961646  
H    1.3735872   -0.0006212    4.3830260  
