30
0A 4A 5B 20B 25B 13 14 12 27 29 2 1 7 7 4 3 2 0 0 nosym
C    3.2573658    0.0030468   -1.5109380  
C    2.5379457    0.0024304   -0.3591961  
C    1.1435037    0.0012052   -0.7338498  
C    1.1092602    0.0011287   -2.2088473  
N    2.4227548    0.0026741   -2.6182608  
C   -0.0265530   -0.0002796   -2.9515662  
C   -1.3003027   -0.0015968   -2.2514980  
O   -2.3786767   -0.0028514   -2.8306426  
C   -1.2877719   -0.0012888   -0.6895606  
O   -2.3539947   -0.0020822   -0.0892035  
C    0.0000000    0.0000000    0.0000000  
H    2.9384075    0.0029751    0.6389239  
H   -0.0296287   -0.0004389   -4.0327229  
H    4.3270376    0.0039587   -1.6439443  
H    2.7280493    0.0014555   -3.5742114  
C    0.0000000    0.0000000    1.4700000  
C    1.0662921    0.0000102    2.3034270  
C    0.4961870   -0.0000064    3.6418889  
C   -0.9663858    0.0000850    3.4240247  
N   -1.2632773    0.0000084    2.1528658  
C   -1.8985362    0.0000517    4.5177257  
C   -1.3925775   -0.0004564    5.7720543  
O   -2.1456383   -0.0005410    6.8851312  
C    0.0786232   -0.0009323    6.0245000  
O    0.4683759   -0.0012588    7.1921102  
C    1.0143166   -0.0008442    4.8859032  
H    2.1107198   -0.0000632    2.0421868  
H   -2.9622183    0.0003270    4.3293377  
H   -1.5042274   -0.0009692    7.6184419  
H    2.0724152   -0.0013148    5.1109744  
