30
5B 20B 11 26 7 7 1 1 0 0 sym
C    1.0672570    0.0002448   -0.8321911  
C    0.0000000    0.0000000    0.0000000  
C   -1.1601221   -0.0004155   -0.8778473  
C   -0.5938726   -0.0002519   -2.2438435  
N    0.7113370    0.0000543   -2.2234123  
C   -1.4286981   -0.0006090   -3.4135240  
C   -2.7683106   -0.0014958   -3.2270526  
O   -3.6653895   -0.0019107   -4.2276975  
C   -3.3702016   -0.0020544   -1.8610776  
O   -4.5974902   -0.0027330   -1.7662967  
C   -2.4926822   -0.0016290   -0.6770658  
H   -0.9878354   -0.0002721   -4.3997034  
H   -4.5324234   -0.0025620   -3.7833959  
H   -2.9677766   -0.0021722    0.2947957  
H    2.1134392    0.0005684   -0.5705119  
C    0.8177235    0.6858319    2.3021913  
C    0.0000000    0.0000000    1.4700000  
C   -0.8889724   -0.7453940    2.3478473  
C   -0.4550950   -0.3815412    3.7138435  
N    0.5449504    0.4571968    3.6934124  
C   -1.0948380   -0.9178831    4.8835240  
C   -2.1216108   -1.7782902    4.6970523  
O   -2.8090798   -2.3546035    5.6976972  
C   -2.5830450   -2.1647504    3.3310774  
O   -3.5236387   -2.9531163    3.2362962  
C   -1.9105525   -1.6010174    2.1470656  
H   -0.7569012   -0.6347602    5.8697035  
H   -3.4736851   -2.9114234    5.2533954  
H   -2.2748451   -1.9059861    1.1752040  
H    1.6193537    1.3580571    2.0405121  
