30
5B 10B 15A 20B 12 14 29 27 7 4 2 7 2 2 0 0 nosym
C    0.0000000    0.0000000    0.0000000  
C    1.0662921   -0.0000102   -0.8334272  
C    0.4961870    0.0000064   -2.1718888  
C   -0.9663859   -0.0000850   -1.9540248  
N   -1.2632773   -0.0000084   -0.6828659  
C   -1.8985362   -0.0000517   -3.0477258  
C   -1.3925776    0.0004564   -4.3020540  
O   -2.1456385    0.0005410   -5.4151313  
C    0.0786231    0.0009323   -4.5544999  
O    0.4683758    0.0012588   -5.7221102  
C    1.0143166    0.0008442   -3.4159033  
H    2.1107197    0.0000632   -0.5721868  
H   -2.9622183   -0.0003270   -2.8593377  
H   -1.5042275    0.0009692   -6.1484418  
H    2.0724152    0.0013148   -3.6409744  
C    3.1301136   -0.0023930    3.1728260  
C    2.5367753   -0.0024984    1.9564670  
C    1.1089893   -0.0013159    2.2356185  
C    1.0177862   -0.0006984    3.7115134  
N    2.1993570   -0.0012447    4.2663826  
C   -0.2459216    0.0005570    4.3957118  
C   -1.3675318    0.0015567    3.6398520  
O   -2.6129305    0.0027719    4.1448486  
C   -1.3083582    0.0013403    2.1483229  
O   -2.3693255    0.0021714    1.5241687  
C    0.0000000    0.0000000    1.4700000  
H    3.0095999   -0.0031916    0.9892483  
H   -0.2829635    0.0007785    5.4753125  
H   -3.1967429    0.0032879    3.3649027  
H    4.1849265   -0.0030669    3.3971983  
