60


C    -0.5913370    3.6267650    0.9186260  
C    -1.6029690    4.5340290    0.9256080  
C    -2.6821520    3.9933320    0.1378960  
C    -2.2675440    2.7272640   -0.3359330  
N    -0.9705340    2.5012740    0.1665330  
C    -3.0586510    1.9545360   -1.1935280  
C    -4.3102470    2.4523550   -1.5345360  
O    -5.1143300    1.7288630   -2.3590530  
C    -4.7522030    3.7063300   -1.0417960  
O    -6.0115790    4.0604050   -1.4697290  
C    -3.9496230    4.4809650   -0.2219570  
H    -1.5957950    5.4821690    1.4456030  
H    -2.7375360    1.0133120   -1.6217960  
H    -5.9414260    2.2278940   -2.4763390  
H    -6.2702340    4.9064080   -1.0747530  
H    -4.2927050    5.4516880    0.1288610  
H     0.3658860    3.6320190    1.4171450  
C    -0.1702210    1.3956350    0.0027190  
C     1.1961020    1.2990580    0.0490450  
C     1.5414680   -0.0839140   -0.1228620  
C     0.2590200   -0.8039000   -0.2763680  
N    -0.7506050    0.1446900   -0.2414670  
C     0.1413600   -2.1541640   -0.4404460  
C     1.3820310   -2.9321910   -0.5721760  
O     1.3815770   -4.1262480   -0.8223650  
C     2.7504880   -2.1869730   -0.3979930  
O     3.7606000   -2.8682900   -0.3712140  
C     2.7540180   -0.7245960   -0.2167590  
H     1.8886370    2.1231310    0.1170750  
H    -1.6917890   -0.0799330    0.0629940  
C     4.7056790    1.7718440    2.9301420  
C     3.8340030    1.0091450    2.2205080  
C     4.4611330    0.7022960    0.9505090  
C     5.7929140    1.3551340    0.9848620  
N     5.8665660    2.0066370    2.2022470  
C     6.7271830    1.2751810    0.0026830  
C     6.4069150    0.4997980   -1.1873040  
O     7.1861590    0.3391110   -2.1138150  
C     4.9782870   -0.1462420   -1.2859400  
O     4.6458920   -0.6660900   -2.3352930  
C     4.0547700   -0.0437070   -0.1232700  
H     2.8587770    0.6818200    2.5467770  
H     7.7048630    1.7426980    0.0675080  
H     4.6019380    2.1862260    3.9243650  
H     6.6899460    2.4696120    2.5539800  
C    -1.4254480   -3.7416400   -1.5615530  
C    -2.6936290   -4.1932870   -1.4256370  
C    -3.2565090   -3.5696730   -0.2480580  
C    -2.1864160   -2.7030420    0.3092210  
N    -1.0988220   -2.8180810   -0.5472290  
C    -2.3107040   -1.9898740    1.4634370  
C    -3.5789320   -2.0460130    2.1882450  
O    -3.7680640   -1.4509870    3.2381050  
C    -4.7398280   -2.9122040    1.5816930  
O    -5.8203320   -2.9357420    2.1488350  
C    -4.4684810   -3.6696510    0.3562740  
H    -3.1932420   -4.8979070   -2.0743980  
H    -1.4949690   -1.4369240    1.9171050  
H    -5.2618210   -4.3034800   -0.0282720  
H    -0.6790110   -3.9841180   -2.3023260  
