62


C     2.7277710    1.5038830   -2.1522910  
C     1.4914580    1.4039370   -1.5566910  
C     1.0863550    2.7320100   -1.1914110  
C     2.1314700    3.6005750   -1.5995040  
N     3.1135400    2.8229040   -2.1794280  
C     2.0971830    4.9853570   -1.4074910  
C     0.9769840    5.5177150   -0.7886730  
O     0.8830070    6.8624970   -0.6040890  
C    -0.0746460    4.6781350   -0.3449660  
O    -1.1068180    5.3696050    0.2503890  
C    -0.0429060    3.2838710   -0.5144790  
H     0.9225410    0.4919990   -1.4590260  
H     3.9922230    3.1662070   -2.5362300  
H     2.8949180    5.6455080   -1.7318060  
H     0.0173910    7.0404710   -0.1960850  
H    -1.8894810    4.7940490    0.3275650  
H     3.3597580    0.7347140   -2.5728140  
C    -1.0940470    2.4330890    0.0168370  
C    -1.5357990    1.2022920   -0.3911190  
C    -2.5429670    0.7377870    0.5265740  
C    -2.7112950    1.8161850    1.5207370  
N    -1.8599840    2.8621450    1.1381060  
C    -3.5500570    1.7693640    2.5802740  
C    -4.3705140    0.5713770    2.7502710  
O    -5.1946510    0.4546310    3.6421500  
C    -4.1743120   -0.6164500    1.7403070  
O    -4.7564630   -1.6626600    1.9660040  
C    -3.2493580   -0.4369040    0.5950420  
H    -1.2323950    0.6929990   -1.2917020  
H    -3.6670660    2.5809570    3.2919160  
H    -1.4065150    3.4074580    1.8639390  
C     0.3942050   -2.7705180   -0.4081060  
C    -0.2171810   -3.6744280   -1.2606680  
C    -1.5915680   -3.3156910   -1.3591510  
C    -1.7863530   -2.1721630   -0.5371370  
N    -0.5603040   -1.8356350    0.0000600  
C    -3.0444440   -1.5626160   -0.3405170  
C    -4.1099890   -2.1304890   -1.0428530  
O    -5.3402830   -1.5714290   -0.9575970  
C    -3.9256660   -3.2622920   -1.8890680  
O    -5.0864180   -3.6726260   -2.5084300  
C    -2.6941070   -3.8576900   -2.0548600  
H     0.2859380   -4.4734710   -1.7877430  
H    -0.4497540   -1.2322520    0.8025490  
H    -5.9616630   -2.1480980   -1.4363130  
H    -4.9325880   -4.5068460   -2.9763550  
H    -2.5779080   -4.7249820   -2.7006140  
C     1.7690890   -2.6740010   -0.0030560  
C     2.7439910   -3.6408080    0.0207740  
C     3.9665770   -3.0373300    0.4698770  
C     3.6487380   -1.6102010    0.7172270  
N     2.2861210   -1.4552490    0.4854270  
C     4.5588550   -0.6752420    1.0817730  
C     5.9449430   -1.0963860    1.2824440  
O     6.8327490   -0.3180730    1.5975590  
C     6.2935920   -2.6172020    1.0865350  
O     7.4468120   -2.9828430    1.2707410  
C     5.2262980   -3.5215230    0.6726900  
H     2.5956710   -4.6865630   -0.2076200  
H     4.3096270    0.3693290    1.2421630  
H     5.4835050   -4.5644110    0.5139620  
H     1.9228960   -0.5609070    0.1753410  
