64


C     0.5488910    0.1744870   -1.3449520  
C     0.2591800    1.2850800   -0.5789330  
C     1.4310330    1.5151160    0.2421720  
C     2.3830450    0.5156780   -0.0867720  
N     1.8055350   -0.2945650   -1.0417810  
C     3.6449990    0.3916780    0.5417100  
C     3.8884830    1.3299170    1.5436380  
O     5.0786940    1.2907410    2.2448690  
C     2.9504070    2.3305590    1.8972840  
O     3.3848450    3.1567480    2.9163640  
C     1.7294120    2.4413730    1.2633630  
H     2.3009450   -1.0228080   -1.5356840  
H     5.0558740    2.0249450    2.8858940  
H     2.6997380    3.8098380    3.1227230  
H     1.0143180    3.2053900    1.5566710  
H    -0.0525340   -0.3048920   -2.1044000  
C    -4.0986790    0.1313780   -0.1666900  
C    -2.7029270    0.1224360   -0.2431830  
C    -2.2723550    1.4594310   -0.4697750  
C    -3.4455130    2.2665390   -0.5211880  
N    -4.5246250    1.4382380   -0.3490810  
C    -3.4032100    3.6542950   -0.6997630  
C    -2.1512150    4.2336350   -0.8255100  
O    -2.0394330    5.5787410   -1.0134250  
C    -0.9678000    3.4455610   -0.7748830  
O     0.1906630    4.1812240   -0.9362160  
C    -0.9917900    2.0658240   -0.6019340  
H    -2.0533680   -0.7162870   -0.0400200  
H    -5.4986410    1.6924980   -0.2371860  
H    -4.2938850    4.2718950   -0.7409560  
H    -1.0915190    5.7734580   -1.1180660  
H     0.9422020    3.5686120   -1.0077570  
C     5.2191810   -1.0437270   -3.4270690  
C     4.6063150   -0.3229970   -2.4340730  
C     4.9168690   -0.9663080   -1.1823180  
C     5.7424280   -2.0795380   -1.4936250  
N     5.8966700   -2.1080980   -2.8651940  
C     6.2834380   -2.9281120   -0.5208250  
C     5.9987430   -2.6237990    0.7993690  
O     6.5058430   -3.3875840    1.8051980  
C     5.1718710   -1.5185270    1.1435940  
O     4.9642180   -1.3843940    2.5005610  
C     4.5946330   -0.6909400    0.1784490  
H     4.0315330    0.5808270   -2.5760510  
H     6.4628900   -2.7715420   -3.3702200  
H     6.9186500   -3.7748130   -0.7601160  
H     6.1928340   -2.9703090    2.6307870  
H     5.0658910   -0.4344420    2.7257380  
H     5.2375390   -0.8818130   -4.4956050  
C    -3.6912380   -4.2364750   -0.4746380  
C    -4.9158880   -4.6053250   -0.0162520  
C    -5.6511310   -3.3940460    0.2756840  
C    -4.7403190   -2.2789890   -0.0349980  
N    -3.5515070   -2.8529440   -0.4503980  
C    -5.0434970   -0.9393720    0.0759890  
C    -6.4474120   -0.6482780    0.4477710  
O    -6.9259570    0.4796370    0.4360960  
C    -7.4035650   -1.8285120    0.8748880  
O    -8.5170380   -1.5332740    1.2858040  
C    -6.9196860   -3.1879080    0.7393130  
H    -5.2792380   -5.6151260    0.1079150  
H    -7.5892520   -4.0000340    1.0031690  
H    -2.8677320   -4.8527750   -0.8105800  
H    -2.8496230   -2.3365590   -0.9601600  
