60


C    -1.5860240   -1.9574430    0.1117680  
C    -2.6540780   -1.0856350    0.3205780  
C    -3.8461850   -1.8508920    0.3135980  
C    -3.4693130   -3.2109190    0.1063640  
N    -2.1038890   -3.2457810   -0.0095560  
C    -4.4085490   -4.2479670    0.0436900  
C    -5.7439220   -3.9054760    0.1870800  
O    -6.7019010   -4.8701110    0.1313170  
C    -6.1385740   -2.5479390    0.3888800  
O    -7.5047860   -2.3851150    0.5055320  
C    -5.2157290   -1.5281510    0.4545500  
H    -2.5579070   -0.0246120    0.4729090  
H    -1.5264470   -4.0628830   -0.1433530  
H    -4.1339910   -5.2854410   -0.1151220  
H    -7.5630660   -4.4279350    0.2333420  
H    -7.7143340   -1.4409020    0.5643370  
H    -5.5316280   -0.4969890    0.5979880  
C     0.5887760    1.8571910   -0.0653780  
C     1.8891730    1.4134580   -0.0764440  
C     1.8173440   -0.0238060   -0.0420620  
C     0.3543740   -0.3216210    0.0005730  
N    -0.3457160    0.7761510   -0.0147040  
C    -0.1685970   -1.6924550    0.0239380  
C     0.7929630   -2.6698860   -0.0640350  
O     0.4986470   -3.9955450   -0.0639300  
C     2.2470790   -2.4119080   -0.0864280  
O     2.9963260   -3.3937770   -0.0281080  
C     2.7576820   -1.0131040   -0.1060600  
H     2.7886780    2.0034560   -0.1845210  
H     1.3789300   -4.4395790   -0.0792530  
C     5.4486990    1.2854700    2.5254140  
C     6.6386420    0.9894940    1.9434380  
C     6.3600120    0.1389460    0.8043870  
C     4.8876520   -0.0350050    0.7697440  
N     4.3980730    0.6816160    1.8409250  
C     4.2081450   -0.8078240   -0.1353290  
C     5.0167070   -1.4380430   -1.2051460  
O     4.5158940   -2.0044100   -2.1593220  
C     6.5805570   -1.3072980   -1.1465390  
O     7.2496130   -1.9032600   -1.9752190  
C     7.1699140   -0.4666720   -0.1052690  
H     7.6146990    1.3158560    2.2713190  
H     8.2512500   -0.3715170   -0.0835080  
H     5.2414720    1.8875940    3.4002320  
H     3.4167940    0.7913470    2.0486730  
C     0.8297940    4.3560610   -0.0231270  
C     0.0805910    3.2071330   -0.1070810  
C    -1.3154870    3.6440260   -0.2398740  
C    -1.2925040    5.1262680   -0.2122830  
N     0.0401290    5.4830950   -0.0854360  
C    -2.3833900    5.9269060   -0.3012000  
C    -3.6941320    5.2949900   -0.4321140  
O    -4.7348450    5.9280750   -0.5153730  
C    -3.7475300    3.7254070   -0.4652550  
O    -4.8324120    3.1717880   -0.5466970  
C    -2.4869100    2.9749890   -0.3840730  
H    -2.3329160    7.0112950   -0.2839840  
H    -2.5273300    1.8951320   -0.4339220  
H     1.9013670    4.4568060    0.0877690  
H     0.3788770    6.4318800   -0.0349480  
