62


C     5.6489540    2.1699100    0.5259510  
C     5.1303720    0.9421990    0.1679570  
C     6.2712300    0.0887340   -0.1079600  
C     7.4384510    0.8660280    0.1091830  
N     7.0245280    2.1260640    0.4922180  
C     8.7314600    0.3642980   -0.0829460  
C     8.8519850   -0.9491190   -0.5081210  
O    10.0875880   -1.4880300   -0.7074500  
C     7.6956060   -1.7407300   -0.7456470  
O     7.9793990   -3.0218000   -1.1746550  
C     6.4200130   -1.2429740   -0.5559160  
H     7.6352410    2.8945110    0.7226820  
H     9.6242940    0.9589470    0.0808530  
H     9.9595410   -2.4010140   -1.0181920  
H     7.1541300   -3.4938620   -1.3603050  
H     5.5518110   -1.8657820   -0.7566450  
H     5.1295140    3.0686060    0.8262630  
C     1.6024540    2.9448400   -1.7688640  
C     2.8605610    2.6209280   -1.3371440  
C     2.7496670    1.4173940   -0.5596640  
C     1.3768230    1.0563370   -0.5670210  
N     0.7021840    1.9969320   -1.3137150  
C     0.9010120   -0.0983280    0.0816880  
C     1.8396940   -0.8953470    0.7337340  
O     1.4329880   -2.0237400    1.3847310  
C     3.2108000   -0.5472030    0.7332780  
O     3.9940350   -1.4346130    1.4446580  
C     3.6991950    0.5979780    0.1049290  
H     3.7685320    3.1620350   -1.5591480  
H    -0.2979120    2.0357230   -1.4345190  
H     2.2237100   -2.3948200    1.8164010  
H     4.8925870   -1.0703680    1.5234760  
H     1.2621540    3.7739470   -2.3726280  
C    -0.9684750   -1.6838080   -0.4011700  
C    -2.3190270   -1.7622220   -0.2676500  
C    -2.7573360   -0.5268490    0.3332820  
C    -1.5370840    0.2853940    0.5508540  
N    -0.4723440   -0.4677540    0.0677270  
C    -1.5214620    1.5273450    1.1053440  
C    -2.7897930    2.1169620    1.5121950  
O    -2.8907980    3.2421960    1.9750940  
C    -4.1019830    1.2646850    1.3451870  
O    -5.1532240    1.7066280    1.7718180  
C    -3.9927740   -0.0619240    0.6987640  
H    -2.9440960   -2.5872850   -0.5743110  
H    -0.6115270    2.0927810    1.2702090  
H    -0.2748310   -2.4051320   -0.8091760  
C    -5.2817830   -2.1410400    1.1698480  
C    -6.5006750   -2.6766910    0.9182960  
C    -7.2379820   -1.7193820    0.1221850  
C    -6.3350970   -0.5577470   -0.0683250  
N    -5.1450680   -0.8684890    0.5972190  
C    -6.6506440    0.5356050   -0.8034020  
C    -7.9697550    0.5947430   -1.4323210  
O    -8.3318970    1.5349290   -2.1225880  
C    -8.9523950   -0.6127170   -1.2172730  
O   -10.0603210   -0.5749110   -1.7297390  
C    -8.4849050   -1.7463620   -0.4173100  
H    -6.8614890   -3.6357540    1.2611210  
H    -5.9850440    1.3798170   -0.9390570  
H    -9.1594130   -2.5878650   -0.2910200  
H    -4.4570940   -2.5426600    1.7432450  
