60


C     5.6402920   -0.9609770   -1.0820520  
C     5.8173260   -2.3067900   -1.1379930  
C     4.7739460   -2.9202210   -0.3546930  
C     3.9699800   -1.8813310    0.1675130  
N     4.5076400   -0.6656220   -0.3019230  
C     2.9008540   -2.1277550    1.0359160  
C     2.6118380   -3.4530320    1.3379600  
O     1.5771560   -3.7361240    2.1732360  
C     3.3890660   -4.5075250    0.7951890  
O     2.9784170   -5.7608650    1.1877400  
C     4.4675480   -4.2533670   -0.0349350  
H     6.5952730   -2.8171750   -1.6890640  
H     2.3115040   -1.3470160    1.5003280  
H     1.5168120   -4.7042080    2.2511260  
H     3.5198200   -6.4380520    0.7553090  
H     5.0697090   -5.0714290   -0.4237570  
H     6.1757970   -0.1576580   -1.5645070  
C     4.0457590    0.6103260   -0.0899870  
C     4.7317220    1.7964390   -0.0976060  
C     3.7806630    2.8502570    0.1131050  
C     2.4610640    2.1873800    0.2376820  
N     2.6813060    0.8222890    0.1657690  
C     1.2825700    2.8576880    0.3845790  
C     1.3371790    4.3239140    0.5369430  
O     0.3384360    4.9898350    0.7542200  
C     2.7377980    5.0301640    0.4482440  
O     2.7705310    6.2460930    0.5670900  
C     3.9133200    4.2034340    0.2298800  
H     5.8026990    1.9106700   -0.1713290  
H     4.8738420    4.7024850    0.1537470  
H     1.9719650    0.1751480   -0.1595120  
C    -0.9385240    2.4342630    1.4339520  
C    -2.0448970    1.6796530    1.2268990  
C    -1.8402540    0.9304800    0.0089700  
C    -0.4952860    1.3166390   -0.4874100  
N     0.0248140    2.2168230    0.4355050  
C     0.0609520    0.8556270   -1.6411710  
C    -0.6867100   -0.1138700   -2.4344330  
O    -0.2582770   -0.5977200   -3.4699450  
C    -2.1077400   -0.5432740   -1.9322600  
O    -2.7748430   -1.2875600   -2.6282020  
C    -2.6174080    0.0231790   -0.6589910  
H    -2.9235120    1.6535500    1.8530680  
H     1.0118740    1.2036020   -2.0298390  
H    -0.7202590    3.1344150    2.2260110  
C    -6.5149850    2.0689660    0.2425130  
C    -5.2178560    1.8732330   -0.0954710  
C    -5.0106420    0.4326970    0.0131310  
C    -6.3485740   -0.0917640    0.4352050  
N    -7.2198400    0.8673980    0.5681590  
C    -6.5868770   -1.4980910    0.6308650  
C    -5.5531470   -2.3454140    0.4243410  
O    -5.6261500   -3.6767960    0.5804290  
C    -4.1852940   -1.8524570    0.0326980  
O    -3.2836520   -2.6821060   -0.0213890  
C    -3.9575890   -0.3934540   -0.2115860  
H    -4.4862720    2.6115200   -0.3901870  
H    -7.5685410   -1.8453610    0.9331600  
H    -4.7219470   -4.0120960    0.3931650  
H    -7.0557230    3.0072320    0.2823080  
