62


C     5.6331650   -1.8268550    1.4929460  
C     6.9620700   -1.5250940    1.6070130  
C     7.1806640   -0.2933140    0.9027370  
C     5.9257310    0.1130680    0.3782600  
N     4.9829480   -0.8461750    0.7461760  
C     5.7601030    1.3015750   -0.3500580  
C     6.8867980    2.0822010   -0.5655360  
O     6.7799210    3.2477350   -1.2674910  
C     8.1515450    1.6840350   -0.0588150  
O     9.1741260    2.5637150   -0.3586090  
C     8.3074360    0.5186750    0.6696980  
H     7.7034840   -2.1162140    2.1270560  
H     4.7973690    1.6356530   -0.7212100  
H     7.6676930    3.6436970   -1.3043810  
H    10.0030460    2.2394940    0.0233530  
H     9.2852700    0.2395150    1.0575380  
H     5.0699200   -2.6733600    1.8580930  
C     1.3286990   -1.0009000    3.2657860  
C     2.6297260   -0.9264490    2.8449920  
C     2.6052150   -0.8979790    1.4090220  
C     1.2461450   -0.9473830    1.0109770  
N     0.4861850   -0.9864940    2.1661230  
C     0.8230350   -0.9418870   -0.3357720  
C     1.8375520   -0.8917180   -1.2941950  
O     1.5139370   -0.8387090   -2.6123100  
C     3.2071570   -0.8623720   -0.9250640  
O     4.0707600   -0.8463580   -1.9938490  
C     3.6027200   -0.8574020    0.4093160  
H     3.5048540   -0.8883520    3.4774890  
H    -0.5001010   -1.1972830    2.1889720  
H     2.3461350   -0.8608360   -3.1170900  
H     4.9792340   -0.6872920   -1.6865980  
H     0.9213220   -1.0473950    4.2658050  
C    -2.4458180    1.8281210    0.5614870  
C    -3.4869350    1.2125810   -0.0736910  
C    -2.9383450    0.0018720   -0.6823870  
C    -1.4997880   -0.0233930   -0.3358020  
N    -1.2694640    1.1111950    0.4230420  
C    -0.6027480   -0.9774020   -0.7225680  
C    -1.1390830   -2.0889160   -1.5401050  
O    -0.4710760   -3.0527740   -1.8668130  
C    -2.6502020   -2.0410880   -1.9775200  
O    -3.0701490   -2.9103760   -2.7243080  
C    -3.4929590   -0.9565500   -1.4710070  
H    -4.5374010   -0.9467480   -1.7650010  
H    -2.4565020    2.7468130    1.1336390  
H    -0.3651250    1.3779470    0.7815020  
C    -5.2580140    2.9383730   -0.5822520  
C    -4.8629890    1.7025320   -0.1600420  
C    -6.0817190    0.9944900    0.2296950  
C    -7.2063670    1.9331720   -0.0074470  
N    -6.6341950    3.0982530   -0.4818140  
C    -8.5119890    1.6441590    0.2231680  
C    -8.8470590    0.3285270    0.7611990  
O    -9.9919180   -0.0217560    1.0018540  
C    -7.6685590   -0.6716190    1.0513520  
O    -7.9235840   -1.7658830    1.5270590  
C    -6.2985850   -0.2445760    0.7414210  
H    -9.3207750    2.3442430    0.0371910  
H    -5.4962210   -0.9489810    0.9353370  
H    -4.6462450    3.7449400   -0.9649400  
H    -7.1500390    3.9010650   -0.8065680  
