62


C    -2.6708730    1.3233140    1.4106800  
C    -1.7728630    1.9669790    0.5774090  
C    -2.4196220    3.1928780    0.1598760  
C    -3.6969200    3.2230110    0.7736940  
N    -3.8183370    2.0733280    1.5302810  
C    -4.6139590    4.2628770    0.5740070  
C    -4.2316440    5.2964020   -0.2652820  
O    -5.0806930    6.3392580   -0.4939080  
C    -2.9571250    5.2813920   -0.8935610  
O    -2.7228790    6.3797580   -1.7004380  
C    -2.0580280    4.2517810   -0.6964910  
H    -4.6057120    1.8384090    2.1146070  
H    -5.5914000    4.2851590    1.0448580  
H    -4.6238600    6.9552100   -1.0924980  
H    -1.8219900    6.3325260   -2.0528820  
H    -1.0817040    4.2719340   -1.1713420  
H    -2.5501300    0.4105740    1.9776120  
C    -0.6735540   -2.0395140   -0.7909950  
C     0.6811060   -1.8518920   -0.9280930  
C     0.9463760   -0.4841570   -0.5863830  
C    -0.2907000    0.1018310   -0.2216600  
N    -1.2659780   -0.8705400   -0.3519550  
C    -0.4539950    1.4380040    0.1969000  
C     0.7261420    2.1906400    0.2164040  
O     0.6858150    3.5057900    0.5796420  
C     1.9756640    1.6249830   -0.1303650  
O     3.0241190    2.5272770   -0.0429930  
C     2.1359090    0.2923220   -0.5189340  
H     1.4005120   -2.6127480   -1.1933290  
H    -2.2579570   -0.6808630   -0.3299030  
H     1.5983740    3.8409700    0.5229800  
H     3.7674550    2.2093240   -0.5788280  
C    -1.2889450   -3.9943960   -2.1879390  
C    -2.1547830   -5.0356760   -2.1740020  
C    -2.9509890   -4.9209920   -0.9698870  
C    -2.4579590   -3.7129040   -0.2623620  
N    -1.4472130   -3.1756800   -1.0588010  
C    -2.9346980   -3.2818210    0.9338340  
C    -4.0248630   -4.0268800    1.5584420  
O    -4.5236630   -3.7004220    2.6250430  
C    -4.5763760   -5.2970140    0.8156290  
O    -5.4929260   -5.9269040    1.3186990  
C    -3.9584570   -5.6754950   -0.4588580  
H    -2.2449830   -5.8034040   -2.9286460  
H    -2.5404940   -2.4183690    1.4574020  
H    -4.3336810   -6.5651970   -0.9554390  
H    -0.5444780   -3.7189930   -2.9223420  
C     3.7617230   -1.1001340   -1.9021380  
C     3.4444940   -0.2681840   -0.8661620  
C     4.7161100   -0.1575480   -0.1077720  
C     5.6793140   -0.9957870   -0.8789390  
N     5.1120360   -1.5351790   -1.9236120  
C     7.0470030   -1.1533950   -0.4618030  
C     7.4376790   -0.5418770    0.6829130  
O     8.6796250   -0.6116370    1.1904800  
C     6.4848890    0.2841330    1.4971870  
O     6.9098960    0.8109070    2.5241090  
C     5.0863660    0.4463320    1.0390070  
H     7.7252840   -1.7605060   -1.0511500  
H     8.6562030   -0.0784960    2.0150580  
H     4.4333400    1.0594300    1.6515590  
H     3.0987850   -1.4359640   -2.6903180  
