62


C    -1.8917250    0.0702660    0.8231310  
C    -1.3298320   -1.1423260    0.4370350  
C    -2.4419370   -2.0514820    0.1986660  
C    -3.6324920   -1.3389380    0.4519000  
N    -3.2570550   -0.0450830    0.8335980  
C    -4.9093230   -1.8879250    0.3277720  
C    -4.9806570   -3.2156600   -0.0705630  
O    -6.1933600   -3.8169270   -0.2125870  
C    -3.7962230   -3.9548960   -0.3316540  
O    -4.0297560   -5.2583170   -0.7166350  
C    -2.5373110   -3.3954110   -0.2037570  
H    -5.8141000   -1.3238850    0.5231720  
H    -6.0309810   -4.7319060   -0.5014140  
H    -3.1847270   -5.6992550   -0.8911760  
H    -1.6339460   -3.9625460   -0.4037170  
H    -1.4301780    1.0086180    1.0929620  
C     0.0710110   -1.4053940    0.3101550  
C     1.1451930   -0.5548470    0.5157260  
C     2.3164460   -1.3143980    0.2447000  
C     1.7903370   -2.6659950   -0.1354400  
N     0.4890280   -2.7161160   -0.0898170  
C     2.6586310   -3.7473010   -0.5134150  
C     3.9845580   -3.4898310   -0.5390320  
O     4.9182510   -4.3837730   -0.8841250  
C     4.5593680   -2.1330980   -0.1700600  
O     5.7902320   -2.0532490   -0.2353540  
C     3.6742020   -1.0335010    0.2486020  
H     1.1013300    0.4874360    0.7940380  
H     2.2493330   -4.7160480   -0.7766690  
H     5.7734940   -3.9020030   -0.7954690  
C     3.6957560    1.0463580    1.6691550  
C     4.2281550    0.2303320    0.7020530  
C     5.4200500    0.9847610    0.2308150  
C     5.4062960    2.2292300    1.0498220  
N     4.4035890    2.2419470    1.8913110  
C     6.3957820    3.2597400    0.8961500  
C     7.3518380    3.0860060   -0.0484230  
O     8.3323490    3.9667610   -0.3072320  
C     7.3834440    1.8567120   -0.9067770  
O     8.2753520    1.7678520   -1.7501510  
C     6.3622580    0.8033300   -0.7142040  
H     6.3525910    4.1456290    1.5200190  
H     8.8556510    3.5642230   -1.0350680  
H     6.4469800   -0.0796450   -1.3345630  
H     2.8287450    0.8370290    2.2827150  
C    -4.6418640    1.1786850    2.4455200  
C    -5.5086000    2.2320580    2.3924430  
C    -5.5468950    2.6990430    1.0310700  
C    -4.6714630    1.8821480    0.2762220  
N    -4.1204920    0.9648150    1.1679440  
C    -4.4570560    2.0436480   -1.0952300  
C    -5.1505460    3.0671530   -1.7240410  
O    -4.9859370    3.2759880   -3.0605950  
C    -6.0330200    3.9040800   -0.9887950  
O    -6.6446580    4.8754020   -1.7566460  
C    -6.2366490    3.7333980    0.3680370  
H    -6.0593970    2.6373790    3.2301940  
H    -3.7886360    1.4093950   -1.6667730  
H    -5.5534580    4.0261030   -3.3088520  
H    -7.2386050    5.4025830   -1.2021960  
H    -6.9176570    4.3865310    0.9099940  
H    -4.3280860    0.5458690    3.2626430  
