60


C    -3.8476450    0.1296830   -1.2240940  
C    -5.1797250   -0.0786890   -1.0353980  
C    -5.3301910   -1.2852900   -0.2658560  
C    -4.0313220   -1.7910050   -0.0195720  
N    -3.1177480   -0.9116900   -0.6291100  
C    -3.8103250   -2.9165890    0.7786140  
C    -4.9229570   -3.5661130    1.3005150  
O    -4.7498670   -4.6764940    2.0765620  
C    -6.2286450   -3.0885710    1.0402430  
O    -7.2313420   -3.8375340    1.6241310  
C    -6.4412240   -1.9559830    0.2702090  
H    -5.9719790    0.5626830   -1.3966710  
H    -2.8256780   -3.3080910    0.9936200  
H    -5.6340540   -4.9830700    2.3415210  
H    -8.0928740   -3.4555700    1.4004910  
H    -7.4505400   -1.5868110    0.0993350  
H    -3.3283640    0.9363640   -1.7155140  
C    -0.1541760    2.1862070   -0.2529490  
C     1.0066240    1.4296060   -0.2371650  
C     0.5986320    0.0676160   -0.4064130  
C    -0.8908020    0.1498480   -0.4853920  
N    -1.3191360    1.3714890   -0.3819240  
C    -1.7267220   -1.0293610   -0.6596530  
C    -1.0651700   -2.2056170   -0.8910360  
O    -1.6933890   -3.3560670   -1.1981110  
C     0.4108850   -2.3136700   -0.8477950  
O     0.8845700   -3.4291170   -1.1271480  
C     1.2593210   -1.1375760   -0.5111550  
H     2.0197870    1.8000650   -0.2900210  
H    -0.9754090   -4.0151910   -1.3229530  
C     2.6851480   -1.3130280   -0.3181760  
C     3.5903410   -0.4668800    0.2966660  
C     4.8772810   -1.0972140    0.2756560  
C     4.6832560   -2.4041270   -0.4004380  
N     3.3511280   -2.4646720   -0.7404200  
C     5.6734460   -3.3100790   -0.6059360  
C     7.0194960   -2.9885580   -0.1409650  
O     7.9719280   -3.7406550   -0.2816590  
C     7.2482080   -1.6067060    0.5750410  
O     8.3684000   -1.3193750    0.9706260  
C     6.1010910   -0.7137470    0.7412340  
H     3.3605070    0.4755740    0.7662200  
H     5.5151520   -4.2633560   -1.1002370  
H     6.2700430    0.2367720    1.2385660  
H     2.8464330   -3.2604290   -1.1094700  
C     2.2187110    5.1668990    1.9155590  
C     1.5219140    6.2858580    1.5976600  
C     0.4298260    5.8801700    0.7367240  
C     0.5595150    4.4184550    0.5634770  
N     1.6693420    4.0512020    1.2804200  
C    -0.3118440    3.6145180   -0.1468640  
C    -1.4270680    4.3152460   -0.8388600  
O    -2.1728080    3.7745710   -1.6319790  
C    -1.6103270    5.8577550   -0.5998720  
O    -2.5894960    6.4106260   -1.0714520  
C    -0.5940960    6.5755150    0.1716470  
H     1.7323850    7.2924190    1.9280930  
H    -0.7175280    7.6468340    0.2978190  
H     3.0908470    5.0496440    2.5444940  
H     1.9034650    3.0887960    1.4802510  
