62


C     4.8043530    0.2052050   -0.1546680  
C     5.3041340   -0.9338970    0.4853290  
C     6.7195590   -0.8733070    0.4375410  
C     7.0603560    0.3332150   -0.2449000  
N     5.8913350    0.9548440   -0.5898350  
C     8.3875680    0.7214270   -0.4698450  
C     9.3849620   -0.1163920    0.0005700  
O    10.6927360    0.2099560   -0.1882370  
C     9.0631620   -1.3267290    0.6861030  
O    10.1741800   -2.0426660    1.0865040  
C     7.7586280   -1.7100640    0.9077430  
H     4.7163670   -1.6885500    0.9847640  
H     5.7662790    1.8727140   -0.9984270  
H     8.6528470    1.6369680   -0.9876240  
H    11.2291810   -0.4975660    0.2099270  
H     9.8932040   -2.8503170    1.5414780  
H     7.5359920   -2.6370710    1.4323220  
C     0.8540840   -1.8577020    0.0243020  
C     2.1813950   -1.5825620   -0.0372890  
C     2.3292040   -0.1587440   -0.2275450  
C     0.9598760    0.3811130   -0.2947800  
N     0.0945320   -0.6874930   -0.0953810  
C     0.6351520    1.6913700   -0.5187560  
C     1.7109370    2.6277610   -0.7297780  
O     1.5555740    3.8259600   -0.9307850  
C     3.1846520    2.0763270   -0.7171860  
O     4.0692720    2.8617330   -1.0337430  
C     3.4444760    0.6553680   -0.3505750  
H     2.9724250   -2.3141160   -0.0108050  
H    -0.3856980    2.0483870   -0.5826750  
H     0.3449870   -2.8042370    0.1278300  
C    -2.5689200    1.6392120    2.4794820  
C    -3.7529800    1.1659300    1.9738350  
C    -3.4318170    0.2487540    0.9098850  
C    -2.0150510    0.2072570    0.8378820  
N    -1.5185010    1.0567550    1.8025920  
C    -1.3222990   -0.6327870   -0.0543780  
C    -2.0991540   -1.4697190   -0.8510470  
O    -1.5069840   -2.3412790   -1.7084880  
C    -3.5184130   -1.4488530   -0.7878940  
O    -4.1045810   -2.3206810   -1.6686460  
C    -4.2184570   -0.5740420    0.0479170  
H    -4.7364110    1.4059290    2.3508600  
H    -0.5442610    1.2955460    1.9109730  
H    -2.2444080   -2.8308010   -2.1257780  
H    -4.8745560   -2.7303700   -1.2003890  
H    -2.3839220    2.3385700    3.2822720  
C    -6.8163280    2.9575770   -0.1775150  
C    -8.0375090    2.3754530   -0.0772860  
C    -7.8226420    0.9465980    0.0171690  
C    -6.3507340    0.7439350   -0.0280960  
N    -5.8070170    1.9976190   -0.1631090  
C    -5.6977640   -0.4688550    0.0361940  
C    -6.5759790   -1.6364890    0.0430070  
O    -6.1780580   -2.7954190   -0.0986600  
C    -8.1303010   -1.4503380    0.2066230  
O    -8.8156370   -2.4469640    0.3635330  
C    -8.6796160   -0.1005290    0.1388860  
H    -8.9942200    2.8766080   -0.0824540  
H    -9.7560780    0.0172910    0.2096170  
H    -6.5567640    4.0035550   -0.2726150  
H    -4.8166100    2.1873150   -0.1065630  
