60


C    -3.9539800    0.7416820   -1.8431410  
C    -4.7389960    1.8539640   -1.9158450  
C    -5.7275550    1.7520040   -0.8760550  
C    -5.4989900    0.5295520   -0.1984080  
N    -4.4013650   -0.0893650   -0.8110010  
C    -6.2525190    0.1365850    0.9120510  
C    -7.2719800    0.9821320    1.3281540  
O    -8.0385830    0.6356120    2.4030800  
C    -7.5250960    2.2007310    0.6509750  
O    -8.5708860    2.9309810    1.1805470  
C    -6.7655120    2.5931550   -0.4379940  
H    -4.6305510    2.6587840   -2.6302420  
H    -6.0840520   -0.7905050    1.4440430  
H    -8.6874700    1.3478310    2.5361120  
H    -8.6825760    3.7502910    0.6762230  
H    -6.9639900    3.5401340   -0.9360550  
H    -3.1084260    0.4396720   -2.4406690  
C    -0.2272760   -1.0301610   -0.1294320  
C    -0.3089110   -2.3554090    0.2006430  
C    -1.7121300   -2.6862990    0.1265880  
C    -2.3752880   -1.4077280   -0.2828780  
N    -1.5090480   -0.4508220   -0.4287260  
C    -3.8170680   -1.3171710   -0.4653350  
C    -4.5323650   -2.4645790   -0.2668450  
O    -5.8603550   -2.5496610   -0.4305980  
C    -3.8884830   -3.7478010    0.1584750  
O    -4.6240120   -4.7266670    0.3049720  
C    -2.4322580   -3.8089520    0.3493610  
H     0.4944840   -3.0229840    0.4787380  
H    -6.0856890   -3.4825730   -0.2120280  
H    -2.0087070   -4.7603370    0.6550030  
C     0.9117710   -0.1571230   -0.2102130  
C     2.2530120   -0.3985350   -0.0063090  
C     2.9542060    0.8386720   -0.1978980  
C     1.9198110    1.8542010   -0.5226790  
N     0.7189670    1.1820870   -0.5369050  
C     2.1650450    3.1746530   -0.7278210  
C     3.5379420    3.6448720   -0.6311140  
O     3.8601310    4.8156120   -0.7647830  
C     4.6649480    2.5866510   -0.3589340  
O     5.8280950    2.9377920   -0.4389300  
C     4.2847590    1.1724410   -0.0899620  
H     2.6933720   -1.3485770    0.2558210  
H     1.3841000    3.8985110   -0.9378490  
H    -0.2019710    1.5774580   -0.6644300  
C     5.7143700   -2.6400540   -1.9315800  
C     5.0215620   -1.5073970   -1.6423780  
C     5.6194040   -0.9230240   -0.4598300  
C     6.7401420   -1.8191530   -0.0853170  
N     6.7255170   -2.8532430   -1.0029200  
C     7.6011590   -1.6075720    0.9436010  
C     7.4196080   -0.4135670    1.7565360  
O     8.1579050   -0.1129670    2.6814770  
C     6.1999250    0.5206630    1.4332740  
O     5.9382890    1.4229410    2.2061610  
C     5.3548360    0.2261450    0.2408630  
H     4.1856440   -1.1114410   -2.1982570  
H     8.4302360   -2.2692320    1.1749120  
H     5.5732700   -3.3410020   -2.7437280  
H     7.4245830   -3.5772640   -1.0594550  
