64


C    -1.9606390   -1.1147450    0.7999080  
C    -3.0430380   -0.3027290    0.4898180  
C    -4.0654200   -1.1917370   -0.0367690  
C    -3.5215950   -2.5013100   -0.0333710  
N    -2.2428340   -2.4184920    0.4911300  
C    -4.2142460   -3.6220150   -0.5063960  
C    -5.4942910   -3.4187080   -0.9962010  
O    -6.2241560   -4.4725520   -1.4621310  
C    -6.0575420   -2.1156870   -1.0111780  
O    -7.3410160   -2.0698070   -1.5225070  
C    -5.3665960   -1.0135140   -0.5466650  
H    -1.6176840   -3.1939800    0.6506300  
H    -3.7932500   -4.6222420   -0.4964330  
H    -7.0928430   -4.1217600   -1.7255530  
H    -7.7110050   -1.1859550   -1.3781720  
H    -5.8335890   -0.0348670   -0.5371030  
H    -1.0275660   -0.8546360    1.2773880  
C     0.1934020    2.6825110   -0.0014810  
C    -0.6109650    1.5789820   -0.0438750  
C    -1.9098250    1.9142260    0.4767210  
C    -1.8456800    3.3441370    0.8180220  
N    -0.5652750    3.7992170    0.4637550  
C    -2.8548480    4.0620210    1.3693810  
C    -4.1201840    3.3810270    1.5918580  
O    -5.1101800    3.9307610    2.0504800  
C    -4.2339390    1.8574680    1.1958180  
O    -5.3201840    1.3220580    1.3498170  
C    -3.0388950    1.1462840    0.6802550  
H    -0.3419950    0.6328910   -0.4843980  
H    -2.7763960    5.1136710    1.6267400  
H    -0.1156060    4.4764360    1.0719850  
C     3.6041050   -0.2221720   -0.1377970  
C     2.3820640    0.3864430    0.0502260  
C     2.4865650    1.7469060   -0.3815980  
C     3.8202760    1.9368220   -0.8170880  
N     4.5032090    0.7437660   -0.6159450  
C     4.2929390    3.1543950   -1.3119760  
C     3.3955360    4.2127950   -1.3674370  
O     3.7995450    5.4145150   -1.8647790  
C     2.0592680    4.0602490   -0.9236670  
O     1.2991150    5.2002880   -1.0637610  
C     1.5760490    2.8425000   -0.4196000  
H     1.5299080   -0.0870240    0.5107880  
H     5.3339130    0.4927730   -1.1361550  
H     5.3124600    3.2981990   -1.6545470  
H     3.0223850    6.0009190   -1.8645920  
H     0.3554460    4.9766780   -0.9528420  
C     1.4757130   -4.1533110   -0.5568760  
C     1.7950860   -2.8190080   -0.5771850  
C     3.1288910   -2.6931790   -0.0569740  
C     3.5707740   -4.0048560    0.2597420  
N     2.5393220   -4.8702890   -0.0431850  
C     4.8481060   -4.2829990    0.7602310  
C     5.7038570   -3.2082890    0.9431490  
O     6.9560550   -3.4141380    1.4419530  
C     5.2920010   -1.8888250    0.6310930  
O     6.2631040   -0.9309090    0.8757940  
C     4.0175570   -1.5980270    0.1357420  
H     1.1677060   -2.0260440   -0.9566360  
H     2.5771940   -5.8730770    0.0505920  
H     5.1818320   -5.2856220    1.0067210  
H     7.3663840   -2.5374150    1.5456720  
H     5.8348910   -0.0625810    0.9727840  
H     0.5816850   -4.6614520   -0.8910490  
