62


C     3.4335790    1.6178490    0.0033700  
C     3.6298460    2.9824870    0.0002160  
C     2.3392820    3.6004350    0.0307250  
C     1.3788020    2.5553840    0.0246930  
N     2.0615050    1.3519720   -0.0337610  
C    -0.0146490    2.7847110    0.0377940  
C    -0.4059360    4.1290850    0.1467790  
O    -1.7218200    4.4523370    0.2825000  
C     0.5466590    5.1794480    0.1444880  
O    -0.0209300    6.4389780    0.2311380  
C     1.9033910    4.9386320    0.0658750  
H     4.5871760    3.4821110   -0.0586560  
H     1.6511910    0.5539040    0.4504590  
H    -1.7744940    5.4241630    0.2951830  
H     0.6786970    7.1083780    0.2220390  
H     2.6137770    5.7629180    0.0595900  
C    -0.4705560   -1.1351400    2.0499030  
C    -1.6922440   -1.5358760    1.6183620  
C    -2.1294690   -0.4987710    0.6938490  
C    -1.0166950    0.5016100    0.7071040  
N    -0.0489310    0.1020160    1.4957580  
C    -1.0370540    1.7192450   -0.0856450  
C    -2.0817360    1.8108570   -0.9666990  
O    -2.2182360    2.8013150   -1.8534590  
C    -3.2285480    0.8405070   -0.9935560  
O    -4.1847490    1.1253310   -1.7079070  
C    -3.2065580   -0.3787030   -0.1273950  
H    -2.2096580   -2.4557080    1.8511220  
H    -3.0860640    2.6452280   -2.2888980  
H     0.1964140   -1.6485520    2.7325950  
C    -5.8801720   -2.0072200    2.9863100  
C    -6.7106850   -2.7420240    2.2048070  
C    -6.2478420   -2.6053620    0.8390990  
C    -5.0597460   -1.7171900    0.8923930  
N    -4.8954980   -1.3886580    2.2190070  
C    -4.3415490   -1.3032850   -0.1997540  
C    -4.7402360   -1.8659690   -1.5089660  
O    -4.0794860   -1.7070390   -2.5197740  
C    -6.0282610   -2.7593680   -1.5855110  
O    -6.4108730   -3.1440690   -2.6783180  
C    -6.7124200   -3.1016280   -0.3383790  
H    -7.5625720   -3.3186270    2.5340020  
H    -7.5914550   -3.7357040   -0.4017800  
H    -5.8963010   -1.8556310    4.0573960  
H    -4.1360280   -0.8299950    2.5785100  
C     4.3881940    0.5343220    0.0075330  
C     5.7045210    0.4927350    0.4238470  
C     6.1890700   -0.8339290    0.1981730  
C     5.1161790   -1.5793890   -0.3632660  
N     4.0248190   -0.7358270   -0.4388280  
C     5.2399760   -2.9244210   -0.7276790  
C     6.4669450   -3.5356810   -0.5148450  
O     6.6427790   -4.8469480   -0.8552790  
C     7.5458350   -2.8122120    0.0587650  
O     8.6990930   -3.5610890    0.2153950  
C     7.4218510   -1.4827950    0.4168970  
H     6.2414530    1.3135830    0.8790710  
H     3.2005100   -0.9100390   -0.9946460  
H     4.4254540   -3.4950440   -1.1622180  
H     7.5611780   -5.0785810   -0.6341410  
H     9.3981330   -2.9999240    0.5818350  
H     8.2644600   -0.9495840    0.8532410  
