60


C     2.9997300   -1.3287380   -0.0962910  
C     3.8797310   -0.3178920    0.3179190  
C     5.1879650   -0.8475800    0.2969650  
C     5.0822330   -2.2064130   -0.1365510  
N     3.7602610   -2.4642540   -0.3630720  
C     6.1982040   -3.0423810   -0.2687300  
C     7.4352550   -2.5030930    0.0417070  
O     8.5527810   -3.2650090   -0.0659550  
C     7.5608130   -1.1454390    0.4792300  
O     8.8630920   -0.7790790    0.7431790  
C     6.4663780   -0.3231770    0.6094230  
H     3.5936900    0.6708690    0.6410660  
H     3.3324190   -3.3443970   -0.6183770  
H     6.1270860   -4.0739140   -0.5961600  
H     9.3114440   -2.7139460    0.1959890  
H     8.8911070    0.1424420    1.0409830  
H     6.5802910    0.7059270    0.9426500  
C    -0.1568660    1.8685210   -0.1248820  
C     1.0620390    1.2229550   -0.1803520  
C     0.7725690   -0.1770200   -0.1946840  
C    -0.7074030   -0.2504840   -0.1552390  
N    -1.2379170    0.9372880   -0.1014400  
C    -1.4565130   -1.5151140   -0.1787970  
C    -0.6738760   -2.6408310   -0.3237660  
O    -1.1332230   -3.8868850   -0.4471830  
C     0.8276610   -2.5859700   -0.3819460  
O     1.3892220   -3.6781510   -0.5624850  
C     1.5677280   -1.3092770   -0.2189300  
H     2.0206550    1.7051320   -0.2488160  
H    -0.3265470   -4.4435050   -0.5482520  
C     2.6321190    5.2621350   -0.0371920  
C     1.7932280    6.3208220   -0.0240670  
C     0.4564630    5.7422860   -0.0452620  
C     0.6854760    4.2595540   -0.0723500  
N     1.9605640    3.9984260   -0.0643760  
C    -0.4204960    3.2905100   -0.0988180  
C    -1.6844640    3.8509380   -0.0955790  
O    -2.8349310    3.1686440   -0.1231080  
C    -1.9187980    5.3320590   -0.0660970  
O    -3.0892230    5.7227460   -0.0666020  
C    -0.7821590    6.2639920   -0.0402510  
H     2.0370450    7.3737660   -0.0023870  
H    -3.5328180    3.8662250   -0.1127600  
H    -1.0067310    7.3260900   -0.0185780  
H     3.7154610    5.2652780   -0.0301080  
C    -2.8995340   -1.5352520   -0.0754170  
C    -3.7614600   -0.4654400   -0.0232790  
C    -5.0827360   -1.0326480    0.0888390  
C    -4.8544170   -2.5124230    0.0980340  
N    -3.5951460   -2.8049640    0.0040800  
C    -5.9517350   -3.4435360    0.2046230  
C    -7.2014060   -2.9327030    0.2926540  
O    -8.3177780   -3.6718930    0.3947020  
C    -7.4622790   -1.4443000    0.2840140  
O    -8.6374940   -1.0812920    0.3699320  
C    -6.3326070   -0.5166100    0.1780500  
H    -3.4936140    0.5789700   -0.0574090  
H    -5.7608190   -4.5109250    0.2101470  
H    -9.0503830   -3.0164540    0.4396740  
H    -6.5572560    0.5455900    0.1782990  
