62


C    -4.3163780   -0.3727460   -0.0520960  
C    -4.6370740   -1.5708560   -0.6422640  
C    -5.9903420   -1.8640340   -0.2703090  
C    -6.4448630   -0.7943090    0.5462070  
N    -5.4069310    0.1157400    0.6518860  
C    -7.7329050   -0.7501670    1.0891800  
C    -8.5827870   -1.8081240    0.8025990  
O    -9.8474660   -1.8191510    1.3114150  
C    -8.1500660   -2.8831930   -0.0200940  
O    -9.1130450   -3.8536720   -0.2163910  
C    -6.8768840   -2.9216800   -0.5566620  
H    -3.9915460   -2.1426540   -1.2937390  
H    -5.3639730    0.8873600    1.3005080  
H    -8.0831180    0.0651830    1.7135570  
H   -10.2794360   -2.6314940    0.9952730  
H    -8.7585500   -4.5532100   -0.7848230  
H    -6.5680170   -3.7552020   -1.1840920  
C    -1.8733520   -0.2603530    0.0702560  
C    -0.8663520    0.6935010    0.0011050  
C    -1.5385690    1.9702000   -0.2067250  
C    -2.9269650    1.7056540   -0.2552000  
N    -3.1054650    0.3270310   -0.0590900  
C    -3.8884270    2.6838520   -0.5236160  
C    -3.4387650    3.9800800   -0.7343180  
O    -4.3327900    4.9744500   -0.9936240  
C    -2.0535070    4.2700350   -0.6898230  
O    -1.7529070    5.5967340   -0.9217040  
C    -1.1083380    3.2893090   -0.4441980  
H    -4.9469340    2.4642870   -0.5997470  
H    -3.8245210    5.7940010   -1.1231590  
H    -0.7939260    5.7250140   -0.8725830  
H    -0.0549280    3.5415920   -0.4127290  
H    -1.7918190   -1.3234090    0.2213470  
C     1.2600480   -2.9962300   -0.9564630  
C     2.5457130   -2.6743050   -0.6718870  
C     2.5025620   -1.2956350   -0.2141520  
C     1.0557720   -0.9346160   -0.2748900  
N     0.3466190   -1.9276840   -0.7357490  
C     0.5472750    0.3836910    0.1220090  
C     1.4997650    1.2347490    0.6311620  
O     1.1994370    2.4516270    1.1546000  
C     2.9242010    0.9029510    0.7226870  
O     3.6686500    1.7333240    1.2809510  
C     3.4475770   -0.3925920    0.1816710  
H     3.4117160   -3.3163180   -0.7232480  
H     2.0572800    2.7946650    1.4880290  
H     0.8720320   -3.9441200   -1.3093300  
C     4.8833560   -0.6126150    0.1069870  
C     5.5793200   -1.4916070   -0.6958950  
C     6.9816070   -1.3039010   -0.4448210  
C     7.0772130   -0.2285490    0.5744330  
N     5.7830590    0.1291390    0.8760770  
C     8.2476270    0.2552160    1.0650490  
C     9.4973400   -0.3140920    0.5720400  
O    10.5975440    0.0559930    0.9536910  
C     9.4182730   -1.4611500   -0.5022250  
O    10.4535850   -1.9525110   -0.9251560  
C     8.0958390   -1.8966320   -0.9588210  
H     5.1530360   -2.1576670   -1.4294610  
H     8.3004600    1.0437810    1.8090170  
H     8.0525930   -2.6858620   -1.7034020  
H     5.4771090    0.9390160    1.4009070  
