64


C    -1.6066730   -1.5432850    0.4207830  
C    -0.8763450   -0.4305580    0.0303570  
C    -1.8484250    0.5988250   -0.2772650  
C    -3.1301550    0.0438930   -0.0507460  
N    -2.9485680   -1.2565040    0.3826610  
C    -4.3418710    0.7288740   -0.2809670  
C    -4.2187900    2.0314890   -0.7623860  
O    -5.3291910    2.7850390   -0.9823350  
C    -2.9394050    2.6016120   -1.0058940  
O    -2.9974590    3.9006010   -1.4755840  
C    -1.7652220    1.9135610   -0.7751200  
H    -3.6976860   -1.8840860    0.6337150  
H    -5.0277390    3.6438910   -1.3263360  
H    -2.0978170    4.2362360   -1.6030790  
H    -0.8024100    2.3847220   -0.9447230  
H    -1.2557300   -2.4963190    0.7918500  
C     1.8706510   -3.3446080   -1.6961180  
C     3.0572910   -2.7221110   -1.3813400  
C     2.7369530   -1.5108730   -0.6881620  
C     1.3272950   -1.4560330   -0.6102720  
N     0.8290110   -2.5900170   -1.2173950  
C     0.5859430   -0.3835970   -0.0537350  
C     1.3544980    0.6887220    0.4031430  
O     0.7521640    1.7807050    0.9597520  
C     2.7710120    0.6819820    0.3528830  
O     3.3226750    1.8000480    0.8743350  
C     3.5131910   -0.4239640   -0.1550420  
H     4.0324710   -3.0887780   -1.6584100  
H    -0.1525300   -2.7438900   -1.3939100  
H     1.4798190    2.3642380    1.2479280  
H     4.3276370    1.7073120    0.7855830  
H     1.6895170   -4.2695120   -2.2248830  
C    -6.0231400   -0.7303550    3.5201610  
C    -7.2135200   -1.2092330    3.0383850  
C    -7.2271510   -0.9636780    1.6229860  
C    -5.9995430   -0.3297010    1.3014600  
N    -5.2775440   -0.2149590    2.4744660  
C    -5.6518260    0.0896860   -0.0004900  
C    -6.5976260   -0.1573450   -0.9956920  
O    -6.3328960    0.1865600   -2.2872570  
C    -7.8317760   -0.7912750   -0.6912180  
O    -8.6487110   -0.9683740   -1.7948700  
C    -8.1551630   -1.1979250    0.5890730  
H    -7.9910370   -1.6824900    3.6224490  
H    -4.4143890    0.2994260    2.5641990  
H    -7.1282150   -0.0247260   -2.8061530  
H    -9.5040540   -1.3202230   -1.5078540  
H    -9.1083000   -1.6838300    0.7890230  
H    -5.6318650   -0.7197970    4.5277730  
C     4.9440870   -0.4228470   -0.1098430  
C     5.8792760   -1.4023640   -0.4100930  
C     7.1595030   -0.8386440   -0.1667670  
C     6.8793970    0.5599300    0.3041250  
N     5.5956080    0.7847820    0.3374940  
C     7.9263790    1.4709790    0.6566750  
C     9.1975620    1.0088110    0.5510050  
O    10.2843160    1.7221730    0.8391170  
C     9.5250590   -0.4060900    0.0817760  
O    10.7325630   -0.6815090    0.0380370  
C     8.4477460   -1.2958140   -0.2674200  
H     5.6929850   -2.4159010   -0.7239280  
H     7.7007570    2.4773320    0.9913890  
H    11.0335450    1.1002310    0.6582300  
H     8.7025500   -2.2972880   -0.5984490  
