64


C     4.2925950   -0.5349950    0.2181430  
C     4.7513150   -1.6818270    0.8175080  
C     6.0673280   -1.9227280    0.2980180  
C     6.3593330   -0.8729650   -0.6122350  
N     5.2631620   -0.0272100   -0.6333590  
C     7.5711310   -0.7866530   -1.3054660  
C     8.5101050   -1.7816500   -1.0772550  
O     9.7062810   -1.7498980   -1.7332020  
C     8.2402870   -2.8352570   -0.1643020  
O     9.2749720   -3.7432930   -0.0407280  
C     7.0420450   -2.9152710    0.5213050  
H     4.2240750   -2.2540180    1.5676830  
H     5.0987760    0.7077920   -1.3045490  
H     7.7969190    0.0141250   -2.0020500  
H    10.2175430   -2.5225720   -1.4370060  
H     9.0256410   -4.4340960    0.5906250  
H     6.8589870   -3.7321410    1.2165200  
C     1.8304550   -0.5524580    0.3251330  
C     0.7988150    0.3499540    0.4659560  
C     1.4165070    1.6571910    0.5779320  
C     2.8173210    1.4687300    0.5025200  
N     3.0524000    0.1006070    0.3374640  
C     3.7320540    2.5207760    0.6335490  
C     3.2192520    3.7948250    0.8276530  
O     4.0672700    4.8545150    0.9524460  
C     1.8180330    4.0044840    0.9090590  
O     1.4626530    5.3212430    1.1180520  
C     0.9209380    2.9573010    0.7984250  
H     4.8057170    2.3736280    0.6112430  
H     3.5217610    5.6468360    1.0978100  
H     0.4980290    5.3964800    1.1663200  
H    -0.1462110    3.1394560    0.8974120  
H     1.7946670   -1.6184700    0.1551820  
C    -1.2097920   -1.0424510    1.1414030  
C    -0.6122600   -0.0018640    0.4995470  
C    -1.7219400    0.6521050   -0.2266760  
C    -2.9286180   -0.1687580    0.0987700  
N    -2.6088450   -1.1413470    0.9112710  
C    -4.2491140    0.1295630   -0.4377370  
C    -4.3294280    1.2822580   -1.1773800  
O    -5.4769500    1.7813030   -1.6610760  
C    -3.1377100    2.1118260   -1.5270680  
O    -3.3145850    3.1255480   -2.2073610  
C    -1.8022840    1.7238240   -1.0328710  
H    -5.2149120    2.5876340   -2.1580810  
H    -0.9608220    2.3478640   -1.3157670  
H    -0.7397610   -1.7632030    1.7996860  
C    -5.9568500   -1.7634450    3.2325850  
C    -7.0996650   -2.2568250    2.6627050  
C    -7.0344590   -1.9461120    1.2618140  
C    -5.8231260   -1.2367590    1.0506480  
N    -5.2002220   -1.1076660    2.2765070  
C    -5.4261480   -0.7411430   -0.2152160  
C    -6.2595090   -1.0907510   -1.2887670  
O    -5.9079250   -0.7693700   -2.5649730  
C    -7.4680400   -1.8041810   -1.0864010  
O    -8.1752880   -2.0370380   -2.2550360  
C    -7.8773540   -2.2119700    0.1666590  
H    -7.8981230   -2.7773900    3.1739460  
H    -4.1930200   -0.9979860    2.3245410  
H    -6.6341210   -1.0656070   -3.1409560  
H    -8.9694820   -2.5518870   -2.0510790  
H    -8.8163130   -2.7471660    0.2958540  
H    -5.6135300   -1.8126870    4.2567620  
