62


C     4.2790630   -0.8321280   -0.0377300  
C     4.7761690   -1.9519530    0.5804730  
C     6.1929700   -1.9598570    0.3487300  
C     6.5006800   -0.8021470   -0.4133360  
N     5.3148240   -0.1211810   -0.6271280  
C     7.8021890   -0.4850430   -0.8171170  
C     8.8162780   -1.3553360   -0.4465120  
O    10.1031280   -1.0977020   -0.8208190  
C     8.5297090   -2.5145880    0.3218370  
O     9.6446000   -3.2768060    0.6166770  
C     7.2423500   -2.8227940    0.7217720  
H     4.1993260   -2.6590980    1.1597060  
H     5.1821460    0.6484100   -1.2657890  
H     8.0403200    0.3987270   -1.3999600  
H    10.6552400   -1.8157750   -0.4663760  
H     9.3790190   -4.0525440    1.1320810  
H     7.0484040   -3.7167720    1.3112180  
C     1.8873700   -1.1844000   -0.5561430  
C     0.7354130   -0.4473810   -0.5613400  
C     1.0739400    0.8866490   -0.1461380  
C     2.4722870    0.8945410    0.0953130  
N     2.9561090   -0.3889180   -0.1590200  
C     3.1687790    2.0360890    0.5023780  
C     2.4388400    3.2105060    0.6145600  
O     3.0576340    4.3627260    0.9830430  
C     1.0450190    3.2468290    0.3490450  
O     0.4824570    4.4879660    0.5268420  
C     0.3260720    2.0926030    0.0118530  
H    -0.2381200   -0.8136360   -0.8517600  
H     4.2319920    2.0358760    0.7136000  
H     2.3674080    5.0532880    0.9554770  
H    -0.1390570    4.6316680   -0.2232780  
H     2.0654280   -2.2154480   -0.8244530  
C    -2.8488560   -0.4734630    1.7338510  
C    -1.6895660    0.1634780    1.4503100  
C    -1.9638190    1.1692010    0.4414320  
C    -3.4089520    1.0796020    0.1467890  
N    -3.8916220    0.0388820    0.9396930  
C    -4.0919160    1.8583930   -0.7270660  
C    -3.3369210    2.8934670   -1.4135350  
O    -3.8129770    3.6413410   -2.2511200  
C    -1.8229210    3.0861920   -1.0248800  
O    -1.2779220    4.1035120   -1.4443480  
C    -1.1420210    2.0901170   -0.1699300  
H    -0.7263530   -0.0358080    1.8930820  
H    -5.1450840    1.7337570   -0.9522260  
H    -3.0659420   -1.2690800    2.4333610  
C    -6.1220630    0.3214230    1.9400610  
C    -7.3332910   -0.2734260    1.8522200  
C    -7.2315380   -1.3477490    0.8793680  
C    -5.8350670   -1.3402830    0.3860060  
N    -5.2072150   -0.2965460    1.0664780  
C    -5.3258430   -2.1970680   -0.5292610  
C    -6.2192900   -3.2161790   -1.0836400  
O    -5.8562640   -4.0385110   -1.9080970  
C    -7.7106720   -3.2443770   -0.5842670  
O    -8.4704650   -4.0849940   -1.0353350  
C    -8.1302380   -2.2532950    0.4150170  
H    -8.2211690    0.0006140    2.4036590  
H    -4.2968930   -2.1652230   -0.8711730  
H    -9.1614400   -2.2843580    0.7534410  
H    -5.7863350    1.1537590    2.5437540  
