64


C     2.4189190   -0.8332410    0.3823210  
C     1.5177840    0.2053430    0.4362410  
C     2.2818980    1.4147890    0.2231890  
C     3.6337660    1.0280200    0.0414960  
N     3.7005290   -0.3572700    0.1503210  
C     4.6600680    1.9548280   -0.2034440  
C     4.3124400    3.2982160   -0.2451170  
O     5.2675850    4.2385450   -0.4900930  
C     2.9673810    3.7035130   -0.0410870  
O     2.7827190    5.0708770   -0.0970660  
C     1.9589240    2.7853610    0.1897730  
H     5.6836500    1.6579810   -0.4070710  
H     4.8205160    5.1025560   -0.5157710  
H     1.8348370    5.2713870   -0.1021960  
H     0.9354720    3.1205580    0.3381870  
H     2.2546400   -1.8961870    0.4853540  
C    -0.4951140   -0.6663490    1.6933860  
C     0.0845470    0.0775050    0.7047310  
C    -1.0131930    0.6828080   -0.0428930  
C    -2.2638850    0.2383590    0.6067460  
N    -1.8787650   -0.5517900    1.6766900  
C    -3.5378840    0.5447210    0.2010210  
C    -3.6303440    1.3925920   -1.0066670  
O    -4.6918880    1.7482570   -1.4943260  
C    -2.3053180    1.8781220   -1.7143330  
O    -2.4131260    2.5701960   -2.7169570  
C    -1.0259820    1.4719190   -1.1542120  
H    -0.1193850    1.7926640   -1.6558110  
H    -0.0107980   -1.2640480    2.4545730  
H    -2.5249760   -1.1527650    2.1676870  
C    -4.8402290    0.0398510    2.3062900  
C    -4.7324120    0.0999430    0.9252660  
C    -5.9975000   -0.3854120    0.4047990  
C    -6.8049950   -0.7260050    1.5183100  
N    -6.0738540   -0.4537270    2.6598230  
C    -8.0963780   -1.2547550    1.3958250  
C    -8.5869380   -1.4420460    0.1142770  
O    -9.8414570   -1.9427150   -0.0718390  
C    -7.7923410   -1.1097920   -1.0158540  
O    -8.4179170   -1.3489920   -2.2250830  
C    -6.5179260   -0.5948380   -0.8880970  
H    -6.4189290   -0.5327220    3.6036920  
H    -8.7124510   -1.5095780    2.2521020  
H   -10.0007810   -1.9604600   -1.0317720  
H    -7.8938120   -0.9569260   -2.9396070  
H    -5.9457120   -0.3195820   -1.7674500  
H    -4.1461110    0.3781800    3.0630480  
C     4.8260960   -3.7496090   -2.4876820  
C     4.1596270   -2.6984670   -1.9138670  
C     4.9934510   -2.2038480   -0.8547790  
C     6.1679490   -3.0017200   -0.8358870  
N     6.0338310   -3.9381840   -1.8404980  
C     7.2237520   -2.7851150    0.0580570  
C     7.0888760   -1.7424580    0.9610790  
O     8.0835540   -1.4814670    1.8563760  
C     5.9167630   -0.9409750    0.9868100  
O     5.9077410    0.0136090    1.9811470  
C     4.8740620   -1.1609390    0.0909040  
H     3.1947970   -2.3154770   -2.2135900  
H     6.7216490   -4.6344670   -2.0806150  
H     8.1278040   -3.3851460    0.0610030  
H     7.8037520   -0.7005680    2.3667070  
H     5.2890910    0.7291980    1.7538300  
H     4.5416780   -4.3861850   -3.3135550  
