60


C     5.7308690   -1.9584600   -3.0609110  
C     6.9812660   -2.1435640   -2.5348770  
C     7.0074990   -1.4609650   -1.2713390  
C     5.7329160   -0.8599370   -1.0986490  
N     4.9839930   -1.1497060   -2.2217840  
C     5.3940270   -0.0760260    0.0298790  
C     6.3707060   -0.0047040    1.0334270  
O     6.1038240    0.6356560    2.2065520  
C     7.6437010   -0.6077390    0.8716350  
O     8.4879190   -0.4165510    1.9534820  
C     7.9819720   -1.3097470   -0.2672750  
H     7.7930380   -2.6945070   -2.9901850  
H     3.9718730   -1.1574170   -2.1759640  
H     6.9208660    0.6104200    2.7344180  
H     9.3384460   -0.8433670    1.7748960  
H     8.9707920   -1.7525740   -0.3716740  
H     5.3022720   -2.3278540   -3.9823190  
C     1.1922610   -1.2824190   -0.5153740  
C     0.4833510   -0.1886040   -0.0897750  
C     1.5377120    0.8092640    0.2165300  
C     2.8213420    0.0894230   -0.0468050  
N     2.5866300   -1.1166030   -0.5092510  
C     4.1286510    0.6826580    0.1691000  
C     4.1118540    2.0068420    0.5243860  
O     5.2103420    2.7543110    0.6774650  
C     2.8444440    2.7603620    0.7840470  
O     2.9389510    3.9406760    1.1219390  
C     1.5381030    2.0929160    0.6155550  
H     4.8810690    3.6415750    0.9460290  
H     0.6485950    2.6893400    0.7716370  
H     0.7845890   -2.2168590   -0.8808070  
C    -2.5725170   -3.1567070    1.1036490  
C    -1.4078750   -2.4884620    0.8778000  
C    -1.7529440   -1.1699540    0.4072570  
C    -3.2338530   -1.1362960    0.3620810  
N    -3.6658850   -2.3849020    0.7507740  
C    -4.0013260   -0.0571400   -0.0233250  
C    -3.2410890    1.2036700   -0.1483330  
O    -3.7588480    2.3061760   -0.1176610  
C    -1.6769300    1.1568780   -0.2705380  
O    -1.1209480    2.1818010   -0.6315550  
C    -0.9596000   -0.0944680    0.0452080  
H    -0.4122010   -2.8637590    1.0554250  
H    -2.7231250   -4.1540330    1.4956990  
H    -4.6137210   -2.4820810    1.1321060  
C    -7.4670350   -1.9212020    2.1361920  
C    -8.5035310   -1.2661890    1.5705860  
C    -7.9101320   -0.4298510    0.5348460  
C    -6.4339950   -0.6868430    0.6393930  
N    -6.2016990   -1.5780910    1.5659850  
C    -5.4599400   -0.0118980   -0.2100690  
C    -6.0083250    0.7383590   -1.2250710  
O    -5.2816600    1.3137080   -2.1865470  
C    -7.4790550    0.9846930   -1.3715760  
O    -7.8522080    1.6892550   -2.3095710  
C    -8.4193570    0.3722740   -0.4169390  
H    -9.5551740   -1.3436740    1.8079160  
H    -5.9213690    1.8152080   -2.7404050  
H    -9.4770540    0.5755070   -0.5528210  
H    -7.4881720   -2.6480520    2.9388690  
