64


C    -3.2837070    1.0852740   -1.8721510  
C    -4.5758080    1.5198500   -1.8861650  
C    -5.2799790    0.8035070   -0.8566850  
C    -4.3527000   -0.0782810   -0.2484700  
N    -3.1200080    0.1017470   -0.8896280  
C    -4.6972310   -0.8893990    0.8380420  
C    -6.0050120   -0.8314930    1.2953760  
O    -6.3891010   -1.6129800    2.3474180  
C    -6.9499020    0.0314930    0.6841870  
O    -8.2092970   -0.0225460    1.2501310  
C    -6.6019590    0.8463830   -0.3781370  
H    -4.9884150    2.2561070   -2.5626460  
H    -4.0007440   -1.5672570    1.3145080  
H    -7.3329330   -1.4396760    2.5050600  
H    -8.8075450    0.5622950    0.7621900  
H    -7.3358110    1.5143920   -0.8249690  
H    -2.4461950    1.3485870   -2.5009140  
C     0.9637130    1.6748890   -0.2416030  
C    -0.4006270    1.5856820   -0.4377330  
C    -0.7216350    0.1964030   -0.4567690  
C     0.5807170   -0.5077090   -0.2659110  
N     1.5471590    0.3629090   -0.1402400  
C     0.7174050   -1.9484890   -0.2094220  
C    -0.4575130   -2.6349320   -0.3149590  
O    -0.5528960   -3.9601940   -0.2240600  
C    -1.8025430   -1.9721570   -0.5513960  
O    -2.7606690   -2.7331310   -0.6995090  
C    -1.8915760   -0.5088120   -0.5965770  
H    -1.1017320    2.3901520   -0.5778370  
H    -1.5050090   -4.1587670   -0.3882700  
C     0.2550620    6.1273890    0.1511420  
C     0.0714400    4.7667170    0.0668310  
C     1.3669680    4.1615880   -0.0348280  
C     2.3052320    5.2213240    0.0039730  
N     1.6016420    6.4032470    0.1072540  
C     3.6934820    5.0291360   -0.0328080  
C     4.1538930    3.7279260   -0.0985510  
O     5.4907290    3.4735320   -0.1262310  
C     3.2538880    2.6270090   -0.1418150  
O     3.8856070    1.4338270   -0.2137970  
C     1.8438810    2.8092880   -0.1329390  
H    -0.8884720    4.2777300    0.1110020  
H     2.0143740    7.3212020    0.1632170  
H     4.4017090    5.8511960   -0.0023380  
H     5.5834290    2.5036660   -0.1729480  
H     3.1869720    0.7125450   -0.1903500  
H    -0.4712290    6.9223580    0.2420020  
C     3.9174930   -1.5317290    2.8593620  
C     4.7556280   -2.5023540    2.3791560  
C     4.1447020   -3.0366320    1.1944830  
C     2.9193200   -2.3441950    1.0095850  
N     2.7937170   -1.4526680    2.0560210  
C     2.0289210   -2.6186040   -0.0531120  
C     2.4414990   -3.5994030   -0.9601620  
O     1.6719410   -3.8900300   -2.0475430  
C     3.6645340   -4.2964950   -0.7859270  
O     3.9097800   -5.2374130   -1.7717720  
C     4.5092590   -4.0387080    0.2749790  
H     5.6949890   -2.8089680    2.8185270  
H     2.1340420   -0.6896880    2.0633140  
H     2.1212630   -4.6061590   -2.5291540  
H     4.7577640   -5.6711710   -1.5974660  
H     5.4384210   -4.5938480    0.3892420  
H     4.0177230   -0.8866540    3.7209200  
