60


C     3.3188110   -1.9994100   -1.2690580  
C     4.3966500   -2.7636180   -1.5785800  
C     5.5724390   -2.0778930   -1.1001690  
C     5.1461950   -0.8731100   -0.4949700  
N     3.7324740   -0.8312970   -0.6038750  
C     6.0464600    0.0292610    0.0763360  
C     7.3977290   -0.2967800    0.0297100  
O     8.3091600    0.5572730    0.5745450  
C     7.8378050   -1.4988650   -0.5740520  
O     9.2033240   -1.6812560   -0.5414090  
C     6.9387550   -2.3906780   -1.1379140  
H     4.3685840   -3.7131040   -2.0961240  
H     5.7213110    0.9513650    0.5355560  
H     9.1908750    0.1697680    0.4383660  
H     9.4351390   -2.5061550   -0.9933940  
H     7.2882710   -3.3121560   -1.5986480  
H     2.2716010   -2.1627460   -1.4667290  
C     2.8647020    0.1324240   -0.1685610  
C     1.4805780    0.1316850   -0.2602370  
C     1.0695980    1.3637980    0.3140300  
C     2.3548500    2.0281430    0.7281250  
N     3.3955220    1.2913310    0.4453910  
C     2.3851410    3.3217960    1.3430270  
C     1.1927090    3.9348370    1.5286200  
O     1.0453860    5.1419030    2.0733690  
C    -0.1345140    3.2914300    1.1374490  
O    -1.1381780    3.9595120    1.4073220  
C    -0.1540090    1.9718050    0.5127520  
H     0.8441510   -0.6159250   -0.7064280  
H     3.3268640    3.7771220    1.6271920  
H     0.0697200    5.2959480    2.0827130  
C    -1.7360830    0.0265810    0.4873760  
C    -1.4325550    1.3253450    0.2002740  
C    -2.5927880    1.8660510   -0.5115010  
C    -3.5758800    0.7615090   -0.6118700  
N    -2.9969870   -0.3457140    0.0214080  
C    -4.8024130    0.8758660   -1.1740870  
C    -5.1809530    2.1592920   -1.7635720  
O    -6.2691650    2.3559450   -2.2812160  
C    -4.1347660    3.3268100   -1.7183800  
O    -4.4173050    4.3992160   -2.2283430  
C    -2.8527950    3.0845710   -1.0476450  
H    -5.5127030    0.0599900   -1.2341300  
H    -2.1613200    3.9155850   -0.9789550  
H    -1.1309850   -0.7056160    1.0043420  
C    -3.6393550   -2.7003280    3.6591420  
C    -3.3421750   -1.7008120    2.7850980  
C    -3.6648400   -2.1827340    1.4617210  
C    -4.1776800   -3.5617980    1.6333210  
N    -4.1227260   -3.8162200    2.9911490  
C    -4.6220100   -4.3619340    0.6295100  
C    -4.5852640   -3.8429670   -0.7298120  
O    -4.9995630   -4.4576760   -1.6993590  
C    -3.9766890   -2.4101610   -0.9661540  
O    -3.8224870   -2.0147230   -2.1069200  
C    -3.5792130   -1.6132110    0.2180140  
H    -2.9595750   -0.7240300    3.0396730  
H    -5.0098280   -5.3628490    0.7893640  
H    -3.5504930   -2.7139490    4.7373150  
H    -4.4496060   -4.6629240    3.4298010  
