62


C    -2.0609100   -0.4888700    1.4493900  
C    -3.0513230    0.1815310    0.7434360  
C    -3.9504920   -0.8466490    0.2492240  
C    -3.4342730   -2.0948510    0.6800640  
N    -2.2910740   -1.8397410    1.4149820  
C    -4.0280990   -3.3223050    0.3619160  
C    -5.1772370   -3.2912040   -0.4120530  
O    -5.8072440   -4.4528940   -0.7483850  
C    -5.7104540   -2.0522320   -0.8555840  
O    -6.8596640   -2.1800950   -1.6135100  
C    -5.1173950   -0.8453030   -0.5409740  
H    -1.7192890   -2.5342820    1.8702480  
H    -3.6335930   -4.2738470    0.7039260  
H    -6.6063160   -4.2077810   -1.2472070  
H    -7.2623280   -1.3068320   -1.7333230  
H    -5.5653620    0.0881960   -0.8630750  
H    -1.2372730   -0.0898030    2.0241170  
C     0.2148610    3.0119830    0.0700150  
C    -0.5013370    4.1890820    0.0647890  
C    -1.8862890    3.8549820    0.2498630  
C    -1.9434510    2.3816260    0.3800620  
N    -0.6406230    1.9396720    0.2908150  
C    -3.0826890    1.6320770    0.5500620  
C    -4.3457920    2.4025430    0.5706030  
O    -5.4439160    1.8812090    0.6862180  
C    -4.3018490    3.9775940    0.4451460  
O    -5.3672040    4.5800890    0.4618610  
C    -3.0137110    4.6282710    0.2982570  
H    -0.0965090    5.1835350   -0.0571980  
H    -2.9898120    5.7101060    0.2147180  
H    -0.3423460    0.9787570    0.1856550  
C     1.6148530    2.7347920   -0.1135440  
C     2.6746790    3.5568480   -0.3718730  
C     3.8224720    2.6832110   -0.4755240  
C     3.2697260    1.3040030   -0.2638640  
N     1.9944400    1.3476770   -0.0404280  
C     4.1076880    0.1019520   -0.2880030  
C     5.4353520    0.3506440   -0.4713640  
O     6.3797440   -0.6275960   -0.4936390  
C     6.0208980    1.7090770   -0.6824240  
O     7.2408500    1.7780330   -0.8583090  
C     5.1425720    2.8848550   -0.6816690  
H     2.6752460    4.6329400   -0.4746730  
H     7.2276670   -0.1504620   -0.6605320  
H     5.6024230    3.8559990   -0.8349320  
C     0.5913080   -2.1084230   -2.0730590  
C     1.5587540   -1.1774650   -1.7999320  
C     2.3793880   -1.7056120   -0.7455480  
C     1.8552160   -2.9883360   -0.4301240  
N     0.7584050   -3.1983590   -1.2401150  
C     2.4194850   -3.8347590    0.5305250  
C     3.5601530   -3.3839660    1.1741250  
O     4.1704390   -4.1605500    2.1108280  
C     4.1186250   -2.1131630    0.8761620  
O     5.2290120   -1.8031960    1.6354680  
C     3.5360370   -1.2407530   -0.0538720  
H     1.6652000   -0.2224770   -2.2910330  
H     0.2176730   -4.0480480   -1.2790510  
H     2.0163880   -4.8150650    0.7645540  
H     4.9469030   -3.6495950    2.4090210  
H     5.9314720   -1.4778080    1.0347170  
H    -0.2149280   -2.0853600   -2.7923530  
