60


C     2.5453960   -1.3855380    1.3405250  
C     1.6116520   -2.0248850    0.5362890  
C     2.2195640   -3.2810320    0.1374870  
C     3.5088870   -3.3237110    0.7228180  
N     3.6737530   -2.1589460    1.4509200  
C     4.4023780   -4.3854970    0.5341590  
C     3.9800140   -5.4358540   -0.2636730  
O     4.7977500   -6.5037860   -0.4759920  
C     2.6906460   -5.4121900   -0.8621880  
O     2.4134150   -6.5288820   -1.6254020  
C     1.8184410   -4.3580370   -0.6784120  
H     4.4671440   -1.9471210    2.0363350  
H     5.3872220   -4.4149690    0.9887020  
H     4.3033540   -7.1390360   -1.0232310  
H     1.4725550   -6.5366520   -1.8573990  
H     0.8293340   -4.3814470   -1.1230790  
H     2.4461200   -0.4715120    1.9091970  
C     0.4503290    2.0602160   -0.5201220  
C    -0.9111860    1.8646260   -0.6615830  
C    -1.1941640    0.4882570   -0.4074030  
C     0.0922670   -0.1493260   -0.0869160  
N     1.0465750    0.8651330   -0.1163340  
C     0.3024920   -1.4748470    0.1831970  
C    -0.9117570   -2.3215700    0.1458500  
O    -0.9001810   -3.5141750    0.3955090  
C    -2.3053590   -1.6788610   -0.2165230  
O    -3.2653510   -2.4237740   -0.3363560  
C    -2.3692290   -0.2339490   -0.4311900  
H    -1.6372380    2.6389650   -0.8616870  
H     2.0215870    0.6432910   -0.2732460  
C     0.8694970    4.3825620   -1.4113440  
C     1.2188450    3.2589580   -0.7024380  
C     2.5624990    3.5723580   -0.1768850  
C     2.8409380    4.9437780   -0.6963270  
N     1.8381680    5.3981470   -1.4090200  
C     4.0634810    5.6320350   -0.4028640  
C     4.9735910    5.0030740    0.3838040  
O     6.1536680    5.5296830    0.7335740  
C     4.7160240    3.6314410    0.9429370  
O     5.5817500    3.1227960    1.6509720  
C     3.4438260    2.9456070    0.6257960  
H     4.2344790    6.6260320   -0.8005830  
H     6.5911130    4.8599710    1.3035580  
H     3.2950110    1.9701560    1.0768780  
H    -0.0465800    4.5384140   -1.9691350  
C    -3.8231880    1.0290550   -2.0150720  
C    -5.1059600    1.4560910   -2.1189740  
C    -5.7938100    1.0508020   -0.9125620  
C    -4.7899700    0.3378500   -0.0854720  
N    -3.5941630    0.3562180   -0.8082690  
C    -5.0414790   -0.1668960    1.1467380  
C    -6.3894590   -0.0226550    1.6955660  
O    -6.7015440   -0.4354570    2.8017700  
C    -7.4746270    0.7073960    0.8238890  
O    -8.6066220    0.8303060    1.2653690  
C    -7.0721850    1.2251210   -0.4854540  
H    -5.5390720    1.9866680   -2.9547340  
H    -4.3006980   -0.6860780    1.7433790  
H    -7.8206180    1.7471060   -1.0740570  
H    -3.0074780    1.1223840   -2.7194450  
