60


C     5.3471840    2.1153490    0.8830450  
C     5.1771530    3.4420850    1.1338110  
C     3.8488660    3.8031990    0.7054470  
C     3.2424570    2.6342070    0.1915740  
N     4.1741160    1.5879710    0.3203930  
C     1.9664060    2.6419890   -0.3797270  
C     1.2706860    3.8434570   -0.3907790  
O     0.0333910    3.8782470   -0.9508880  
C     1.8480410    5.0184970    0.1551110  
O     1.0364540    6.1277920    0.0818260  
C     3.1260290    5.0096930    0.6902270  
H     5.9098950    4.0954500    1.5874000  
H     1.4999580    1.7708190   -0.8205740  
H    -0.3677050    4.7445080   -0.7651230  
H     1.4593250    6.8744860    0.5315580  
H     3.5647970    5.9258630    1.0796990  
H     6.1771940    1.4571140    1.0913440  
C     4.0023750    0.2636120   -0.0212180  
C     4.9198070   -0.6575430   -0.4489160  
C     4.2277950   -1.9072260   -0.6198190  
C     2.8141730   -1.6535670   -0.2523680  
N     2.7268720   -0.3049520    0.0579410  
C     1.8327010   -2.5988160   -0.2026450  
C     2.2017340   -3.9605220   -0.6584420  
O     1.3751080   -4.8454260   -0.7896770  
C     3.6928990   -4.2469570   -1.0563230  
O     3.9983060   -5.3849370   -1.3822380  
C     4.6429090   -3.1433880   -1.0178260  
H     5.9567330   -0.4628200   -0.6786490  
H     5.6737680   -3.3548520   -1.2843240  
H     1.9866580    0.0850580    0.6250870  
C    -1.3600160    0.2755250   -1.4200630  
C    -0.2204750   -0.4532620   -1.3390410  
C    -0.3829690   -1.4074600   -0.2618680  
C    -1.7472070   -1.1855620    0.2748030  
N    -2.3103390   -0.1598170   -0.4812740  
C    -2.2911810   -1.8793230    1.3124420  
C    -1.4945730   -2.9288450    1.9355900  
O    -1.9142640   -3.6345250    2.8398030  
C    -0.0259350   -3.1419610    1.4302980  
O     0.6986800   -3.8956520    2.0517650  
C     0.4573530   -2.3528450    0.2620580  
H     0.6480140   -0.3472120   -1.9713260  
H    -3.2731330   -1.6741410    1.7233390  
H    -1.6082030    1.0967200   -2.0755310  
C    -6.2205380   -2.1159320   -0.3684440  
C    -6.9952160   -1.0149240   -0.2043870  
C    -6.1159200    0.1358060   -0.1888640  
C    -4.7427180   -0.4028330   -0.3533840  
N    -4.8743080   -1.7658970   -0.4857980  
C    -3.6131790    0.3705440   -0.3611100  
C    -3.7794200    1.8291090   -0.2578300  
O    -2.8376850    2.6037650   -0.2986600  
C    -5.2363510    2.4059720   -0.1091310  
O    -5.3679360    3.6167500   -0.0334240  
C    -6.3563660    1.4701490   -0.0795510  
H    -8.0712160   -0.9929460   -0.1137770  
H    -7.3556240    1.8791670    0.0298110  
H    -6.5063130   -3.1574750   -0.4293880  
H    -4.1040180   -2.4183410   -0.4524600  
