62


C    -6.5404080    3.3198460   -0.0633450  
C    -7.6989340    2.6681950    0.2722510  
C    -7.3635320    1.2855810    0.4562890  
C    -5.9664260    1.1611480    0.2241060  
N    -5.4981950    2.4163510   -0.1009340  
C    -5.2686160   -0.0684500    0.2859870  
C    -6.0627790   -1.1775080    0.5743000  
O    -5.4902040   -2.4377540    0.6212570  
C    -7.4532820   -1.0779140    0.8135290  
O    -8.0542800   -2.2933620    1.0938850  
C    -8.1125980    0.1342640    0.7661980  
H    -8.6785190    3.1161310    0.3661050  
H    -4.5291410    2.6365940   -0.2740760  
H    -6.2061880   -3.0643940    0.8335050  
H    -9.0079480   -2.1664550    1.2043680  
H    -9.1835390    0.1911010    0.9491770  
H    -6.3669500    4.3631990   -0.2864770  
C    -1.7619990    2.2586330    1.8766990  
C    -3.0086340    1.7308550    1.6692500  
C    -2.8828860    0.7136960    0.6554710  
C    -1.5108710    0.6616880    0.3012200  
N    -0.8480120    1.6015460    1.0703600  
C    -0.9810520   -0.2264650   -0.6591150  
C    -1.9045180   -1.0948960   -1.2433490  
O    -1.4844660   -2.0302760   -2.1295460  
C    -3.2841180   -1.0640410   -0.9043250  
O    -4.0392340   -1.9852290   -1.5965950  
C    -3.8106980   -0.1581300    0.0175360  
H    -3.9097020    2.0113700    2.1949720  
H     0.1037300    1.8953580    0.9113790  
H    -2.2888420   -2.5115210   -2.4052090  
H    -4.6492280   -2.4129180   -0.9564530  
H    -1.4369200    3.0368960    2.5526750  
C     2.5333740   -0.9928470    1.8305910  
C     3.5388560   -0.8799580    0.9064810  
C     2.8871730   -0.5790160   -0.3683270  
C     1.4347520   -0.5152850   -0.0898680  
N     1.2930510   -0.7760620    1.2632050  
C     0.4529510   -0.2727200   -1.0071190  
C     0.9035940   -0.0261740   -2.3969020  
O     0.1474960    0.3188850   -3.2860780  
C     2.4334950   -0.1771180   -2.7299940  
O     2.7931010   -0.0685590   -3.8918220  
C     3.3667340   -0.4341230   -1.6331750  
H     4.4188370   -0.5287310   -1.8803070  
H     2.6186150   -1.1997420    2.8893530  
H     0.4050750   -0.8188400    1.7403610  
C     5.5395620   -2.0250740    1.9564280  
C     4.9562520   -1.0753060    1.1720670  
C     6.0893950   -0.2305180    0.7337350  
C     7.2832390   -0.8613310    1.3706780  
N     6.9503730   -1.9015620    2.0833690  
C     8.6073470   -0.3276220    1.1868920  
C     8.7425180    0.7934900    0.4383920  
O     9.9151480    1.4013600    0.1926270  
C     7.5560780    1.4708680   -0.1862160  
O     7.7542900    2.4923830   -0.8409890  
C     6.2060600    0.8937630    0.0027320  
H     9.4564370   -0.8163090    1.6517940  
H     9.6954500    2.1777030   -0.3675120  
H     5.3788180    1.4107120   -0.4731630  
H     5.0445300   -2.8468120    2.4610050  
