62


C     0.5464020    0.5613000   -0.1125020  
C    -0.0791290   -0.6883070   -0.0380780  
C     0.9368210   -1.6702750    0.0223840  
C     2.1901130   -0.9874050   -0.0139140  
N     1.9240760    0.3552680   -0.0878430  
C     3.4367430   -1.6440250    0.0157270  
C     3.3835260   -3.0376660    0.0870610  
O     4.5301280   -3.7560560    0.1523160  
C     2.1375260   -3.7380630    0.1181960  
O     2.2885580   -5.1088870    0.1911660  
C     0.9285820   -3.0833450    0.0909280  
H    -1.1480960   -0.8355000   -0.0317240  
H     2.6048780    1.0968630   -0.1783450  
H     4.2820090   -4.6974120    0.1685680  
H     1.4174420   -5.5323620    0.1769570  
H    -0.0078480   -3.6358570    0.1183580  
C    -3.6658170    1.8269520   -0.1822360  
C    -3.5171490    3.1884450   -0.2893210  
C    -2.0974170    3.4298610   -0.3139260  
C    -1.4867980    2.0714080   -0.2117550  
N    -2.3973840    1.1522460   -0.1345280  
C    -0.0276420    1.8792570   -0.2035090  
C     0.7119630    3.0380510   -0.2910330  
O     2.0704710    3.0471890   -0.2963160  
C     0.1307830    4.3856810   -0.3899480  
O     0.9052760    5.3539620   -0.4633510  
C    -1.3312220    4.5409170   -0.3990720  
H    -4.2940670    3.9386840   -0.3431710  
H     2.3073450    4.0010950   -0.3682450  
H    -1.7242510    5.5506800   -0.4736550  
C    -4.8844890    1.0659060   -0.1170410  
C    -6.1760600    1.5378370   -0.1558060  
C    -7.0212290    0.3779980   -0.0559740  
C    -6.0580210   -0.7688540    0.0405390  
N    -4.8225220   -0.3692320    0.0048860  
C    -6.5205140   -2.1293520    0.1574600  
C    -7.8571290   -2.3396370    0.1774970  
O    -8.4315130   -3.5467410    0.2816450  
C    -8.8511150   -1.2033960    0.0818570  
O   -10.0464730   -1.5019170    0.1094080  
C    -8.3617850    0.1722200   -0.0365250  
H    -6.5036140    2.5644770   -0.2437040  
H    -5.8059030   -2.9418880    0.2256710  
H    -9.3996660   -3.3707160    0.2678740  
H    -9.1041920    0.9615980   -0.1028220  
C     5.0866670    1.2948720    2.8653270  
C     6.2561720    1.5698310    2.2055530  
C     6.2666310    0.7701140    1.0128470  
C     5.0599210    0.0234010    1.0040620  
N     4.3601490    0.3655890    2.1436970  
C     4.7178590   -0.8948020   -0.0117360  
C     5.6431290   -1.0382730   -1.0458280  
O     5.3786520   -1.8808370   -2.0842430  
C     6.8560540   -0.3002620   -1.0505830  
O     7.6569890   -0.5608420   -2.1496170  
C     7.1772210    0.5934700   -0.0473940  
H     7.0220060    2.2608980    2.5302950  
H     3.4745950   -0.0316060    2.4161510  
H     6.1469470   -1.8467400   -2.6799310  
H     8.4660650   -0.0322580   -2.0891660  
H     8.1149960    1.1450100   -0.0796070  
H     4.7008230    1.6878200    3.7954070  
