64


C     1.0301550    0.6469990   -1.2336860  
C     2.3453050    0.3666240   -0.9628240  
C     2.7816290    1.2824750    0.0602330  
C     1.6655110    2.0955680    0.3757620  
N     0.6037760    1.7051140   -0.4376420  
C     1.7197170    3.0928110    1.3639090  
C     2.9296720    3.2783780    2.0199510  
O     3.0320870    4.2261010    2.9916650  
C     4.0610250    2.4831480    1.6952940  
O     5.1878730    2.7958760    2.4263330  
C     3.9990380    1.4911240    0.7341560  
H     0.8536750    3.6723890    1.6659000  
H     3.9357590    4.1772820    3.3497640  
H     5.8849070    2.1476080    2.2451170  
H     4.8688390    0.8796500    0.5087480  
H     0.3571690    0.1934170   -1.9457620  
C    -3.4995730    0.0181970   -0.0147690  
C    -2.1155090    0.1952780   -0.0363840  
C    -1.8596960    1.5539460   -0.3490460  
C    -3.1205040    2.2022290   -0.4918910  
N    -4.0907330    1.2458840   -0.3201810  
C    -3.2466680    3.5725470   -0.7388230  
C    -2.0734450    4.3001730   -0.8667820  
O    -2.1262200    5.6323720   -1.1102940  
C    -0.7930360    3.6753750   -0.7722230  
O     0.2560250    4.5336800   -0.9950950  
C    -0.6743640    2.3169050   -0.5155000  
H    -1.3911670   -0.5811760    0.1452690  
H    -5.0707730    1.4399180   -0.1814230  
H    -4.2043120    4.0737600   -0.8273880  
H    -1.2069760    5.9548260   -1.1478510  
H     1.0794200    4.1715680   -0.6219270  
C     3.3378580   -0.6726900   -2.9931760  
C     4.1419960   -1.7375180   -3.2926890  
C     4.4689590   -2.3825790   -2.0521310  
C     3.8208990   -1.6542580   -1.0211950  
N     3.1320580   -0.6011570   -1.6174660  
C     3.8979330   -2.0246500    0.3281100  
C     4.6621120   -3.1378590    0.6432930  
O     4.7767220   -3.5386210    1.9451930  
C     5.3289060   -3.8706130   -0.3732510  
O     6.0538060   -4.9506750    0.0990120  
C     5.2386960   -3.5104400   -1.7051310  
H     4.4703330   -2.0260620   -4.2819820  
H     3.3817670   -1.4856050    1.1144560  
H     5.3186070   -4.3463110    1.9482030  
H     6.4169620   -5.4457510   -0.6499560  
H     5.7521100   -4.0923180   -2.4684840  
H     2.8931220    0.0758800   -3.6332950  
C    -7.7610430   -1.1950000   -0.7826760  
C    -6.5967170   -0.4929450   -0.8363030  
C    -5.6273060   -1.2956130   -0.0980700  
C    -6.4094940   -2.4771320    0.3266220  
N    -7.6591120   -2.4088860   -0.0613340  
C    -5.8226530   -3.5629420    1.0703490  
C    -4.5037000   -3.4939850    1.3536710  
O    -3.8214910   -4.4522850    2.0100500  
C    -3.6671790   -2.3161570    0.9505620  
O    -2.4756270   -2.3606340    1.2498410  
C    -4.2995700   -1.1522150    0.2318670  
H    -6.4179780    0.4157070   -1.3936080  
H    -6.4327770   -4.4104300    1.3627280  
H    -2.8981080   -4.1242570    2.0641710  
H    -8.7116130   -0.9343930   -1.2333180  
