62


C    -3.2985110    1.2181230   -1.7110170  
C    -3.0591880    0.2253330   -0.7827620  
C    -4.3132570    0.0206770   -0.0818580  
C    -5.2595860    0.9167980   -0.6423250  
N    -4.6097790    1.6321300   -1.6285430  
C    -6.5817500    1.0047520   -0.1897740  
C    -6.9574580    0.1737600    0.8538000  
O    -8.2335180    0.2159960    1.3304320  
C    -6.0207280   -0.7208530    1.4392840  
O    -6.5429530   -1.4714020    2.4731670  
C    -4.7156790   -0.8047930    0.9916720  
H    -5.0364080    2.3303340   -2.2174570  
H    -7.3062760    1.6909900   -0.6161680  
H    -8.2905970   -0.4228160    2.0620760  
H    -5.8501520   -2.0337680    2.8505210  
H    -4.0145650   -1.4880880    1.4643050  
H    -2.6287470    1.6385030   -2.4474960  
C     1.1813540    1.6750910   -0.2224900  
C    -0.2013500    1.5812240   -0.3990320  
C    -0.5447890    0.2056490   -0.4341580  
C     0.6663540   -0.5272910   -0.2621710  
N     1.6831100    0.3804970   -0.1474480  
C     0.7155560   -1.9385540   -0.2505150  
C    -0.5138470   -2.5879450   -0.3882560  
O    -0.5648750   -3.9435130   -0.3367690  
C    -1.7286800   -1.8694880   -0.5477850  
O    -2.8295530   -2.6910110   -0.6845250  
C    -1.7832340   -0.4813840   -0.5809820  
H    -0.8964790    2.4051440   -0.4218760  
H     2.6567520    0.2025160    0.0698750  
H    -1.4827460   -4.2038730   -0.5328390  
H    -3.6034760   -2.1487200   -0.9136230  
C     0.6695420    6.0061150   -1.1978210  
C     0.5156630    4.6568800   -1.1193790  
C     1.6706420    4.1212190   -0.4337570  
C     2.5286560    5.2802010   -0.1261280  
N     1.8549740    6.3930980   -0.5874510  
C     3.7406350    5.2357960    0.4996870  
C     4.2579610    3.9411330    0.8681910  
O     5.3194050    3.7561800    1.4483630  
C     3.4067480    2.6717800    0.4847270  
O     3.9335050    1.5809470    0.6600050  
C     2.0351950    2.8324270   -0.0773120  
H    -0.3009390    4.0938280   -1.5404740  
H     4.3239670    6.1202150    0.7346040  
H     0.0260260    6.7479020   -1.6512520  
H     2.2203890    7.3319310   -0.5615050  
C     4.0754610   -2.1231900    2.7160390  
C     2.9191910   -1.7693470    2.1058310  
C     2.8716900   -2.5698190    0.8853300  
C     4.1262430   -3.3795420    0.9406220  
N     4.8211880   -3.1198170    2.0118450  
C     4.4590360   -4.3380610   -0.0822670  
C     3.5957660   -4.4792180   -1.1124180  
O     3.7782370   -5.3247230   -2.1421170  
C     2.3378300   -3.6572710   -1.2184260  
O     1.6757640   -3.7854080   -2.2434150  
C     1.9710700   -2.7008980   -0.1235230  
H     2.1821760   -1.0523680    2.4372780  
H     5.3758240   -4.9126600   -0.0106860  
H     3.0153850   -5.1665290   -2.7408400  
H     4.4761030   -1.7462400    3.6494570  
