62


C    -1.1152450   -1.1161060    2.3968550  
C    -0.4634320   -0.0080130    1.9142450  
C    -1.2656160    0.5294680    0.8550840  
C    -2.4191700   -0.2992260    0.7604730  
N    -2.2789220   -1.3059620    1.6909720  
C    -3.4761380   -0.0903530   -0.1509690  
C    -3.3108850    1.0344060   -0.9664580  
O    -4.2679960    1.3400690   -1.9064490  
C    -2.2011410    1.9009350   -0.8836810  
O    -2.2481500    2.9308260   -1.7980260  
C    -1.1295810    1.6627360   -0.0085180  
H     0.4849020    0.3658760    2.2689650  
H    -2.9979720   -1.9829990    1.9012980  
H    -3.9644890    2.1739010   -2.3218360  
H    -1.9926720    3.7508980   -1.3211970  
H    -0.8347950   -1.7948100    3.1899160  
C     3.2786310    0.8280760    0.0165140  
C     1.9194260    0.6743200   -0.0851040  
C     1.3651840    1.9953600    0.0602570  
C     2.5539770    2.8711190    0.2455150  
N     3.6669170    2.1927460    0.2283860  
C     2.4368460    4.2973630    0.4093150  
C     1.1979820    4.8291060    0.3274610  
O     0.9411690    6.1436070    0.4201710  
C    -0.0160720    3.9779980    0.0683390  
O    -1.0773970    4.6027790   -0.0857280  
C     0.0813150    2.4951310    0.0221850  
H     1.3682260   -0.2384950   -0.2526000  
H     3.3191500    4.9076810    0.5645590  
H    -0.0264050    6.2389620    0.2891440  
C     4.3272190   -0.1487860   -0.0677590  
C     4.2827890   -1.5135080   -0.2597350  
C     5.6332040   -1.9979590   -0.2580680  
C     6.5032230   -0.8088870   -0.0480430  
N     5.6521280    0.2664430    0.0580550  
C     7.8587190   -0.8568460    0.0151180  
C     8.5179610   -2.1504410   -0.1295480  
O     9.7312920   -2.2901300   -0.0852180  
C     7.6184690   -3.4215940   -0.3528600  
O     8.1544760   -4.5137160   -0.4738680  
C     6.1672730   -3.2454870   -0.4035170  
H     3.3898980   -2.1082980   -0.3876450  
H     8.4788590    0.0207500    0.1687890  
H     5.5563430   -4.1297570   -0.5582020  
H     5.8977020    1.2352320    0.2029430  
C    -6.2626350   -1.7838020    2.9665880  
C    -5.3021540   -1.0508540    2.3156620  
C    -5.3520310   -1.4187300    0.9239760  
C    -6.3896210   -2.3806220    0.7972340  
N    -6.9128550   -2.5919720    2.0567560  
C    -6.7726500   -2.9384750   -0.4272780  
C    -6.1070770   -2.4881650   -1.5555720  
O    -6.4396620   -2.9680540   -2.7834030  
C    -5.0660380   -1.5242910   -1.4652680  
O    -4.4899000   -1.2182400   -2.6782810  
C    -4.6415780   -0.9988930   -0.2399820  
H    -4.6621830   -0.3090810    2.7712700  
H    -7.6850480   -3.2046610    2.2676130  
H    -7.5676680   -3.6710660   -0.5211820  
H    -5.8623420   -2.4970250   -3.4145630  
H    -4.3847390   -0.2429500   -2.7245710  
H    -6.5452500   -1.7899510    4.0097720  
