66


C    -0.4217350   -1.6229050   -0.3178040  
C     0.9475320   -1.6035400   -0.1332560  
C     1.3515730   -0.2361710   -0.0169920  
C     0.1747270    0.5563650   -0.1182140  
N    -0.8800940   -0.3113920   -0.2905880  
C     0.1609700    1.9671550   -0.0645590  
C     1.4207170    2.5526430    0.0688540  
O     1.5425600    3.9323820    0.0647610  
C     2.6041250    1.7922550    0.1905440  
O     3.7469950    2.5569200    0.3190870  
C     2.6072040    0.3964710    0.1663510  
H     1.5876050   -2.4709210   -0.0621570  
H    -1.8169970   -0.0243620   -0.5284030  
H     2.4952070    4.1268840    0.1421150  
H     4.5202610    1.9698620    0.2481630  
C    -1.0565290   -3.9505910   -1.0758680  
C    -1.3469220   -2.7254450   -0.5126250  
C    -2.7528590   -2.7603240   -0.1680650  
C    -3.2501140   -4.0299030   -0.5544170  
N    -2.1903010   -4.7348670   -1.0939930  
C    -4.5865980   -4.4068410   -0.3688140  
C    -5.4385420   -3.4829600    0.2186440  
O    -6.7539870   -3.7942200    0.4128540  
C    -4.9520930   -2.2142610    0.6275260  
O    -5.9002420   -1.3968620    1.2149500  
C    -3.6310580   -1.8504720    0.4512510  
H    -2.2457510   -5.6625900   -1.4837450  
H    -4.9716640   -5.3769540   -0.6664130  
H    -7.1732720   -3.0169130    0.8205990  
H    -5.5067810   -0.5215430    1.3599790  
H    -3.2909490   -0.8858190    0.8172310  
H    -0.1248470   -4.3133340   -1.4858160  
C    -3.7693260    1.7734120    2.1450010  
C    -2.4738070    1.5780780    1.7329060  
C    -2.2358320    2.4648100    0.6243350  
C    -3.4411630    3.1876920    0.4177450  
N    -4.3631600    2.7305370    1.3388510  
C    -3.5771060    4.1924000   -0.5477470  
C    -2.4519270    4.4899260   -1.2969300  
O    -2.4908280    5.4738990   -2.2352370  
C    -1.2290000    3.7850750   -1.1119860  
O    -0.2188240    4.1989110   -1.9543190  
C    -1.0968940    2.7501180   -0.1859330  
H    -1.7639270    0.8990120    2.1826730  
H    -5.2740850    3.1353350    1.4893360  
H    -4.4971310    4.7470590   -0.7009090  
H    -1.5865990    5.5165890   -2.6023610  
H     0.5982840    4.2849330   -1.4153810  
H    -4.3096190    1.3385430    2.9753030  
C     4.8635730   -2.3100010   -2.6613500  
C     3.9335860   -1.4763770   -2.0970780  
C     4.3946730   -1.1648100   -0.7732940  
C     5.6279700   -1.8456700   -0.5916500  
N     5.8875820   -2.5356200   -1.7582330  
C     6.3793810   -1.7616980    0.5875620  
C     5.8718670   -0.9755800    1.6089520  
O     6.5499890   -0.8658020    2.7890260  
C     4.6450720   -0.2799890    1.4474700  
O     4.2665400    0.4519640    2.5551420  
C     3.8897840   -0.3519170    0.2755220  
H     3.0224420   -1.1278720   -2.5611730  
H     6.6985490   -3.1096120   -1.9263230  
H     7.3193190   -2.2857650    0.7283720  
H     6.0038350   -0.3179170    3.3795330  
H     3.3466660    0.7441490    2.4304780  
H     4.8861570   -2.7685930   -3.6399670  
