60


C    -4.8370680    2.5921970   -0.8305890  
C    -4.3161260    1.4001150   -0.3704970  
C    -5.3786990    0.7435980    0.3617600  
C    -6.5100730    1.5952800    0.3006680  
N    -6.1462380    2.7126850   -0.4276520  
C    -7.7291990    1.2849960    0.9157350  
C    -7.8076540    0.0897840    1.6119630  
O    -8.9717500   -0.2653450    2.2242880  
C    -6.6797670   -0.7711790    1.6985670  
O    -6.9110970   -1.9136880    2.4369970  
C    -5.4769540   -0.4581950    1.0936370  
H    -6.7607940    3.4739530   -0.6709110  
H    -8.5963210    1.9355070    0.8664010  
H    -8.8261400   -1.1308600    2.6442590  
H    -6.1345420   -2.4916270    2.3992520  
H    -4.6269930   -1.1294980    1.1875440  
H    -4.3727160    3.3503090   -1.4454420  
C    -1.8151440    1.6869930   -0.4232820  
C    -2.9440260    0.9475660   -0.5823720  
C    -2.5084650   -0.3736100   -1.0351550  
C    -1.0309220   -0.3289910   -1.1334930  
N    -0.6482770    0.9522620   -0.7283430  
C    -0.2717150   -1.3496720   -1.6054260  
C    -0.9285860   -2.6093900   -1.9405400  
O    -0.3083110   -3.6047210   -2.2902270  
C    -2.4911290   -2.6821130   -1.8379570  
O    -3.0600650   -3.7200780   -2.1331580  
C    -3.2066600   -1.4825010   -1.3870380  
H     0.7998820   -1.2940290   -1.7496510  
H    -4.2904560   -1.5199830   -1.3582650  
H    -1.7115440    2.6984360   -0.0574920  
C     0.6310220    1.4743240   -0.6187620  
C     1.0227830    2.7755610   -0.7921850  
C     2.4411080    2.8240510   -0.5714340  
C     2.8509530    1.4406450   -0.2180140  
N     1.6990800    0.6754960   -0.2196000  
C     4.1299070    1.0542090    0.0893770  
C     5.1741520    2.0819070   -0.1898490  
O     6.3546030    1.8036740   -0.2953140  
C     4.7447730    3.5719040   -0.4209820  
O     5.6144830    4.4315890   -0.4235590  
C     3.3359320    3.8505100   -0.6375380  
H     0.3948660    3.6007760   -1.0934710  
H     3.0404080    4.8746590   -0.8429080  
H     1.7869830   -0.3386250   -0.3380210  
C     2.9158040   -3.1602420   -0.8957080  
C     3.8913180   -3.8556110   -0.2727410  
C     4.6907300   -2.8633820    0.4324540  
C     4.0577440   -1.5455330    0.0782070  
N     3.0130080   -1.7445590   -0.6794080  
C     4.5719750   -0.2717120    0.5626480  
C     5.5565610   -0.3799830    1.5143010  
O     6.0445820    0.6593560    2.1913070  
C     6.1920400   -1.6883400    1.9063720  
O     7.0872620   -1.6526090    2.7479290  
C     5.7200930   -2.9405660    1.2955040  
H     4.0459980   -4.9252930   -0.2650990  
H     6.7646650    0.2980460    2.7561700  
H     6.2025910   -3.8635770    1.6010920  
H     2.0952010   -3.5305410   -1.5003330  
