60


C     5.0747160   -0.1003600   -2.8818990  
C     4.5159010   -0.2356450   -1.6290020  
C     5.6040000   -0.5574940   -0.7301830  
C     6.7882590   -0.6019190   -1.5086340  
N     6.4317760   -0.3280860   -2.8152020  
C     8.0443890   -0.8962570   -0.9637610  
C     8.1068180   -1.1535170    0.3963760  
O     9.3054460   -1.4369900    0.9815820  
C     6.9293290   -1.1275100    1.1913140  
O     7.1512400   -1.4197130    2.5235940  
C     5.6905450   -0.8427670    0.6481670  
H     7.0739540   -0.2388600   -3.5869890  
H     8.9522420   -0.9248310   -1.5576300  
H     9.1393290   -1.5574570    1.9326710  
H     6.3476710   -1.2398280    3.0337350  
H     4.8039320   -0.8399870    1.2775120  
H     4.6027010    0.1668640   -3.8169730  
C     2.0515840   -0.6669840   -1.9941820  
C     3.0927840   -0.1038580   -1.3169640  
C     2.4938240    0.6938870   -0.2480050  
C     1.0254660    0.5306780   -0.3672980  
N     0.8230330   -0.3254510   -1.4270110  
C     0.0923460    1.1439740    0.4256360  
C     0.6052410    2.0328010    1.4814440  
O    -0.1233510    2.6241460    2.2629840  
C     2.1620100    2.2184400    1.6228930  
O     2.5818300    2.9535660    2.5025880  
C     3.0400800    1.5036880    0.6973320  
H     4.1104020    1.6538590    0.7905530  
H     2.0838650   -1.3295440   -2.8488400  
H    -0.0794650   -0.4841250   -1.8502620  
C    -1.9756150   -0.2942200    0.2556920  
C    -1.3520790    0.9179390    0.2739920  
C    -2.4003450    1.9196400    0.0708420  
C    -3.6694540    1.1738440   -0.0856390  
N    -3.3528380   -0.1813950    0.0460980  
C    -4.8807130    1.7514520   -0.2715110  
C    -4.9480640    3.2091940   -0.3568070  
O    -5.9946190    3.8171690   -0.5181280  
C    -3.6084560    4.0184980   -0.2287850  
O    -3.6380960    5.2344800   -0.3235230  
C    -2.3649180    3.2733290    0.0048920  
H    -5.8024620    1.1904120   -0.3747460  
H    -1.4536240    3.8442780    0.1417940  
H    -1.5459410   -1.2793510    0.3842920  
C    -4.3674770   -3.3189010    2.9252410  
C    -3.8598420   -2.2052400    2.3299270  
C    -4.4031070   -2.1545810    0.9933660  
C    -5.2763120   -3.3440690    0.8499270  
N    -5.1976370   -4.0136100    2.0572560  
C    -5.9999000   -3.6501660   -0.2572140  
C    -5.9096010   -2.7594160   -1.4077380  
O    -6.5469940   -2.9211710   -2.4354170  
C    -4.9348170   -1.5267850   -1.3227060  
O    -4.7479050   -0.8476620   -2.3160570  
C    -4.2481310   -1.2675190   -0.0379470  
H    -3.1957720   -1.4840590    2.7821610  
H    -6.6469860   -4.5185300   -0.3284970  
H    -4.2079940   -3.6889280    3.9294140  
H    -5.7233570   -4.8416410    2.2902550  
