60


C    -2.5397450    5.1557770   -1.2072830  
C    -1.7120690    6.1725790   -0.8171670  
C    -0.5249830    5.5656540   -0.2861300  
C    -0.7005030    4.1597340   -0.3658530  
N    -1.9424050    3.9402410   -0.9181950  
C     0.2898940    3.2299230    0.0479690  
C     1.4955250    3.7950940    0.5021110  
O     2.5332220    2.9936520    0.8952430  
C     1.6740920    5.1949240    0.5922120  
O     2.9124770    5.5556200    1.0837330  
C     0.6823590    6.0815620    0.2185220  
H    -1.9168070    7.2306970   -0.9001000  
H    -2.2660570    3.0446660   -1.2488570  
H     3.2561360    3.5814000    1.1821570  
H     2.9824570    6.5201930    1.1367900  
H     0.8427320    7.1545000    0.2971690  
H    -3.5194850    5.1864820   -1.6621700  
C     0.0634890    1.7948790    0.0138480  
C    -1.1237510    1.0815570   -0.0097180  
C    -0.8120320   -0.3128120   -0.0487570  
C     0.6580910   -0.3992120   -0.0124100  
N     1.1184970    0.8903930    0.0038780  
C     1.4043600   -1.5599980    0.0147060  
C     0.6254560   -2.8186400    0.0574430  
O     1.1146490   -3.8994500    0.3233910  
C    -0.9142420   -2.7538050   -0.2015970  
O    -1.4736800   -3.7796590   -0.5392110  
C    -1.6122980   -1.4476240   -0.0893540  
H    -2.1135050    1.4930410    0.1017820  
H     2.0903240    1.1635440    0.0345920  
C    -3.0554320   -1.4125870   -0.0990400  
C    -3.8978220   -0.4588270   -0.6239910  
C    -5.2359990   -0.9158560   -0.3495970  
C    -5.0356380   -2.1966370    0.4021760  
N    -3.7775250   -2.4873020    0.5400700  
C    -6.1548210   -2.9629340    0.8905860  
C    -7.3981940   -2.5001420    0.6230190  
O    -8.5305180   -3.1101890    1.0038840  
C    -7.6306380   -1.2221030   -0.1488900  
O    -8.8012600   -0.8840010   -0.3371770  
C    -6.4796560   -0.4492520   -0.6216000  
H    -3.6279760    0.4058990   -1.2125310  
H    -5.9842500   -3.8827740    1.4385530  
H    -9.2551850   -2.5384560    0.6633870  
H    -6.6862630    0.4696530   -1.1619070  
C     2.8494470   -1.5780900    0.0722130  
C     3.7012150   -0.6752390    0.6682400  
C     5.0339930   -1.1592390    0.4033640  
C     4.8168840   -2.3948760   -0.4167360  
N     3.5543040   -2.6395540   -0.6016330  
C     5.9248640   -3.1713100   -0.9133650  
C     7.1738020   -2.7610820   -0.5911150  
O     8.2970700   -3.3862430   -0.9726930  
C     7.4225860   -1.5295770    0.2493090  
O     8.5966720   -1.2370850    0.4837230  
C     6.2820450   -0.7454460    0.7306110  
H     3.4454050    0.1603530    1.3058220  
H     5.7416380   -4.0574710   -1.5105060  
H     9.0294890   -2.8556150   -0.5854820  
H     6.5005020    0.1378890    1.3229650  
