60


C     4.7957680   -2.8695000   -1.2967540  
C     4.5903460   -1.6985130   -0.5910790  
C     5.8850310   -1.3100220   -0.0669200  
C     6.8184390   -2.2863730   -0.4966680  
N     6.1221190   -3.2230910   -1.2390410  
C     8.1763070   -2.2422240   -0.1600340  
C     8.6040410   -1.1913550    0.6360370  
O     9.9166000   -1.0970440    0.9899520  
C     7.6817910   -0.2132970    1.0956560  
O     8.2544820    0.7572030    1.8929280  
C     6.3408850   -0.2637240    0.7614290  
H     6.5339830   -4.0111890   -1.7142970  
H     8.8899890   -2.9897710   -0.4908150  
H    10.0109150   -0.3039950    1.5455780  
H     7.5820660    1.4017580    2.1588420  
H     5.6549130    0.4877200    1.1449850  
H     4.0874370   -3.4550550   -1.8654410  
C     2.0832080   -1.6065970   -0.1968830  
C     3.3015020   -1.0459070   -0.4247940  
C     3.0032030    0.3949930   -0.5624390  
C     1.5271070    0.5067750   -0.3648160  
N     1.0114050   -0.6724340   -0.1583440  
C     0.8191010    1.7912180   -0.4143380  
C     1.6119400    2.8861390   -0.7062010  
O     1.1837360    4.1437740   -0.8180240  
C     3.0909370    2.7716670   -0.9491110  
O     3.7066130    3.8098990   -1.2004230  
C     3.7567030    1.4631080   -0.8722450  
H     1.9927280    4.6644270   -1.0354830  
H     4.8248810    1.4285290   -1.0609130  
H     1.8635640   -2.6548260   -0.0338250  
C    -0.6096030    1.8641130   -0.1810420  
C    -1.4919100    0.8260210    0.0129830  
C    -2.7852910    1.4316730    0.2017040  
C    -2.5222770    2.8922770    0.0799830  
N    -1.2660280    3.1453280   -0.1351880  
C    -3.5767170    3.8695120    0.1875160  
C    -4.8304070    3.4114170    0.3961190  
O    -5.9134130    4.1991580    0.5033960  
C    -5.1341950    1.9416980    0.5406150  
O    -6.3082430    1.6442530    0.7627640  
C    -4.0417160    0.9357240    0.4416060  
H    -1.2465210   -0.2221590   -0.0089310  
H    -3.3530620    4.9259760    0.0912480  
H    -6.6642050    3.5872440    0.6693930  
C    -3.4803560   -1.2986300    1.3977990  
C    -4.3206950   -0.4754750    0.6916900  
C    -5.4402580   -1.3201580    0.2530440  
C    -5.1562470   -2.6830730    0.7697990  
N    -3.9584190   -2.5897630    1.4557970  
C    -5.9408060   -3.7728140    0.5790710  
C    -7.1582890   -3.6194490   -0.2104940  
O    -7.9294740   -4.5389340   -0.4370020  
C    -7.4693100   -2.1971090   -0.7975710  
O    -8.4679340   -2.0446250   -1.4819940  
C    -6.5444520   -1.0938140   -0.5024300  
H    -5.7022140   -4.7553160    0.9747870  
H    -6.8010060   -0.1168870   -0.8920230  
H    -2.5554450   -1.0388420    1.8944240  
H    -3.5231780   -3.3471740    1.9597310  
