60


C    -3.9339790    0.7333410   -1.8462170  
C    -4.7177660    1.8458350   -1.9283500  
C    -5.7105930    1.7507370   -0.8919490  
C    -5.4859710    0.5320490   -0.2064770  
N    -4.3862500   -0.0914470   -0.8111500  
C    -6.2439140    0.1463900    0.9034640  
C    -7.2641640    0.9954210    1.3107570  
O    -8.0348910    0.6558550    2.3845840  
C    -7.5135290    2.2103270    0.6254520  
O    -8.5603940    2.9443930    1.1468460  
C    -6.7492570    2.5955730   -0.4628520  
H    -4.6060280    2.6462850   -2.6471390  
H    -6.0784470   -0.7775710    1.4417800  
H    -8.6840300    1.3690650    2.5112630  
H    -8.6708220    3.7604070    0.6368780  
H    -6.9446560    3.5398580   -0.9671610  
H    -3.0866910    0.4269630   -2.4390300  
C    -0.2162550   -1.0326780   -0.1072900  
C    -0.3002240   -2.3555090    0.2304620  
C    -1.7042670   -2.6852090    0.1525690  
C    -2.3640030   -1.4089830   -0.2679890  
N    -1.4956150   -0.4540910   -0.4163000  
C    -3.8049240   -1.3177640   -0.4563500  
C    -4.5227660   -2.4629880   -0.2526990  
O    -5.8502560   -2.5465590   -0.4210220  
C    -3.8823830   -3.7437010    0.1831480  
O    -4.6182930   -4.7214810    0.3329680  
C    -2.4260400   -3.8053610    0.3800490  
H     0.5005980   -3.0220540    0.5185370  
H    -6.0791910   -3.4773380   -0.1975150  
H    -2.0048840   -4.7552700    0.6935920  
C     0.9241120   -0.1602080   -0.1868730  
C     2.2651210   -0.4000660    0.0236080  
C     2.9654620    0.8404100   -0.1610750  
C     1.9309690    1.8534920   -0.4911650  
N     0.7314340    1.1773300   -0.5163110  
C     2.1737030    3.1753250   -0.6889820  
C     3.5452690    3.6484060   -0.5803100  
O     3.8640000    4.8214560   -0.6997390  
C     4.6750550    2.5899300   -0.3185920  
O     5.8366200    2.9414860   -0.4110550  
C     4.2967960    1.1742450   -0.0491350  
H     2.7020240   -1.3463600    0.3056560  
H     1.3922120    3.8983760   -0.8997310  
H    -0.1901080    1.5713230   -0.6451110  
C     5.5840300   -2.5862260   -1.9840040  
C     6.6338230   -2.9002480   -1.1828330  
C     6.7209990   -1.8735690   -0.1647770  
C     5.6143360   -0.9258660   -0.4382010  
N     4.9546860   -1.4257150   -1.5443120  
C     5.3660340    0.2214460    0.2658910  
C     6.2486250    0.4850020    1.4289390  
O     6.0451630    1.3943150    2.2117720  
C     7.4473410   -0.4917930    1.7078500  
O     8.2090370   -0.2362280    2.6266230  
C     7.5935940   -1.6732400    0.8595720  
H     7.2905310   -3.7515110   -1.2870990  
H     8.4210460   -2.3452430    1.0656340  
H     5.2076190   -3.1015030   -2.8578740  
H     4.2017570   -0.9509800   -2.0178450  
