62


C     4.9441940   -0.4395710   -2.3156970  
C     4.6942670   -0.3515340   -0.9617110  
C     5.4793880   -1.4013810   -0.3401120  
C     6.1755840   -2.0764260   -1.3758580  
N     5.8252950   -1.4693370   -2.5653090  
C     7.0224100   -3.1655610   -1.1354110  
C     7.1680620   -3.5852400    0.1774010  
O     7.9840160   -4.6381860    0.4680530  
C     6.4693420   -2.9307320    1.2278790  
O     6.7099830   -3.4714440    2.4755650  
C     5.6326560   -1.8570900    0.9879560  
H     6.1800080   -1.7219600   -3.4745370  
H     7.5554260   -3.6835190   -1.9261900  
H     7.9444390   -4.7772570    1.4301220  
H     6.2047510   -2.9846440    3.1436070  
H     5.1006890   -1.3790530    1.8068590  
H     4.5718520    0.1791800   -3.1197280  
C     0.4295860    0.8174440   -1.6799470  
C     1.6604290    0.2366570   -1.7374550  
C     2.4829160    0.8624780   -0.7349700  
C     1.6876860    1.8430200   -0.0947150  
N     0.4154330    1.8118410   -0.6916540  
C     2.1464710    2.5826710    0.9985400  
C     3.4467170    2.3479280    1.4215880  
O     3.9528260    3.0591310    2.4694760  
C     4.2644200    1.3909470    0.7749210  
O     5.5373450    1.2995300    1.2963130  
C     3.8111580    0.6293300   -0.3051010  
H     1.9606880   -0.5442020   -2.4214720  
H     1.5549840    3.3398130    1.4958670  
H     4.8853480    2.7995240    2.5674020  
H     6.0672680    0.7093640    0.7336300  
H    -0.4458760    0.6672860   -2.2933580  
C    -3.7972670    0.6814410   -0.1293540  
C    -2.4277190    0.6639010   -0.3054610  
C    -1.9668380    2.0178140   -0.2663570  
C    -3.1637150    2.8642290   -0.0478950  
N    -4.2284330    1.9988790    0.0069120  
C    -3.1531000    4.2186230    0.0930510  
C    -1.8814940    4.9052080    0.0244560  
O    -1.7383280    6.1082020    0.1894940  
C    -0.5877400    4.0569300   -0.2767150  
O     0.4628590    4.6415390   -0.4641470  
C    -0.7072400    2.5751610   -0.3665670  
H    -1.8172140   -0.2182240   -0.4243380  
H    -4.0501020    4.8026360    0.2700860  
H    -5.1981560    2.2285540    0.1726930  
C    -4.7539700   -0.3826850   -0.0629260  
C    -4.5750660   -1.7405370   -0.1666450  
C    -5.8867540   -2.3112210   -0.0207400  
C    -6.7913460   -1.1280210    0.1708590  
N    -6.1249810   -0.0086580    0.1444800  
C    -8.2087300   -1.2850450    0.3554210  
C    -8.7036320   -2.5461180    0.3509340  
O    -9.9964280   -2.8476890    0.5103090  
C    -7.8177520   -3.7612970    0.1602380  
O    -8.3742710   -4.8610030    0.1730570  
C    -6.3800250   -3.5770750   -0.0257400  
H    -3.6503330   -2.2781710   -0.3226040  
H    -8.8430080   -0.4164190    0.4919970  
H   -10.0393320   -3.8304640    0.4600970  
H    -5.7740350   -4.4676440   -0.1592890  
