66


C     1.1295590   -2.1641560   -0.1100820  
C     1.7728820   -3.3110920    0.2857890  
C     3.1799810   -3.0286310    0.2518200  
C     3.3286190   -1.6785250   -0.1576610  
N     2.0602030   -1.1734740   -0.3741090  
C     4.5724020   -1.0338890   -0.3281310  
C     5.6940400   -1.8312540   -0.0807150  
O     6.9510000   -1.3155690   -0.2441100  
C     5.5656290   -3.1798990    0.3409390  
O     6.7799870   -3.8116220    0.5539490  
C     4.3365610   -3.7875290    0.5143040  
H     1.2929480   -4.2293300    0.5939780  
H     1.8580540   -0.2674330   -0.7705930  
H     7.5751080   -2.0053790    0.0414100  
H     6.6225710   -4.6847870    0.9418780  
H     4.2710660   -4.8269610    0.8291140  
C    -1.1379040   -2.7072660   -0.9694740  
C    -2.3830010   -2.1395330   -0.9437520  
C    -2.2824730   -0.9113830   -0.1956750  
C    -0.9278810   -0.7981890    0.2081880  
N    -0.2386880   -1.9073000   -0.2734390  
C    -0.4405010    0.2807740    0.9506830  
C    -1.3403950    1.2890560    1.2318610  
O    -0.9254280    2.4029710    1.9193790  
C    -2.6986270    1.2204700    0.8351070  
O    -3.4468280    2.3089110    1.2278880  
C    -3.2097130    0.1132850    0.1499370  
H    -3.2615860   -2.5284980   -1.4375940  
H     0.5896720    0.3532260    1.2739070  
H    -1.7017170    2.9957020    1.9623570  
H    -4.0177490    2.5671520    0.4703210  
H    -0.7840000   -3.6077930   -1.4499260  
C    -6.0433170   -3.1934730    0.9211960  
C    -7.1653440   -2.6211220    0.3800780  
C    -6.7808730   -1.3296920   -0.1124750  
C    -5.3931830   -1.1772990    0.1560720  
N    -4.9784200   -2.3243950    0.7992830  
C    -4.6558380   -0.0129440   -0.1657210  
C    -5.4016140    1.0047120   -0.7590360  
O    -4.7886260    2.2025380   -1.0874160  
C    -6.7826590    0.8761650   -1.0366200  
O    -7.3335920    1.9985410   -1.6313370  
C    -7.4805920   -0.2745960   -0.7288610  
H    -8.1524710   -3.0609840    0.3454560  
H    -4.0211310   -2.5229890    1.0479340  
H    -5.4684440    2.7636410   -1.5035910  
H    -8.2686070    1.8375470   -1.8251920  
H    -8.5438970   -0.3537340   -0.9450370  
H    -5.9108630   -4.1565350    1.3939420  
C     5.4789080    0.8217130   -1.7964430  
C     4.6755950    0.3663970   -0.7755050  
C     3.9602770    1.5274820   -0.2739800  
C     4.3759470    2.6406490   -1.0539280  
N     5.2942820    2.1759850   -1.9732570  
C     3.9133650    3.9437480   -0.8365960  
C     3.0097720    4.1301990    0.1988490  
O     2.5111240    5.3681270    0.4699130  
C     2.5891990    3.0403130    1.0092070  
O     1.7507490    3.3946060    2.0568200  
C     3.0677600    1.7573740    0.7962070  
H     5.7870800    2.7466860   -2.6418780  
H     4.2383410    4.7897280   -1.4341510  
H     1.9436400    5.2388340    1.2555550  
H     0.8816690    2.9481710    1.9843460  
H     2.7871870    0.9580070    1.4754150  
H     6.1749240    0.2708060   -2.4111730  
