62


C     5.7172680   -0.4996110   -2.1776390  
C     5.5000200   -0.1370110   -0.8618790  
C     6.7337040   -0.4116410   -0.1586950  
C     7.6488790   -0.9367240   -1.1046170  
N     7.0009800   -0.9807820   -2.3242940  
C     8.9496830   -1.3317750   -0.7660000  
C     9.3327790   -1.1924280    0.5578770  
O    10.5889890   -1.5556680    0.9459010  
C     8.4265530   -0.6720220    1.5214460  
O     8.9560840   -0.5955140    2.7962300  
C     7.1442220   -0.2871950    1.1833590  
H     7.4233690   -1.2523660   -3.1982150  
H     9.6517580   -1.7330620   -1.4897100  
H    10.6593980   -1.3719680    1.8986700  
H     8.3052100   -0.1947110    3.3910840  
H     6.4742200    0.1250240    1.9322980  
H     5.0652530   -0.3979420   -3.0345080  
C     1.4543500   -1.7361580   -1.2923890  
C     0.7519380   -0.7561910   -0.6061730  
C     1.7418180    0.1988800   -0.1453620  
C     3.0024400   -0.2574580   -0.5989180  
N     2.7878150   -1.4335040   -1.2961380  
C     4.2301240    0.3813850   -0.3245260  
C     4.1403480    1.5245380    0.4740530  
O     5.2670220    2.2263910    0.7913530  
C     2.8907240    1.9841670    0.9656230  
O     2.9922630    3.1170210    1.7504420  
C     1.6996380    1.3475830    0.6699420  
H     3.5284710   -1.9888080   -1.6987100  
H     4.9831910    3.0037830    1.3038960  
H     2.1070850    3.4422720    1.9715600  
H     0.7643790    1.7160540    1.0832950  
H     1.0763190   -2.6044510   -1.8131450  
C    -1.5113010   -1.8248040   -0.1936990  
C    -0.6838530   -0.7628430   -0.4097420  
C    -1.6103520    0.3930340   -0.5049780  
C    -2.9615430   -0.1876280   -0.2960640  
N    -2.8831120   -1.4779060   -0.1258360  
C    -4.1715170    0.6375590   -0.3126870  
C    -3.9680190    1.9694450   -0.5863430  
O    -4.9548670    2.8932370   -0.6481340  
C    -2.6278320    2.5565440   -0.8466030  
O    -2.5708930    3.7700060   -1.0767100  
C    -1.4374060    1.6932440   -0.8047180  
H    -4.4905850    3.7373410   -0.8613220  
H    -0.4756150    2.1531610   -1.0071900  
H    -1.2307740   -2.8614090   -0.0553870  
C    -5.4841230    0.0643250   -0.0664530  
C    -5.8263150   -1.2372650    0.2215960  
C    -7.2530240   -1.2935380    0.3829640  
C    -7.7521500    0.0883730    0.1688310  
N    -6.6438840    0.8549060   -0.0969180  
C    -9.0606300    0.4490190    0.2384580  
C   -10.0496290   -0.5779070    0.5416640  
O   -11.2480480   -0.3500320    0.6252910  
C    -9.5433610   -2.0505440    0.7717630  
O   -10.3591640   -2.9243620    1.0269220  
C    -8.1074590   -2.3157520    0.6706190  
H    -5.1282790   -2.0543980    0.3008970  
H    -9.4078720    1.4652740    0.0792750  
H    -7.7686810   -3.3348170    0.8312810  
H    -6.6363680    1.8458000   -0.2863820  
