62


C     1.4001470   -2.0891910   -0.2055290  
C     2.6541060   -1.5354810   -0.4422250  
C     3.6317180   -2.5404230   -0.1811180  
C     2.9249390   -3.7072790    0.2207680  
N     1.5845670   -3.4023910    0.2053830  
C     3.5725770   -4.9040860    0.5529300  
C     4.9559680   -4.9236620    0.4765330  
O     5.6384630   -6.0619540    0.7878240  
C     5.6798610   -3.7648700    0.0756400  
O     7.0488690   -3.9489100    0.0518050  
C     5.0408360   -2.5856010   -0.2501530  
H     2.8461830   -0.5544900   -0.8528060  
H     0.8202100   -4.0499120    0.3274350  
H     3.0389200   -5.7972250    0.8606810  
H     6.5854510   -5.8716370    0.6715300  
H     7.4812160   -3.1291960   -0.2300160  
H     5.6148770   -1.7123780   -0.5538350  
C     0.1471490    2.1272620    0.0742400  
C    -1.1974180    1.9234310   -0.1978090  
C    -1.3977080    0.5289630   -0.4063060  
C    -0.1306280   -0.0962230   -0.2586660  
N     0.7942540    0.8963320   -0.0070860  
C     0.0767960   -1.4919430   -0.3230460  
C    -1.0953510   -2.2435800   -0.5123170  
O    -1.0227240   -3.6090110   -0.5848530  
C    -2.3617330   -1.6412140   -0.6734480  
O    -3.3719790   -2.5618760   -0.8998540  
C    -2.5634540   -0.2598650   -0.6366190  
H    -1.9428300    2.7023690   -0.2591510  
H     1.6919300    0.7006640    0.4134040  
H    -1.9179490   -3.9274060   -0.8033930  
H    -4.1080060   -2.1263200   -1.3583020  
C    -4.1960070    1.4775510   -1.5232980  
C    -3.8806660    0.3457320   -0.8222750  
C    -5.1737710   -0.0566030   -0.2107740  
C    -6.1421830    0.9676440   -0.6953290  
N    -5.5594900    1.8507910   -1.4622720  
C    -7.5288140    0.9362250   -0.3173150  
C    -7.9360240   -0.0385620    0.5326470  
O    -9.1984870   -0.1785710    0.9719060  
C    -6.9807600   -1.0632930    1.0655070  
O    -7.4189760   -1.9201050    1.8329250  
C    -5.5610970   -1.0210680    0.6485920  
H    -8.2093890    1.6897070   -0.6982070  
H    -9.1825250   -0.9589770    1.5679330  
H    -4.9068530   -1.7866710    1.0523410  
H    -3.5193280    2.0833260   -2.1137050  
C     0.3516240    4.5071840    0.9063040  
C     0.8500150    3.3425370    0.3892700  
C     2.2955920    3.6240530    0.2022540  
C     2.4593570    5.0196670    0.6891840  
N     1.3181830    5.5218110    1.0848400  
C     3.7361330    5.6784200    0.6744270  
C     4.8008410    4.9992200    0.1787610  
O     6.0489710    5.4979980    0.1110320  
C     4.6632740    3.6069720   -0.3482970  
O     5.6679300    3.0439470   -0.7850970  
C     3.3352930    2.9510590   -0.3247410  
H     3.8244270    6.6935840    1.0454950  
H     6.5920460    4.7873520   -0.2933040  
H     3.2812380    1.9545600   -0.7516830  
H    -0.6724120    4.7068460    1.1972720  
