62


C    -5.2473140   -2.3748850    0.4806810  
C    -4.3775670   -1.3053310    0.3538490  
C    -5.2044880   -0.1201890    0.2644520  
C    -6.5533750   -0.5447770    0.3444220  
N    -6.5459610   -1.9212720    0.4782490  
C    -7.6366660    0.3396570    0.2658340  
C    -7.3484710    1.6843080    0.0993020  
O    -8.3609050    2.5933870    0.0180270  
C    -6.0009460    2.1286180    0.0090930  
O    -5.8790640    3.4941790   -0.1556290  
C    -4.9369790    1.2516120    0.0859660  
H    -7.3621840   -2.4967390    0.6157040  
H    -8.6700610    0.0138600    0.3252470  
H    -7.9525000    3.4681830   -0.1035340  
H    -4.9429780    3.7288350   -0.2411910  
H    -3.9157860    1.6164550    0.0337530  
H    -5.0281400   -3.4225030    0.6346060  
C    -1.8866430   -3.9800130   -2.0469910  
C    -0.6540260   -3.5815070   -1.5880200  
C    -0.8780780   -2.5609810   -0.6081850  
C    -2.2801730   -2.3811700   -0.5172990  
N    -2.8668550   -3.2714260   -1.3923840  
C    -2.9150920   -1.4157320    0.2935630  
C    -2.0513570   -0.5981510    1.0322580  
O    -2.5674380    0.3449130    1.8731490  
C    -0.6483350   -0.7465650    0.9664440  
O     0.0229860    0.1202040    1.8023610  
C    -0.0211450   -1.7182110    0.1630620  
H     0.2952500   -3.9585060   -1.9370350  
H    -3.8535450   -3.2783730   -1.6038010  
H    -1.8157410    0.7417250    2.3483740  
H     0.9492150   -0.1674510    1.9005910  
H    -2.1436280   -4.7204220   -2.7911850  
C     1.4162280   -1.8619080    0.1309150  
C     2.2036480   -2.9631400   -0.0934000  
C     3.5831810   -2.5814390   -0.0045980  
C     3.5789890   -1.1316570    0.2761070  
N     2.2514870   -0.7390230    0.4335770  
C     4.7072270   -0.3698110    0.3563680  
C     6.0113810   -1.0573460    0.2692460  
O     7.0673250   -0.4634990    0.4148570  
C     6.0214920   -2.6076310    0.0201920  
O     7.1079460   -3.1644390   -0.0550380  
C     4.7462330   -3.2906900   -0.1065040  
H     1.8419890   -3.9709240   -0.2322740  
H     4.7617340   -4.3590600   -0.2961340  
H     1.9740540    0.1795540    0.0897710  
C     5.4463330    1.6973270    1.5434320  
C     5.1812790    3.0243190    1.5489920  
C     4.2133720    3.2805110    0.5050900  
C     3.9380700    1.9666620   -0.1316090  
N     4.6885020    1.0266050    0.5625130  
C     3.1232600    1.8020840   -1.2114670  
C     2.4370960    2.9736980   -1.7548360  
O     1.6991140    2.9183030   -2.7262160  
C     2.6637850    4.3580630   -1.0488170  
O     2.0548950    5.3361040   -1.4521470  
C     3.6110750    4.4165030    0.0680950  
H     5.6198340    3.7607040    2.2066300  
H     3.0129880    0.8618000   -1.7421560  
H     3.8043040    5.3879990    0.5130640  
H     6.1241600    1.1240680    2.1571440  
