62


C    -4.5631860   -0.6871880   -0.2194810  
C    -4.9358840   -1.8938100   -0.7592600  
C    -6.2511600   -2.1794940   -0.2636130  
C    -6.6310510   -1.0961150    0.5718430  
N    -5.5873460   -0.1856960    0.5702530  
C    -7.8660430   -1.0405970    1.2258040  
C    -8.7382370   -2.1016270    1.0331710  
O    -9.9524390   -2.1019260    1.6522070  
C    -8.3803520   -3.1908430    0.1931980  
O    -9.3571690   -4.1621060    0.0989590  
C    -7.1595600   -3.2402370   -0.4532190  
H    -4.3545420   -2.4767950   -1.4595360  
H    -5.4852400    0.5921040    1.2047270  
H    -8.1593630   -0.2146300    1.8653560  
H   -10.4110650   -2.9190220    1.3904520  
H    -9.0537950   -4.8743280   -0.4831910  
H    -6.9078330   -4.0842950   -1.0919350  
C    -2.1067320   -0.5697890   -0.2761760  
C    -1.1201660    0.3825950   -0.4447260  
C    -1.8069780    1.6458720   -0.6406890  
C    -3.1956210    1.3812810   -0.5831540  
N    -3.3575620    0.0109060   -0.3463560  
C    -4.1664910    2.3663490   -0.7959300  
C    -3.7240910    3.6553560   -1.0561960  
O    -4.6286130    4.6514020   -1.2619650  
C    -2.3355270    3.9416890   -1.1234730  
O    -2.0531170    5.2609260   -1.4050940  
C    -1.3823830    2.9571850   -0.9311890  
H    -5.2297610    2.1564850   -0.7893690  
H    -4.1299850    5.4647750   -1.4532230  
H    -1.0950050    5.3864070   -1.4748770  
H    -0.3260920    3.1963450   -1.0240100  
H    -2.0152770   -1.6203350   -0.0428070  
C     0.9601950   -0.9837780   -0.9220870  
C     0.3012820    0.1017030   -0.4247120  
C     1.3676900    0.8900340    0.2398450  
C     2.6116910    0.1120700    0.0065590  
N     2.3517340   -0.9769070   -0.6624310  
C     3.9122080    0.5598370    0.5094740  
C     3.8860810    1.7165820    1.2523790  
O     4.9796870    2.2911810    1.8041260  
C     2.6430640    2.4793100    1.5369030  
O     2.7464650    3.5086800    2.2140700  
C     1.3601410    2.0010630    0.9993060  
H     4.6328840    3.0909150    2.2663790  
H     0.4713440    2.5767730    1.2364100  
H     0.5413670   -1.8048140   -1.4903070  
C     5.1283760   -0.1884630    0.2389800  
C     5.2959770   -1.3458770   -0.4868200  
C     6.6922220   -1.6843210   -0.4623000  
C     7.3628850   -0.6316180    0.3416690  
N     6.3719640    0.2351400    0.7336040  
C     8.6972290   -0.5971090    0.5970290  
C     9.5368620   -1.6570780    0.0526050  
O    10.7456730   -1.7110010    0.2282020  
C     8.8472110   -2.7843630   -0.8026080  
O     9.5361310   -3.6809270   -1.2669620  
C     7.3997930   -2.7130290   -1.0089350  
H     4.5021560   -1.8881430   -0.9736510  
H     9.1710780    0.1812140    1.1872450  
H     6.9338910   -3.4954840   -1.6003520  
H     6.4940880    1.0653510    1.2936560  
