62


C     4.0394650    2.1174170    2.8778540  
C     5.1908340    2.7641500    2.5114870  
C     5.7048120    2.0841570    1.3575360  
C     4.8047860    1.0241460    1.0619510  
N     3.8076430    1.0659750    2.0138060  
C     4.9935020    0.1115130   -0.0036220  
C     6.1577030    0.3114520   -0.7448130  
O     6.4597600   -0.5440110   -1.7905910  
C     7.0672860    1.3591370   -0.4697370  
O     8.1546470    1.3844630   -1.3253730  
C     6.8551290    2.2505960    0.5628220  
H     5.6282320    3.6186120    3.0089650  
H     3.0066840    0.4537910    2.0307510  
H     7.2902090   -0.2234590   -2.1882690  
H     8.7154150    2.1462920   -1.1179000  
H     7.5672880    3.0481920    0.7630310  
H     3.3563740    2.3163390    3.6916050  
C     0.5074630    0.0596150   -0.4820530  
C     1.8361070    0.4364940   -0.3526940  
C     2.6297240   -0.7481760   -0.3588880  
C     1.7296190   -1.8425930   -0.5150370  
N     0.4521670   -1.3313440   -0.5448660  
C     2.1552180   -3.1692370   -0.6341280  
C     3.5226200   -3.3843340   -0.6090250  
O     4.0204430   -4.6379250   -0.7423600  
C     4.4486040   -2.3101290   -0.4368480  
O     5.7603600   -2.7225120   -0.4054200  
C     4.0360320   -0.9901550   -0.2762680  
H     2.1859400    1.4535290   -0.2513300  
H    -0.3639680   -1.8436300   -0.8459890  
H     1.4729280   -4.0024550   -0.7642650  
H     4.9925260   -4.5387580   -0.7177690  
H     6.2857110   -2.0950340   -0.9506840  
C    -0.6837170    0.8565420   -0.5252900  
C    -0.8388820    2.2038730   -0.7462070  
C    -2.2350590    2.5106720   -0.6553090  
C    -2.9183980    1.2215000   -0.3834370  
N    -1.9392470    0.2404360   -0.3636640  
C    -4.2685880    1.0725070   -0.2094230  
C    -5.0485800    2.3383870   -0.1440770  
O    -6.1941410    2.3830720    0.2686960  
C    -4.3637570    3.6817050   -0.5770560  
O    -5.0671930    4.6767180   -0.6953920  
C    -2.9285620    3.6798520   -0.7886990  
H    -0.0500100    2.9024820   -0.9860040  
H    -2.4471070    4.6205650   -1.0376800  
H    -2.0892620   -0.5228030    0.3071620  
C    -3.4092570   -2.5692700    2.2331410  
C    -4.5796670   -3.2369420    2.1365760  
C    -5.3960640   -2.4487380    1.2220120  
C    -4.5365250   -1.2654760    0.8727000  
N    -3.3714170   -1.3691990    1.4567110  
C    -4.9893520   -0.1988450   -0.0062400  
C    -6.1935140   -0.4341240   -0.6221980  
O    -6.7056940    0.3600990   -1.5633070  
C    -7.0634060   -1.6216030   -0.3115440  
O    -8.1334520   -1.7172470   -0.9089510  
C    -6.6095480   -2.6236850    0.6691640  
H    -4.8637700   -4.1641440    2.6139720  
H    -7.5866020   -0.0161580   -1.7847190  
H    -7.2664810   -3.4642900    0.8695830  
H    -2.5321430   -2.8338550    2.8113160  
