60


C     2.7691450   -3.8048400    1.1862030  
C     4.1296920   -3.9326950    1.1309880  
C     4.6636020   -2.6516070    0.7603670  
C     3.5615200   -1.7756150    0.5999860  
N     2.3995970   -2.4993480    0.8661650  
C     3.7089800   -0.4386790    0.2163740  
C     4.9939480    0.0261220   -0.0045070  
O     5.2079040    1.3323970   -0.3868960  
C     6.1130800   -0.8278320    0.1632380  
O     7.3267640   -0.2125930   -0.0801230  
C     5.9622390   -2.1516650    0.5370650  
H     4.6883320   -4.8362480    1.3333180  
H     2.8609650    0.2116750    0.0569650  
H     6.1706330    1.4492040   -0.4722690  
H     8.0432430   -0.8578750    0.0112020  
H     6.8345170   -2.7920510    0.6520540  
H     2.0078300   -4.5270180    1.4444220  
C     0.6305760   -0.8971030    1.5132370  
C     1.0878860   -1.9940950    0.8458040  
C    -0.0221550   -2.5176050    0.0625990  
C    -1.1667960   -1.6196700    0.3501430  
N    -0.7205240   -0.6827080    1.2702190  
C    -2.4145350   -1.7366260   -0.2020770  
C    -2.5611100   -2.7866490   -1.2418450  
O    -3.5378450   -2.8690760   -1.9645940  
C    -1.3917550   -3.8146260   -1.4616080  
O    -1.5842890   -4.7642290   -2.2040150  
C    -0.1216740   -3.5777910   -0.7806590  
H     0.7023880   -4.2559920   -0.9769000  
H     1.1763010   -0.2405810    2.1776340  
H    -1.1406130    0.2467310    1.2444700  
C    -2.8099310    2.6693580    0.1978920  
C    -4.1700300    2.7918540    0.3755690  
C    -4.6959500    1.4604510    0.3715510  
C    -3.4944750    0.5770190    0.1591880  
N    -2.4081270    1.2933020    0.0632050  
C    -3.5724810   -0.8685150    0.0982520  
C    -4.8259720   -1.3809580    0.3125170  
O    -5.0899220   -2.6779420    0.3962650  
C    -6.0633450   -0.5171310    0.5136810  
O    -7.1236080   -1.1245520    0.6783930  
C    -5.9385030    0.9297740    0.5220800  
H    -4.7401040    3.7042240    0.4816680  
H    -6.0679430   -2.7353430    0.5224320  
H    -6.8384000    1.5165030    0.6739800  
C    -1.7779220    4.9697800    0.5746800  
C    -1.7719240    3.6512190    0.1658480  
C    -0.3772850    3.4241870   -0.2530430  
C     0.3073470    4.7160160    0.0237310  
N    -0.5384740    5.6111080    0.4952010  
C     1.7141830    4.8854540   -0.1788450  
C     2.4200550    3.8265440   -0.6659160  
O     3.7418940    3.8285380   -0.8266190  
C     1.7158420    2.5667070   -1.1140100  
O     2.3706720    1.7051250   -1.6888660  
C     0.2752170    2.4001760   -0.8313130  
H     2.1953180    5.8177430    0.0951900  
H     4.0369010    2.9137640   -1.0511880  
H    -0.1911860    1.4597660   -1.0989700  
H    -2.6228820    5.5219360    0.9710930  
