60


C    -2.4591540   -3.0097010   -2.8041570  
C    -3.3560970   -3.9824330   -2.4570260  
C    -4.1655360   -3.4483320   -1.3979100  
C    -3.6920250   -2.1391710   -1.1294270  
N    -2.6368000   -1.9045340   -1.9861830  
C    -4.2795740   -1.2870100   -0.1583890  
C    -5.4123020   -1.8023020    0.4933460  
O    -6.0774290   -1.0457880    1.4183810  
C    -5.8838980   -3.1121630    0.2401640  
O    -6.9863510   -3.4500180    0.9979240  
C    -5.2711100   -3.9414820   -0.6797670  
H    -3.4416670   -4.9620790   -2.9061430  
H    -2.2546030   -0.9878390   -2.1669140  
H    -6.8068490   -1.5898830    1.7673790  
H    -7.2673980   -4.3541520    0.7935800  
H    -5.6523220   -4.9444100   -0.8584480  
H    -1.6934180   -3.0049260   -3.5669690  
C    -3.7319790    0.0266900    0.1410180  
C    -2.4436110    0.4968780   -0.0498200  
C    -2.3858810    1.8561070    0.3860780  
C    -3.7518460    2.1876030    0.8436840  
N    -4.5060030    1.0446060    0.6812390  
C    -4.1498450    3.4059890    1.2930750  
C    -3.1682610    4.4821400    1.3178670  
O    -3.4463980    5.6283850    1.6342950  
C    -1.6812660    4.1433550    0.9403320  
O    -0.8341430    4.9858740    1.1683690  
C    -1.3637460    2.7927710    0.4011150  
H    -1.6073680   -0.0824230   -0.4025410  
H    -5.1681670    3.6260190    1.5984260  
H    -5.4534690    0.9063480    1.0013100  
C    -0.0180960    2.4915580   -0.0342250  
C     0.6783740    1.3086760    0.0939800  
C     1.9700440    1.5381310   -0.4983770  
C     1.8952630    2.9486550   -0.9813030  
N     0.7498620    3.5018780   -0.7097520  
C     2.9997530    3.5812380   -1.6566340  
C     4.1332750    2.8610640   -1.8048340  
O     5.2477810    3.3219020   -2.3949670  
C     4.2513610    1.4382320   -1.3182760  
O     5.3217450    0.8699590   -1.5419090  
C     3.1052410    0.7802840   -0.6416430  
H     0.3709830    0.4336690    0.6477960  
H     2.9113910    4.6047820   -2.0027340  
H     5.8851490    2.5741930   -2.3647090  
C     2.1939610   -1.5408400   -0.4213710  
C     3.2001460   -0.6265930   -0.2539400  
C     4.2943560   -1.3489740    0.4109120  
C     3.8166140   -2.7413630    0.6024920  
N     2.5401030   -2.7833820    0.0719380  
C     4.5249280   -3.7380750    1.1900090  
C     5.8590370   -3.4337440    1.6960230  
O     6.5747720   -4.2620620    2.2375290  
C     6.3794180   -1.9611410    1.5353640  
O     7.4828860   -1.6723830    1.9681130  
C     5.5169730   -0.9767520    0.8656310  
H     4.1445730   -4.7477160    1.3116940  
H     5.9130580    0.0231790    0.7404920  
H     1.2315420   -1.3955280   -0.8925410  
H     1.9684280   -3.6119290    0.0137830  
