60


C    -5.1977350    2.0299080   -0.0658570  
C    -4.5474560    0.8030100    0.0403040  
C    -5.5962290   -0.2065860    0.0155300  
C    -6.8293750    0.4826600   -0.0846270  
N    -6.5459640    1.8391320   -0.1411790  
C    -8.0733260   -0.1563660   -0.0981320  
C    -8.0772500   -1.5393260   -0.0072400  
O    -9.2551610   -2.2207570   -0.0251300  
C    -6.8542890   -2.2526820    0.1018770  
O    -7.0160780   -3.6204860    0.1830690  
C    -5.6304110   -1.6113940    0.1184240  
H    -7.2275560    2.5686470   -0.2865960  
H    -9.0118380    0.3823690   -0.1773520  
H    -9.0406100   -3.1689060    0.0233490  
H    -6.1508000   -4.0534610    0.1292760  
H    -4.7132660   -2.1866780    0.1716910  
H    -4.7720850    3.0187430   -0.1542230  
C    -1.4953800    3.2616620    2.1235310  
C    -2.6534840    2.6978030    1.7024370  
C    -2.3152330    1.5891170    0.8279430  
C    -0.8445260    1.5522640    0.7873380  
N    -0.4039660    2.5799140    1.5771630  
C    -0.0955700    0.6378360    0.0774520  
C    -0.8029550   -0.4253440   -0.6032880  
O    -0.2541460   -1.3545310   -1.1851100  
C    -2.3800980   -0.4151090   -0.5590310  
O    -2.9452110   -1.3324040   -1.1242410  
C    -3.1030240    0.6818070    0.1467570  
H    -3.6482010    2.9880960    2.0020880  
H    -1.3284110    4.0925970    2.7945870  
H     0.5629070    2.8523650    1.6739140  
C     2.1165040   -0.4544110    0.2286470  
C     3.4462690   -0.1890810    0.0460770  
C     3.5324890    1.2271780   -0.3217370  
C     2.1350630    1.7261050   -0.3593650  
N     1.3183070    0.6636590    0.0282760  
C     1.7725030    2.9831090   -0.7286320  
C     2.8198580    3.9321870   -1.0971680  
O     2.5850740    5.0821770   -1.4355290  
C     4.3049370    3.4339660   -1.0492870  
O     5.2008780    4.2086420   -1.3425840  
C     4.5635190    2.0425640   -0.6568580  
H     0.7410730    3.3069280   -0.8086800  
H     5.5965270    1.7187140   -0.6377600  
H     1.6554370   -1.3841890    0.5236730  
C     3.7002920   -4.4796460   -1.1108070  
C     3.2556340   -3.2044400   -0.9929050  
C     4.3161410   -2.4983040   -0.2771300  
C     5.3531070   -3.5409600   -0.0529050  
N     4.9901600   -4.6972370   -0.5354470  
C     6.5986870   -3.2482550    0.6114900  
C     6.8062420   -1.9791030    1.0273250  
O     7.9247860   -1.5611520    1.6487320  
C     5.7772330   -0.9025450    0.8326100  
O     6.0449940    0.2130970    1.2765660  
C     4.4816610   -1.2119350    0.1490140  
H     2.3284380   -2.7877910   -1.3618370  
H     7.3347970   -4.0313800    0.7553170  
H     7.7779200   -0.6102260    1.8420680  
H     3.2020280   -5.3149410   -1.5880930  
