64


C    -1.0560610    0.9525120    1.3008830  
C    -2.2776310    0.4377640    0.9445660  
C    -2.7026550    1.1213140   -0.2497610  
C    -1.6751480    2.0422150   -0.5727940  
N    -0.6802090    1.9368700    0.3951390  
C    -1.7417980    2.8751200   -1.7022150  
C    -2.8741640    2.7815770   -2.5000320  
O    -2.9843480    3.5601380   -3.6120100  
C    -3.9184860    1.8750390   -2.1747680  
O    -4.9785050    1.9081080   -3.0576420  
C    -3.8441130    1.0475280   -1.0698470  
H    -0.9327490    3.5365320   -1.9940040  
H    -3.8200330    3.3210670   -4.0497500  
H    -5.5893820    1.1825270   -2.8595860  
H    -4.6458360    0.3497410   -0.8426190  
H    -0.4216260    0.7138060    2.1413860  
C     3.6407300    0.8763160    0.5600370  
C     2.2666020    0.8229390    0.4407110  
C     1.7731010    2.1636320    0.5422290  
C     2.8959630    3.0135240    0.7164290  
N     4.0154610    2.2045500    0.7585350  
C     2.7935290    4.4054590    0.8019190  
C     1.5216010    4.9539770    0.7303770  
O     1.3569230    6.3031700    0.8071720  
C     0.3720340    4.1295400    0.5998320  
O    -0.8182680    4.8203600    0.6154530  
C     0.4851350    2.7447450    0.5061970  
H     1.6760640   -0.0766670    0.3475390  
H     4.9596310    2.5393250    0.6374490  
H     3.6542580    5.0563290    0.9140710  
H     0.4029200    6.4769420    0.7138200  
H    -1.5210960    4.2921530    0.1980340  
C    -3.3503730   -0.4426170    3.0082300  
C    -4.0344680   -1.5625870    3.3937160  
C    -4.1306310   -2.4158640    2.2428940  
C    -3.4725370   -1.7506610    1.1760270  
N    -3.0012500   -0.5345300    1.6633740  
C    -3.3479790   -2.3128190   -0.1016030  
C    -3.9185560   -3.5590930   -0.3110510  
O    -3.8339040   -4.1478070   -1.5413000  
C    -4.5924020   -4.2334100    0.7407540  
O    -5.1119240   -5.4632330    0.3758450  
C    -4.7005580   -3.6820920    2.0041280  
H    -4.4321100   -1.7549310    4.3810110  
H    -2.8225090   -1.8188080   -0.9109830  
H    -4.2478770   -5.0248150   -1.4678950  
H    -5.4708520   -5.9047060    1.1595150  
H    -5.2159410   -4.2210200    2.7971890  
H    -3.0851070    0.4462740    3.5626990  
C     5.8190690   -0.1955000    1.2408640  
C     4.6332050   -0.1818240    0.5606970  
C     4.5712210   -1.4437820   -0.1794270  
C     5.8180430   -2.1812270    0.1436190  
N     6.5356110   -1.3603560    0.9894610  
C     6.1329410   -3.4115430   -0.3366150  
C     5.1983090   -4.0606190   -1.2492910  
O     5.3890690   -5.1691930   -1.7259710  
C     3.8897320   -3.2808350   -1.6384230  
O     3.1075730   -3.7897880   -2.4238320  
C     3.6572740   -1.9588260   -1.0393640  
H     7.0503820   -3.9338010   -0.0829180  
H     2.7533970   -1.4304220   -1.3228850  
H     6.2190250    0.5440390    1.9220320  
H     7.4036650   -1.6127760    1.4351130  
