60


C    -2.4385840   -2.5105120    0.5853410  
C    -3.2385320   -1.4277970    0.2539250  
C    -4.6113130   -1.8909010    0.3343990  
C    -4.5613980   -3.2557970    0.7075350  
N    -3.2251420   -3.5957220    0.8513750  
C    -5.7049050   -4.0386370    0.8974890  
C    -6.9347440   -3.4262060    0.7140660  
O    -8.0796400   -4.1402550    0.8852980  
C    -7.0095930   -2.0511370    0.3620290  
O    -8.2991200   -1.5829940    0.2367840  
C    -5.8738040   -1.2834440    0.1749700  
H    -2.8827330   -4.5113420    1.1011060  
H    -5.6632010   -5.0833060    1.1874690  
H    -8.8278770   -3.5341720    0.7447980  
H    -8.2927720   -0.6250690    0.0916850  
H    -5.9670910   -0.2249640   -0.0548110  
H    -1.3607830   -2.5794760    0.6185720  
C    -2.7476560   -0.1228490   -0.1074050  
C    -1.5602310    0.4987580    0.2077090  
C    -1.5381560    1.7844050   -0.4228720  
C    -2.8198000    1.8989970   -1.1584190  
N    -3.5290390    0.7376610   -0.8915060  
C    -3.1899280    2.9604990   -1.9148610  
C    -2.2856980    4.1034770   -1.9884420  
O    -2.5455780    5.1156910   -2.6197130  
C    -0.9231980    4.0219060   -1.2138520  
O    -0.1248810    4.9351390   -1.3504770  
C    -0.6307330    2.8203250   -0.4060250  
H    -0.8049000    0.1055480    0.8713260  
H    -4.1388240    3.0201880   -2.4394260  
H    -4.2741980    0.4019030   -1.4843570  
C     2.9768640    0.1201920   -0.3346730  
C     1.7481710    0.6559570   -0.6404730  
C     1.6034880    1.8156450    0.1960900  
C     2.8732910    1.8532430    0.9889860  
N     3.6612990    0.8606320    0.6843020  
C     3.1521020    2.8967270    1.9383060  
C     2.2158490    3.8607090    2.0907410  
O     2.3285510    4.8943880    2.9324840  
C     0.9026040    3.8389800    1.3340070  
O     0.0844260    4.7009540    1.6432260  
C     0.6380870    2.7749730    0.3336270  
H     1.0281100    0.2982790   -1.3624830  
H     4.0839450    2.8985150    2.4924990  
H     1.4834380    5.3917540    2.8419420  
C     3.2166050   -1.7330960   -2.0101180  
C     3.6364740   -1.0261930   -0.9097030  
C     4.8772290   -1.6721400   -0.4612490  
C     5.1147780   -2.8041340   -1.3883570  
N     4.0659100   -2.7809690   -2.2937480  
C     6.1626950   -3.6623920   -1.3229620  
C     7.1413980   -3.4729370   -0.2557010  
O     8.1154780   -4.1946780   -0.1084140  
C     6.9119660   -2.2818190    0.7439530  
O     7.7140050   -2.1086680    1.6466900  
C     5.7355230   -1.4186450    0.5584070  
H     6.3099590   -4.4821000   -2.0196040  
H     5.5832140   -0.5887550    1.2376710  
H     2.3532130   -1.5547490   -2.6373570  
H     3.9802810   -3.3970440   -3.0878220  
