62


C    -3.3047780    0.9586190   -1.9452410  
C    -4.6060580    1.3785920   -1.8989340  
C    -5.2008020    0.7877000   -0.7335460  
C    -4.1917050    0.0145600   -0.1012210  
N    -3.0312610    0.1285560   -0.8610210  
C    -4.4160690   -0.6918460    1.0918170  
C    -5.6889470   -0.6289280    1.6425100  
O    -5.9592660   -1.2957130    2.8006500  
C    -6.7123800    0.1294530    1.0158630  
O    -7.9220030    0.0905090    1.6823790  
C    -6.4815270    0.8368610   -0.1502270  
H    -5.0901830    2.0258460   -2.6176080  
H    -3.6336570   -1.2361640    1.6103810  
H    -6.8870600   -1.1135630    3.0294250  
H    -8.5632040    0.6537050    1.2244050  
H    -7.2795750    1.4202960   -0.6055780  
H    -2.5288240    1.1488980   -2.6725760  
C     1.0980430    1.6637930   -0.2330090  
C    -0.2785030    1.5568910   -0.4324120  
C    -0.5924960    0.1703800   -0.4765250  
C     0.6262430   -0.5444470   -0.3079560  
N     1.6281360    0.3836910   -0.1888840  
C     0.7010160   -1.9567460   -0.3027890  
C    -0.5232420   -2.6259820   -0.4045720  
O    -0.5697430   -3.9800190   -0.3286340  
C    -1.7519100   -1.9313870   -0.5875940  
O    -2.8407780   -2.7598140   -0.7378540  
C    -1.8002880   -0.5464490   -0.6399940  
H    -0.9972590    2.3630290   -0.4298750  
H     2.5451790    0.2099940    0.2097360  
H    -1.5060800   -4.2353620   -0.4169520  
H    -3.6627530   -2.2715690   -0.5566650  
C     0.4668790    5.8600350   -1.3658360  
C     1.5873140    6.4081660   -0.8274990  
C     2.3483410    5.3337850   -0.2277760  
C     1.5633050    4.1049010   -0.4473870  
N     0.4134320    4.4939060   -1.1108870  
C     1.9336530    2.8365470   -0.0607300  
C     3.2810290    2.7347920    0.5443770  
O     3.8189000    1.6679300    0.8104630  
C     4.0910260    4.0495400    0.8670900  
O     5.1511030    3.9299730    1.4647360  
C     3.5475710    5.3199030    0.4246270  
H     1.8648240    7.4520970   -0.8437230  
H     4.1222600    6.2195260    0.6196920  
H    -0.3373400    6.3348520   -1.9122820  
H    -0.1825690    3.8395080   -1.5968610  
C     4.0863300   -1.6685970    2.5175420  
C     4.8970960   -2.6669270    2.1016250  
C     4.2219460   -3.2522360    0.9487480  
C     2.9550280   -2.4562360    0.8217870  
N     2.8883590   -1.5370100    1.7401770  
C     1.9712260   -2.7121410   -0.2200230  
C     2.3043250   -3.6878500   -1.1163390  
O     1.5595100   -4.0125010   -2.1807030  
C     3.5669490   -4.5010970   -1.0095200  
O     3.7605250   -5.3610230   -1.8686120  
C     4.5187510   -4.2387730    0.0828400  
H     5.8508160   -2.9705590    2.5099640  
H     2.0464030   -4.7452830   -2.6205660  
H     5.4182810   -4.8456210    0.1186980  
H     4.2399040   -0.9776370    3.3371200  
