62


C     4.3367500   -0.9774210   -1.9293510  
C     4.6134330   -2.2666870   -2.2806190  
C     3.7483120   -3.1235660   -1.5122850  
C     2.9569720   -2.2924240   -0.6829820  
N     3.3471470   -0.9822220   -0.9423100  
C     1.9771270   -2.7850330    0.1845950  
C     1.7959280   -4.1597960    0.2124150  
O     0.8404330   -4.7058740    1.0261040  
C     2.5836030   -5.0157480   -0.6007190  
O     2.2801870   -6.3547320   -0.4529690  
C     3.5528620   -4.5169080   -1.4520060  
H     5.3539090   -2.5783140   -3.0044420  
H     1.3899080   -2.1440530    0.8336080  
H     0.9197480   -5.6734030    0.9513530  
H     2.9069690   -6.8905310   -0.9613220  
H     4.1432640   -5.1902010   -2.0699130  
H     4.7518720   -0.0380820   -2.2643090  
C     1.5384850    0.6673060   -0.9590830  
C     1.2437660    1.8636820   -0.3838470  
C     2.3393470    2.1557840    0.5491230  
C     3.2777330    1.0115820    0.4822080  
N     2.7262210    0.1301610   -0.4435500  
C     4.4283460    0.8979630    1.1879690  
C     4.7711780    1.9748360    2.1137490  
O     5.7803730    1.9680390    2.8012820  
C     3.7805290    3.1906480    2.2272200  
O     4.0351170    4.0891750    3.0119140  
C     2.5767640    3.1973980    1.3832060  
H     5.0958180    0.0472570    1.1025710  
H     1.9231780    4.0600570    1.4436400  
H     1.0028020    0.1169440   -1.7204850  
C    -3.0725700    0.7937470   -0.2423420  
C    -1.6949870    0.8208940   -0.1291680  
C    -1.2265500    2.0976150   -0.5805350  
C    -2.4357780    2.8552790   -0.9773640  
N    -3.5013200    2.0043160   -0.7912290  
C    -2.4311640    4.1392330   -1.4199860  
C    -1.1544010    4.8347390   -1.4961400  
O    -1.0443600    5.9962430   -1.8588530  
C     0.1498060    4.0523660   -1.0899110  
O     1.2213150    4.6365490   -1.1587740  
C     0.0326560    2.6488540   -0.6571050  
H    -1.0767340    0.0777410    0.3469600  
H    -3.3301260    4.6760360   -1.7061400  
H    -4.4770760    2.2604070   -0.8390490  
C    -2.4290180   -3.5069050    0.6370610  
C    -3.7141950   -3.8027920    0.9999200  
C    -4.4833470   -2.6013560    0.8440680  
C    -3.5969730   -1.5879140    0.3912930  
N    -2.3527550   -2.1693140    0.2845630  
C    -4.0124350   -0.2528920    0.1309710  
C    -5.3893850   -0.0104020    0.2988020  
O    -5.9152120    1.2322900    0.0610270  
C    -6.2765580   -1.0168260    0.7431970  
O    -7.5831570   -0.5818470    0.8599070  
C    -5.8432380   -2.2969940    1.0286280  
H    -4.0769330   -4.7614080    1.3436300  
H    -1.5607300   -1.7493850   -0.1747190  
H    -6.8654980    1.1880030    0.2729950  
H    -8.1305110   -1.2792940    1.2496010  
H    -6.5440400   -3.0533530    1.3752750  
H    -1.5364060   -4.1173430    0.6254220  
