66


C    -3.2368070   -1.6060930   -0.6581700  
C    -4.2149980   -0.6883290   -0.3341060  
C    -3.5313260    0.5812080   -0.1732400  
C    -2.1551960    0.3559110   -0.4266400  
N    -2.0108090   -0.9827580   -0.7272610  
C    -1.1569870    1.3509980   -0.3316650  
C    -1.6097220    2.6146030    0.0537170  
O    -0.7287160    3.6555570    0.1641640  
C    -2.9813100    2.8569120    0.3290560  
O    -3.2465710    4.1635140    0.7026520  
C    -3.9441920    1.8728670    0.2194110  
H    -1.1181670   -1.4324070   -0.8648730  
H    -1.2533660    4.4431030    0.3915080  
H    -4.2033230    4.2813590    0.7973230  
H    -4.9855790    2.0857980    0.4466500  
H    -3.3363320   -2.6607480   -0.8717560  
C    -6.5049380   -3.8434080    1.9157500  
C    -5.5120530   -3.0563330    1.3936620  
C    -6.1449740   -2.0541010    0.5808490  
C    -7.5436340   -2.2862000    0.6568470  
N    -7.7326670   -3.3843300    1.4725250  
C    -8.4863620   -1.4836740    0.0020830  
C    -7.9986890   -0.4262760   -0.7482230  
O    -8.8647480    0.3872490   -1.4254020  
C    -6.6057760   -0.1777550   -0.8400280  
O    -6.2889490    0.8995170   -1.6501100  
C    -5.6565670   -0.9662450   -0.1910060  
H    -4.4527250   -3.1654830    1.5765140  
H    -8.6265510   -3.7817390    1.7135810  
H    -9.5558530   -1.6598370    0.0568740  
H    -8.3193310    1.0239160   -1.9193500  
H    -5.3233050    0.9354570   -1.7563770  
H    -6.4446350   -4.6990200    2.5736820  
C     0.7027790    0.3514590   -1.7379490  
C     0.2537280    1.0482350   -0.6317980  
C     1.4299230    1.3570380    0.1511590  
C     2.5471830    0.8284560   -0.5388650  
N     2.0745850    0.2348020   -1.6920550  
C     3.8776340    0.8971980   -0.0676190  
C     4.0389300    1.5276390    1.1669010  
O     5.2862960    1.6615460    1.7135790  
C     2.9288250    2.0576180    1.8762090  
O     3.2756290    2.6513120    3.0800030  
C     1.6383910    1.9880070    1.3923950  
H     2.6549450   -0.2789660   -2.3374600  
H     5.1782390    2.1861570    2.5263400  
H     2.5062840    3.1208040    3.4345040  
H     0.8099400    2.4194190    1.9460970  
H     0.1455600   -0.0177030   -2.5882040  
C     5.2098780    0.5599880   -2.1991540  
C     4.9969410    0.3443560   -0.8519350  
C     6.0485470   -0.5492990   -0.4180420  
C     6.8563200   -0.8329000   -1.5478460  
N     6.3194460   -0.1465430   -2.6194190  
C     7.9675540   -1.6847300   -1.4929470  
C     8.2681820   -2.2613900   -0.2696810  
O     9.3432180   -3.0957850   -0.1533560  
C     7.4670260   -1.9918040    0.8720160  
O     7.8934320   -2.6413190    2.0177500  
C     6.3706190   -1.1543530    0.8125810  
H     6.7175360   -0.1070530   -3.5442770  
H     8.5883280   -1.9010220   -2.3565760  
H     9.3865970   -3.3747630    0.7775510  
H     7.3470270   -2.3580550    2.7655940  
H     5.7833250   -0.9449920    1.7019350  
H     4.6772050    1.2072350   -2.8824050  
