60


C    -2.2049140    2.0073950   -0.7662030  
C    -3.1210000    2.9628790   -1.0814500  
C    -4.4295870    2.3811810   -0.9255200  
C    -4.2492390    1.0431220   -0.5022050  
N    -2.8646600    0.8247580   -0.3973660  
C    -5.3232880    0.1659930   -0.3097990  
C    -6.6033110    0.6677550   -0.5070320  
O    -7.6779080   -0.1468780   -0.3230260  
C    -6.8019160    2.0148880   -0.9048830  
O    -8.1268590    2.3613250   -1.0564260  
C    -5.7339340    2.8675210   -1.1226780  
H    -2.8970090    3.9783370   -1.3783970  
H    -5.2031100   -0.8786730   -0.0493600  
H    -8.4763440    0.3687930   -0.5312010  
H    -8.1947320    3.2730430   -1.3769320  
H    -5.9031360    3.8918620   -1.4475910  
H    -1.1276600    2.0487230   -0.7051640  
C    -2.2059290   -0.3218680   -0.0035650  
C    -0.9715850   -0.7771100   -0.3833660  
C    -0.6893490   -1.9592690    0.3891300  
C    -1.8770340   -2.1821850    1.2456260  
N    -2.7897730   -1.1797580    0.9281700  
C    -2.0192320   -3.1890190    2.1394710  
C    -0.9249980   -4.1457680    2.2711920  
O    -0.9711190   -5.1086660    3.0196800  
C     0.3697720   -3.9106240    1.4158980  
O     1.3467840   -4.5993020    1.6508920  
C     0.3883220   -2.8105830    0.4192000  
H    -0.3644210   -0.3618330   -1.1723750  
H    -2.9126730   -3.3377880    2.7379940  
H    -3.5281470   -0.8870180    1.5525140  
C     3.1912030    0.5780880   -0.2334300  
C     4.0703370   -0.0569070   -1.0814270  
C     3.5882290   -1.3927570   -1.2981280  
C     2.3442790   -1.5235600   -0.5057600  
N     2.1584120   -0.3046610    0.1085200  
C     1.5899600   -2.6615080   -0.4146220  
C     2.0277130   -3.8086120   -1.2448110  
O     1.3542010   -4.8141810   -1.3807830  
C     3.3774120   -3.7030810   -2.0413670  
O     3.7790240   -4.6823970   -2.6515450  
C     4.0903640   -2.4292100   -2.0286770  
H     4.9631260    0.3856880   -1.4915930  
H     5.0145150   -2.3548640   -2.5935110  
H     1.3942640   -0.0696940    0.7238190  
C     6.2857850    3.6994280   -0.5959180  
C     5.7373410    4.7153110    0.1052240  
C     4.4497590    4.2097450    0.5665220  
C     4.3870700    2.8116770    0.0293490  
N     5.4600020    2.5277640   -0.6434900  
C     3.2325460    1.9372050    0.2768750  
C     2.2240850    2.5029090    1.0146230  
O     1.0690230    1.8730390    1.3252210  
C     2.2720850    3.8945610    1.5561380  
O     1.2967370    4.2794770    2.2061530  
C     3.4496870    4.7349660    1.2987680  
H     6.1460850    5.6975990    0.2962660  
H     0.5688080    2.5244490    1.8729450  
H     3.4484130    5.7389540    1.7119300  
H     7.2412990    3.6709910   -1.1045750  
