62


C    -5.3613580    0.0375590    3.1073590  
C    -4.5514470    0.4143340    2.0673080  
C    -4.6593480   -0.5965340    1.0502980  
C    -5.5752590   -1.5662860    1.5400590  
N    -5.9713930   -1.1629690    2.7994480  
C    -5.9759740   -2.6827680    0.7999630  
C    -5.4570770   -2.8045720   -0.4791900  
O    -5.8170430   -3.8530070   -1.2680310  
C    -4.5459560   -1.8494150   -1.0045350  
O    -4.1181860   -2.1408660   -2.2801130  
C    -4.0985640   -0.7568210   -0.2534620  
H    -3.9523440    1.3121790    2.0321820  
H    -6.6554340   -1.6344160    3.3697680  
H    -6.6804200   -3.4191990    1.1732170  
H    -5.3659330   -3.7002750   -2.1211610  
H    -4.1374300   -1.2939170   -2.7839550  
H    -5.5559450    0.5274310    4.0510370  
C    -0.3320090    0.7870510    1.5007200  
C    -1.4651510    0.0908740    1.2309400  
C    -1.9847290    0.5751120   -0.0279950  
C    -1.0401080    1.6240820   -0.4799950  
N    -0.0474360    1.7135050    0.4904110  
C    -1.1610870    2.3409410   -1.6261970  
C    -2.2823840    2.0285600   -2.4916730  
O    -2.5302570    2.6246490   -3.5286900  
C    -3.2142130    0.8235040   -2.0929680  
O    -4.0015160    0.4355580   -2.9549540  
C    -3.0916440    0.2037010   -0.7613420  
H    -1.9048200   -0.6804220    1.8432160  
H    -0.4861510    3.1413060   -1.9062260  
H     0.3360950    0.7191520    2.3492230  
C     4.2008750    0.8877120   -0.1331040  
C     4.6338860    2.1930560    0.0257610  
C     3.4905250    3.0073970    0.2859960  
C     2.3645810    2.1429240    0.2792550  
N     2.8160710    0.8596250    0.0612230  
C     1.0562240    2.6071850    0.4877320  
C     0.8831660    3.9737770    0.7102500  
O    -0.3618560    4.4696410    0.9209850  
C     2.0058890    4.8463230    0.7180080  
O     1.6665810    6.1614410    0.9528100  
C     3.2927360    4.3844730    0.5201680  
H     5.6664270    2.5131400    0.0039780  
H     2.2224760    0.1042230   -0.2497980  
H    -0.2764470    5.4334590    1.0311280  
H     2.4585260    6.7183560    0.9181470  
H     4.1332940    5.0744830    0.5336240  
C     6.1418280   -0.4292530   -1.0828310  
C     4.9469560   -0.3087340   -0.4302440  
C     4.6012710   -1.7004980   -0.0545170  
C     5.7270730   -2.5122820   -0.5955510  
N     6.6187080   -1.7575310   -1.1817010  
C     5.7714430   -3.9399080   -0.4364670  
C     4.7655730   -4.5376780    0.2493480  
O     4.6861470   -5.8611100    0.4699830  
C     3.6381560   -3.7453100    0.8370750  
O     2.7632830   -4.3475340    1.4575320  
C     3.6117160   -2.2753230    0.6538960  
H     6.5988830   -4.5044290   -0.8518700  
H     3.8642850   -5.9928170    0.9906140  
H     2.7879860   -1.7432440    1.1199830  
H     6.7245420    0.3672920   -1.5293590  
