62


C     5.5837490   -0.8503480    2.0531430  
C     4.8989360   -0.3475590    0.9659360  
C     5.8839240    0.3519210    0.1614340  
C     7.1345030    0.2224930    0.8198100  
N     6.9170300   -0.5138520    1.9669940  
C     8.3134240    0.7976390    0.3299180  
C     8.2301480    1.5246340   -0.8471380  
O     9.3489070    2.1034210   -1.3702380  
C     6.9851310    1.6796520   -1.5137700  
O     7.0619240    2.4391500   -2.6651310  
C     5.8223540    1.1115470   -1.0279830  
H     7.6252210   -0.7716940    2.6364610  
H     9.2697330    0.7006070    0.8337520  
H     9.0785250    2.5754380   -2.1768030  
H     6.1776730    2.5355350   -3.0489380  
H     4.8799870    1.2541410   -1.5507640  
H     5.2135970   -1.4464630    2.8748350  
C     1.2557480    0.3368400    3.4949730  
C     2.5420190    0.2477500    3.0333550  
C     2.4720790   -0.2575330    1.6906540  
C     1.0987990   -0.4690630    1.4019820  
N     0.3812580   -0.1340900    2.5325780  
C     0.6331760   -0.9736510    0.1643870  
C     1.6242180   -1.1583970   -0.8123340  
O     1.2801770   -1.5516100   -2.0694860  
C     2.9955370   -0.9411420   -0.5373070  
O     3.8193230   -1.2218490   -1.6146790  
C     3.4590780   -0.5140750    0.7035490  
H     3.4369070    0.5197850    3.5742050  
H    -0.5900140    0.1456440    2.4594680  
H     2.1132920   -1.7040150   -2.5505670  
H     4.7441880   -1.2036550   -1.3162970  
H     0.8802620    0.6936690    4.4440110  
C    -3.1569100    1.1781370    0.7938040  
C    -4.0821330    0.3845820    0.1662470  
C    -3.2991330   -0.7905860   -0.2679120  
C    -1.8963940   -0.4804860    0.1568330  
N    -1.8537860    0.6604220    0.8070610  
C    -0.7688000   -1.3511510   -0.1196970  
C    -1.0974150   -2.5582490   -0.6866150  
O    -0.2160150   -3.5358240   -0.9190000  
C    -2.4893230   -2.9063630   -1.1081650  
O    -2.6763890   -4.0092450   -1.6241590  
C    -3.5906980   -1.9499660   -0.8823860  
H    -0.7353990   -4.2574800   -1.3398410  
H    -4.5847330   -2.2566710   -1.1812820  
H    -3.3506460    2.1178990    1.2970880  
C    -6.3154640    4.1559820   -0.6385800  
C    -5.3000700    3.2673660   -0.4991180  
C    -5.9455410    1.9851130   -0.2386370  
C    -7.3962350    2.3056250   -0.2735650  
N    -7.6098980    3.5738130   -0.4980920  
C    -8.4068060    1.2954050   -0.0872490  
C    -7.9944900    0.0227250    0.1053810  
O    -8.8265550   -1.0220920    0.2729480  
C    -6.5387050   -0.3412850    0.1459820  
O    -6.2688920   -1.5278140    0.3293660  
C    -5.4865560    0.7173260   -0.0088260  
H    -4.2399560    3.4527330   -0.5929660  
H    -9.4567590    1.5647210   -0.1169710  
H    -8.2461190   -1.8032720    0.3981600  
H    -6.2467350    5.2166240   -0.8489410  
