60


C    -3.5363530   -2.3685980    2.8996940  
C    -4.3616100   -3.3155060    2.3521130  
C    -4.9162090   -2.7490140    1.1554310  
C    -4.3810040   -1.4406790    1.0261400  
N    -3.5531000   -1.2345390    2.1095180  
C    -4.7373910   -0.5572160   -0.0199200  
C    -5.6421500   -1.0594290   -0.9634510  
O    -5.9767580   -0.3021380   -2.0420240  
C    -6.1750080   -2.3681020   -0.8510630  
O    -7.0417160   -2.7042690   -1.8762470  
C    -5.8315750   -3.2097950    0.1890370  
H    -4.5585420   -4.2993360    2.7554750  
H    -2.9944730   -0.4090260    2.2582480  
H    -6.6874450   -0.7698680   -2.5144000  
H    -7.4909670   -3.5338120   -1.6575220  
H    -6.2573020   -4.2093490    0.2529710  
H    -2.9312700   -2.4015660    3.7946820  
C    -0.6343940    1.2331090   -0.0490840  
C    -1.7156610    0.3782340   -0.0321270  
C    -2.9131210    1.1733300   -0.0834280  
C    -2.4688410    2.5850250   -0.1452300  
N    -1.0961290    2.5556140   -0.1031130  
C    -3.2947650    3.6606070   -0.2547850  
C    -4.7243770    3.4218150   -0.3062970  
O    -5.5555530    4.3064310   -0.4589130  
C    -5.2345170    1.9437490   -0.1390320  
O    -6.4271390    1.7622370    0.0212300  
C    -4.2442610    0.8263190   -0.1108520  
H    -1.6470610   -0.6964630   -0.0026730  
H    -2.9345410    4.6816480   -0.3331900  
H    -0.4850400    3.3548300   -0.1795730  
C     1.4585160   -2.6235700    0.2653210  
C     2.7533020   -2.2447020    0.1986130  
C     2.7245680   -0.7933640    0.0683070  
C     1.2668130   -0.4554350    0.0701780  
N     0.5424150   -1.5261690    0.1958700  
C     0.7823980    0.9255910   -0.0277810  
C     1.7683130    1.8763990   -0.1014550  
O     1.5317990    3.2024340   -0.2099800  
C     3.2256950    1.5636580   -0.1053420  
O     3.9958900    2.5165100   -0.2434220  
C     3.6906730    0.1565030    0.0249610  
H     3.6354480   -2.8661280    0.2144620  
H     2.4282870    3.6102350   -0.2740590  
H     1.0528820   -3.6229390    0.3616190  
C     6.2812760   -2.2948710   -2.5670840  
C     7.5072330   -2.0667630   -2.0450890  
C     7.2803120   -1.1676480   -0.9178950  
C     5.7951560   -0.9553330   -0.9159440  
N     5.2219560   -1.6134560   -1.8779050  
C     5.1446840   -0.0936360    0.0599040  
C     5.9563580    0.4917450    0.9853510  
O     5.5107550    1.2677250    1.9778750  
C     7.4516720    0.2868350    1.0037350  
O     8.0848230    0.8635250    1.8843250  
C     8.0798990   -0.5768210   -0.0091650  
H     8.4607650   -2.4534730   -2.3764540  
H     6.3132290    1.5546650    2.4699830  
H     9.1585710   -0.6923230    0.0332350  
H     6.0208800   -2.9115050   -3.4187380  
