60


C    -4.1172330   -0.9962280    1.7928970  
C    -4.9187450   -2.0892810    1.9091870  
C    -5.9859390   -1.9461730    0.9536030  
C    -5.7923950   -0.7138280    0.2844050  
N    -4.6312310   -0.1250090    0.8198700  
C    -6.6184820   -0.3039270   -0.7666310  
C    -7.6775250   -1.1295960   -1.1156240  
O    -8.5144900   -0.7594970   -2.1279530  
C    -7.8993310   -2.3526720   -0.4350990  
O    -8.9906930   -3.0621830   -0.8934700  
C    -7.0652500   -2.7683900    0.5881410  
H    -4.7791420   -2.9033450    2.6074460  
H    -6.4845630    0.6281500   -1.2990750  
H    -9.1864470   -1.4567930   -2.2176470  
H    -9.0877470   -3.8769270   -0.3786930  
H    -7.2346400   -3.7203670    1.0871890  
H    -3.2339920   -0.7104130    2.3432650  
C    -0.4045920    0.9930560    0.0799290  
C    -1.5327740    0.2471930    0.3433780  
C    -2.6362550    1.1726250    0.2967090  
C    -2.0071270    2.4805510   -0.0116140  
N    -0.7175830    2.3794130   -0.1418180  
C    -2.7786860    3.6900230   -0.1679300  
C    -4.1184870    3.6013950   -0.0227550  
O    -4.9633850    4.6408630   -0.1448160  
C    -4.8023820    2.3048590    0.3143060  
O    -6.0147750    2.3455760    0.5085750  
C    -3.9928060    1.0551670    0.4375600  
H    -1.5658530   -0.8140100    0.5238240  
H    -2.2809750    4.6252820   -0.3978280  
H    -5.8533930    4.2799150    0.0599830  
C     1.2811680   -2.9908250    0.7526690  
C     2.5963980   -2.7935440    0.4938170  
C     2.7090580   -1.3887660    0.1359170  
C     1.3182570   -0.8665580    0.2466190  
N     0.4953500   -1.8163130    0.5999310  
C     0.9671930    0.5370890   -0.0044360  
C     2.0388960    1.3525640   -0.3069020  
O     1.9623670    2.6645790   -0.5444600  
C     3.4456050    0.8429810   -0.4136250  
O     4.3123620    1.6770210   -0.6892670  
C     3.7662440   -0.6006990   -0.2207890  
H     3.4022470   -3.5083370    0.5713110  
H     2.8882680    2.9409570   -0.7351150  
H     0.7894790   -3.9052470    1.0618560  
C     5.4113820   -2.3125280   -1.0338020  
C     5.1066950   -1.0958960   -0.4727740  
C     6.4322690   -0.4952780   -0.1993780  
C     7.3988350   -1.5375460   -0.6596140  
N     6.7841260   -2.5830760   -1.1545160  
C     8.8203180   -1.3689520   -0.5506060  
C     9.2789730   -0.2216820    0.0062960  
O    10.5739280    0.0714220    0.1759540  
C     8.3337210    0.8440500    0.4959020  
O     8.8235470    1.8520080    0.9981840  
C     6.8739980    0.6468680    0.3605160  
H     9.4852530   -2.1495450   -0.9026620  
H    10.5919120    0.9567710    0.6027810  
H     6.2351570    1.4512700    0.7024010  
H     4.7028980   -3.0370950   -1.4169300  
