60


C    -4.5435750   -0.3846550   -2.7648180  
C    -3.3889660   -0.6746280   -2.0794350  
C    -3.7418860   -1.5347430   -0.9832690  
C    -5.1441200   -1.7401950   -1.0710310  
N    -5.6070310   -1.0114180   -2.1492040  
C    -5.8517540   -2.5780540   -0.2048760  
C    -5.1145510   -3.2510350    0.7570470  
O    -5.7341040   -4.0940740    1.6223180  
C    -3.7072440   -3.0861430    0.8667180  
O    -3.1584680   -3.8100370    1.8931620  
C    -2.9931540   -2.2039430    0.0402040  
H    -2.4018280   -0.3258870   -2.3435350  
H    -6.5534660   -1.0312300   -2.4956180  
H    -6.9227540   -2.7373910   -0.2773700  
H    -5.0218150   -4.4803370    2.1685810  
H    -2.3037460   -4.1802320    1.5644620  
H    -4.6937770    0.2133070   -3.6526970  
C    -0.6621180    1.5738690    0.2361410  
C    -1.6396240    0.5979240    0.2292760  
C    -1.0034320   -0.6772830    0.1853830  
C     0.4474110   -0.4099900    0.1682120  
N     0.5910420    0.9454200    0.1773520  
C     1.4418050   -1.3744870    0.1307480  
C     0.9638790   -2.7507350    0.2798130  
O     1.6964460   -3.7299390    0.3661690  
C    -0.5811650   -3.0387940    0.3753250  
O    -0.8842390   -4.2079160    0.6160320  
C    -1.5476970   -1.9562560    0.1947600  
H    -2.7010650    0.7509840    0.3154440  
H     1.4385540    1.4634800    0.3832610  
C     2.8527140   -1.0831520   -0.0303680  
C     3.4929650    0.0822800   -0.4150550  
C     4.9044550   -0.1731250   -0.4404350  
C     5.0733680   -1.5925600   -0.0418720  
N     3.8085850   -2.0738620    0.2023860  
C     6.2719500   -2.2255690    0.0421860  
C     7.4799170   -1.4713390   -0.2756220  
O     8.6010620   -1.9565510   -0.2292570  
C     7.3246030    0.0365920   -0.6980160  
O     8.3284110    0.6808440   -0.9689260  
C     5.9801310    0.6065020   -0.7510030  
H     3.0344180    1.0099350   -0.7195180  
H     6.3762860   -3.2658890    0.3341020  
H     5.8841430    1.6481470   -1.0424570  
H     3.5374930   -3.0309260    0.3916670  
C    -4.0096000    4.4022120   -0.5714060  
C    -3.2130580    3.2929170   -0.5066700  
C    -1.9476010    3.7017990    0.0359350  
C    -2.0595610    5.1591080    0.2700430  
N    -3.3474940    5.5126180   -0.0915580  
C    -1.0722240    5.9590060    0.7477120  
C     0.2219110    5.3522730    1.0190660  
O     1.1768330    5.9697760    1.4581930  
C     0.4007910    3.8213130    0.7180810  
O     1.5328130    3.3652100    0.8219760  
C    -0.7751220    3.0112140    0.3219490  
H    -3.4866950    2.3099500   -0.8572060  
H    -1.1948210    7.0215280    0.9317330  
H    -5.0240070    4.4909650   -0.9371170  
H    -3.7093700    6.4538390   -0.0822350  
