62


C     1.7103030   -0.0511470   -0.8445350  
C     0.8273060    0.8214980   -0.2360450  
C     1.6259920    1.9445490    0.2367310  
C     2.9734900    1.6764550   -0.0953370  
N     2.9913370    0.4551840   -0.7676250  
C     4.0396840    2.5188420    0.2286640  
C     3.7320010    3.6826100    0.9162360  
O     4.7198870    4.5567820    1.2558540  
C     2.3872620    3.9763780    1.2657880  
O     2.2364220    5.1703230    1.9436990  
C     1.3441410    3.1296550    0.9434040  
H     5.0658010    2.2930790   -0.0382770  
H     4.2936440    5.3123980    1.6969220  
H     1.2939750    5.3860900    2.0089240  
H     0.3237970    3.3955660    1.1965270  
H     1.5300910   -0.9721660   -1.3780710  
C    -1.5043530   -2.8768330    0.4911040  
C    -0.5175430   -1.9511410    0.3843660  
C    -1.1434520   -0.6723800    0.1086550  
C    -2.5977510   -0.9310300    0.0851360  
N    -2.7481160   -2.2841350    0.3019260  
C    -3.5810070    0.0024050   -0.1327670  
C    -3.1237820    1.3874590   -0.2855070  
O    -3.8797080    2.3440500   -0.3197830  
C    -1.5777380    1.6816810   -0.3333940  
O    -1.2372340    2.8326040   -0.5479590  
C    -0.6080380    0.5773980   -0.1211230  
H     0.5388870   -2.1309820    0.5077860  
H    -1.4370330   -3.9365010    0.6976200  
H    -3.6390130   -2.7529660    0.3524680  
C    -6.4445320   -2.0142010    2.6478620  
C    -5.3348910   -1.4708720    2.0819130  
C    -5.7194300   -0.9544220    0.7806960  
C    -7.1663090   -1.2396640    0.6417640  
N    -7.5363770   -1.9078000    1.7954940  
C    -7.9407450   -0.8698880   -0.4119970  
C    -7.3099380   -0.1435860   -1.5026820  
O    -7.9205650    0.2777730   -2.4735310  
C    -5.7577830    0.0905600   -1.4323370  
O    -5.1918220    0.5220930   -2.4188160  
C    -5.0166320   -0.2953950   -0.1956320  
H    -4.3570670   -1.4033490    2.5344380  
H    -9.0068550   -1.0669880   -0.4684920  
H    -6.5615780   -2.4813670    3.6168570  
H    -8.4837980   -2.1594820    2.0302900  
C     4.6216750    0.1018310   -2.5656270  
C     5.7258350   -0.6806250   -2.7498670  
C     5.9138100   -1.4575500   -1.5526360  
C     4.8809400   -1.1032020   -0.6511310  
N     4.1014040   -0.1478840   -1.2956680  
C     4.7455810   -1.6631280    0.6224290  
C     5.6841770   -2.6132890    0.9962910  
O     5.6064360   -3.1981790    2.2267060  
C     6.7295770   -2.9872530    0.1101400  
O     7.5806120   -3.9460410    0.6272020  
C     6.8541520   -2.4252740   -1.1471800  
H     6.3407260   -0.7044830   -3.6391680  
H     3.9577380   -1.3759490    1.3099570  
H     6.3594910   -3.8093280    2.3023080  
H     8.2973970   -4.1155450   -0.0016940  
H     7.6637100   -2.7282130   -1.8083920  
H     4.1381220    0.8247490   -3.2061620  
