60


C     7.8929410   -1.5085280   -0.4536960  
C     6.8415250   -0.6236180   -0.3890070  
C     5.6512450   -1.3841700   -0.1486210  
C     6.0510710   -2.7404730   -0.0869670  
N     7.4180690   -2.7853480   -0.2657800  
C     5.1563750   -3.8043480    0.0991470  
C     3.8149240   -3.4958640    0.2144710  
O     2.8941690   -4.4836000    0.3880500  
C     3.3582820   -2.1488920    0.1598980  
O     2.0209880   -2.0383350    0.3007160  
C     4.2587070   -1.0586140   -0.0014570  
H     6.9295840    0.4410270   -0.5347940  
H     7.9746990   -3.6256440   -0.2777320  
H     5.4775280   -4.8402980    0.1451600  
H     2.0277810   -4.0389090    0.4436100  
H     1.7856100   -1.0604430    0.2038700  
H     8.9449070   -1.3273370   -0.6218480  
C     3.7674410    0.2918820    0.0139980  
C     4.4177800    1.5089120    0.0758200  
C     3.4077930    2.5136800    0.0787630  
C     2.1102930    1.7557170    0.0194030  
N     2.3355790    0.4769480   -0.0241450  
C     0.8238540    2.4148320   -0.0094190  
C     0.8647550    3.7776460    0.0138810  
O    -0.2159350    4.5535380    0.0013180  
C     2.1598710    4.5764130    0.0814290  
O     2.0256280    5.8057410    0.1053320  
C     3.4232790    3.8778580    0.1133750  
H     5.4768580    1.6894130    0.1564630  
H     0.1455770    5.4740190    0.0324390  
H     4.3315680    4.4698520    0.1555390  
C    -0.9374710   -0.5257340    2.7414170  
C    -2.0989320   -0.8446340    2.1282390  
C    -2.1241580   -0.0377420    0.9130290  
C    -0.8358760    0.7274980    0.9612440  
N    -0.1530910    0.4401010    2.0295830  
C    -0.4455250    1.6596850   -0.0824290  
C    -1.3305110    1.8167440   -1.1032820  
O    -1.1295800    2.6419660   -2.1412830  
C    -2.6366510    1.0749720   -1.1733280  
O    -3.3763060    1.3391830   -2.1176000  
C    -2.9958860    0.0848350   -0.1165990  
H    -2.8697040   -1.5223150    2.4623740  
H    -1.9367430    2.5589730   -2.6962160  
H    -0.5506350   -0.9072000    3.6787210  
C    -6.5245880   -0.1296470    2.5193940  
C    -7.3651190   -0.9172220    1.8115550  
C    -6.6305090   -1.2636600    0.5986420  
C    -5.3120840   -0.5653700    0.7597570  
N    -5.2596550    0.0925640    1.8789770  
C    -4.2724480   -0.6444500   -0.2551080  
C    -4.5561890   -1.4017230   -1.3521240  
O    -3.6919180   -1.6118700   -2.3510240  
C    -5.8727700   -2.1138710   -1.5325570  
O    -6.0213320   -2.7706380   -2.5605340  
C    -6.9096160   -2.0012270   -0.4928210  
H    -8.3673730   -1.2312610    2.0675330  
H    -4.1695480   -2.1762270   -2.9996710  
H    -7.8460920   -2.5231910   -0.6640040  
H    -6.6968500    0.3364930    3.4820220  
