64


C    -1.3527620    0.7525760    1.7867470  
C    -2.6810370    0.6655750    1.4800980  
C    -2.8165170   -0.2506990    0.3779970  
C    -1.5190250   -0.7088380    0.0494230  
N    -0.6391880   -0.0761900    0.9226370  
C    -1.2551620   -1.6400070   -0.9579980  
C    -2.3493080   -2.1225000   -1.6598430  
O    -2.1662820   -3.0222950   -2.6665950  
C    -3.6641660   -1.6857240   -1.3566200  
O    -4.6319720   -2.2535950   -2.1611700  
C    -3.9302090   -0.7523200   -0.3491860  
H    -3.4811330    1.1816770    1.9899670  
H    -0.2545860   -1.9782490   -1.2021570  
H    -3.0411830   -3.1907580   -3.0589420  
H    -5.4732730   -1.7786330   -2.0283000  
H    -0.8250390    1.3211610    2.5382860  
C     1.3947550   -1.2254730    1.6449710  
C     2.7384560   -1.0910370    1.4064860  
C     2.9205940    0.0190090    0.5132580  
C     1.6332680    0.5230160    0.2285280  
N     0.7197220   -0.2450110    0.9389140  
C     1.3793450    1.5935860   -0.6373120  
C     2.4708660    2.1755500   -1.2521070  
O     2.3004460    3.2133590   -2.1130660  
C     3.7944910    1.7121520   -1.0035540  
O     4.7305360    2.4003720   -1.6889730  
C     4.0610330    0.6412980   -0.1036940  
H     3.4926540   -1.7466640    1.8105280  
H     0.3768350    1.9544810   -0.8384970  
H     3.1899100    3.4578670   -2.4295560  
H     5.6255540    1.9814220   -1.4812490  
H     0.8436210   -1.9306310    2.2492820  
C    -5.2940830   -0.2910670   -0.0862830  
C    -5.7777990    0.9594480    0.2170950  
C    -7.2055720    0.8680980    0.3432830  
C    -7.5570180   -0.4818600    0.1034840  
N    -6.3899820   -1.1723400   -0.2221000  
C    -8.8732670   -0.9449850    0.1738510  
C    -9.8612370   -0.0199260    0.4831540  
O   -11.1624430   -0.4197480    0.5688160  
C    -9.5307400    1.3425770    0.7049670  
O   -10.6216100    2.1407270    0.9895660  
C    -8.2249660    1.7947840    0.6358740  
H    -5.1806430    1.8585090    0.2818050  
H    -6.2850140   -2.1573850   -0.0093650  
H    -9.1462420   -1.9799800   -0.0050990  
H   -11.6922790    0.3665000    0.7865780  
H   -10.3275570    3.0519760    1.1354910  
H    -7.9951230    2.8434590    0.8135420  
C     5.4158480    0.2406810    0.1669000  
C     5.9489290   -0.6525670    1.0768990  
C     7.3620510   -0.6351150    0.8934650  
C     7.5926450    0.3578790   -0.2102960  
N     6.4621660    0.8595820   -0.6162160  
C     8.9032330    0.6677500   -0.7003030  
C     9.9423330    0.0226970   -0.1149220  
O    11.2196790    0.1951790   -0.4494150  
C     9.7508550   -0.9884920    1.0115880  
O    10.7864560   -1.4989150    1.4520110  
C     8.4133260   -1.2795770    1.4805610  
H     5.4266400   -1.2311040    1.8200370  
H     9.0427190    1.3859390   -1.5004650  
H    11.7171960   -0.4092710    0.1543500  
H     8.3045000   -2.0022040    2.2826920  
