62


C     2.5594120   -2.4617590    0.1935210  
C     3.3256560   -1.3082270    0.1308800  
C     4.7015940   -1.7375530   -0.0342660  
C     4.6889550   -3.1535340   -0.0531940  
N     3.3702330   -3.5563450    0.0865610  
C     5.8445370   -3.9256930   -0.2119370  
C     7.0462050   -3.2518550   -0.3639000  
O     8.2016740   -3.9529780   -0.5217260  
C     7.0797540   -1.8311590   -0.3707630  
O     8.3422920   -1.3088840   -0.5519310  
C     5.9327470   -1.0737810   -0.2124730  
H     3.0549860   -4.5142830    0.1216080  
H     5.8309220   -5.0104230   -0.2298890  
H     8.9211600   -3.3090370   -0.6418930  
H     8.2926830   -0.3454500   -0.6410380  
H     5.9881080    0.0109010   -0.2618350  
H     1.4937720   -2.5690420    0.3362900  
C     2.8048300    0.0315700    0.2308760  
C     1.5519400    0.5214400   -0.0557980  
C     1.5329990    1.9265650    0.2423920  
C     2.8891440    2.2549280    0.7422390  
N     3.6263200    1.0828550    0.6677560  
C     3.2825450    3.4815930    1.1628450  
C     2.3186280    4.5743760    1.0894830  
O     2.5892880    5.7201740    1.4150490  
C     0.8691740    4.2588460    0.5663530  
O     0.0436920    5.1570450    0.5855910  
C     0.5550770    2.8850900    0.1234060  
H     0.7507390   -0.0381510   -0.5154100  
H     4.2840300    3.7004580    1.5210060  
H     4.4618980    0.9249740    1.2121750  
C    -2.5006810    0.1529340    1.7553380  
C    -3.4768730    0.3848170    0.8125620  
C    -2.9585450    1.3419070   -0.1297720  
C    -1.6468830    1.6515950    0.3005980  
N    -1.3983650    0.9115430    1.4420850  
C    -0.8081810    2.5737550   -0.3597190  
C    -1.3498800    3.1876100   -1.4889680  
O    -0.5938360    4.0572050   -2.2082590  
C    -2.6666870    2.8846580   -1.9333940  
O    -3.0324030    3.5712040   -3.0731640  
C    -3.4737920    1.9764450   -1.2766180  
H    -0.5333030    0.9357220    1.9594460  
H    -1.1585310    4.4267870   -2.9089690  
H    -3.9487820    3.3578880   -3.3031450  
H    -4.4738860    1.7543080   -1.6420560  
H    -2.5150800   -0.4967020    2.6183820  
C    -5.9697220    0.4051850    1.0192410  
C    -7.0208090   -0.4386890    0.8566320  
C    -6.4812680   -1.7267370    0.4780590  
C    -5.0073030   -1.5537900    0.4281950  
N    -4.7491470   -0.2319430    0.7727910  
C    -4.1309540   -2.5382300    0.1029670  
C    -4.6572120   -3.8600440   -0.2154500  
O    -3.9443540   -4.8079050   -0.5145640  
C    -6.2164090   -4.0689680   -0.1649810  
O    -6.6737590   -5.1711020   -0.4273130  
C    -7.0577910   -2.9258810    0.1962990  
H    -8.0650600   -0.1972100    0.9927520  
H    -3.0581280   -2.3830970    0.0725110  
H    -8.1321280   -3.0813860    0.2255320  
H    -5.9586980    1.4484000    1.3067930  
