62


C     4.3007080   -0.4352540    0.2469780  
C     4.7632600   -1.5520540    0.8981450  
C     6.0805370   -1.8113770    0.3917170  
C     6.3697540   -0.8028170   -0.5643890  
N     5.2684200    0.0325890   -0.6305850  
C     7.5841110   -0.7407780   -1.2566160  
C     8.5267060   -1.7194370   -0.9804430  
O     9.7242750   -1.7106400   -1.6318410  
C     8.2584200   -2.7339540   -0.0222720  
O     9.2968640   -3.6293780    0.1431060  
C     7.0583940   -2.7896650    0.6616100  
H     4.2367360   -2.0948390    1.6706940  
H     5.1189650    0.7593980   -1.3137140  
H     7.8089380    0.0295720   -1.9868930  
H    10.2420320   -2.4627820   -1.2963700  
H     9.0593330   -4.2824740    0.8177460  
H     6.8764950   -3.5754430    1.3919300  
C     1.8220080   -0.4752890    0.3025710  
C     0.7664320    0.3726130    0.4477380  
C     1.3371250    1.7105820    0.5844990  
C     2.8102250    1.5557920    0.5129970  
N     3.0540650    0.1963400    0.3369260  
C     3.6937380    2.5813640    0.6268910  
C     3.1718060    3.9323720    0.8167360  
O     3.8906190    4.9146930    0.9213310  
C     1.6138780    4.1196340    0.8896840  
O     1.1557580    5.2425970    1.0312130  
C     0.7668270    2.9275930    0.7812400  
H     4.7696190    2.4469260    0.6048910  
H    -0.3067020    3.0608820    0.8657200  
H     1.8200050   -1.5449180    0.1433110  
C    -1.1881550   -1.0260180    1.2249840  
C    -0.6480380    0.0033670    0.4855050  
C    -1.7460540    0.5905010   -0.2522450  
C    -2.9150420   -0.1324820    0.0910820  
N    -2.5407080   -1.1189720    0.9797680  
C    -4.1823250    0.1326760   -0.4776790  
C    -4.2401020    1.1878470   -1.3928290  
O    -5.4370900    1.5571190   -1.9185550  
C    -3.0758810    1.9166000   -1.7467780  
O    -3.3126770    2.9155870   -2.6683060  
C    -1.8393240    1.6251310   -1.2042670  
H    -3.1807270   -1.7290040    1.4655220  
H    -5.2685670    2.2828650   -2.5450970  
H    -2.5107480    3.4441940   -2.7947710  
H    -0.9608840    2.1905890   -1.5041920  
H    -0.7079600   -1.6880600    1.9316160  
C    -6.2940060   -1.0586990    3.2934060  
C    -5.4119300   -0.4796490    2.4413900  
C    -5.8324110   -0.9093450    1.1097390  
C    -7.0282220   -1.7641370    1.3719530  
N    -7.2903400   -1.8501950    2.6471970  
C    -7.7738510   -2.3780130    0.3037810  
C    -7.3480390   -2.1620330   -0.9610270  
O    -7.9381670   -2.6745180   -2.0532070  
C    -6.1181580   -1.3432400   -1.2618980  
O    -5.7450110   -1.3114530   -2.4288560  
C    -5.3772640   -0.6629290   -0.1473670  
H    -4.5952480    0.1878090    2.6770420  
H    -8.6427210   -2.9870770    0.5269460  
H    -7.3798930   -2.3876120   -2.8090770  
H    -6.3260580   -0.9738370    4.3734630  
