62


C    -3.8782420   -1.1752090    2.9109920  
C    -4.9936200   -1.9604540    2.8846420  
C    -5.3286660   -2.1825060    1.5036640  
C    -4.3664460   -1.4946130    0.7239240  
N    -3.4836160   -0.8635640    1.6064510  
C    -4.3545640   -1.5519420   -0.6751280  
C    -5.3576750   -2.2815420   -1.2971430  
O    -5.3903300   -2.3601460   -2.6579320  
C    -6.3455810   -2.9531080   -0.5312050  
O    -7.2752600   -3.6317000   -1.2921940  
C    -6.3369610   -2.9163630    0.8519360  
H    -5.5275740   -2.3306550    3.7491190  
H    -3.5973860   -1.0695130   -1.2821480  
H    -6.1445510   -2.9257520   -2.8980110  
H    -7.8884960   -4.1064830   -0.7118010  
H    -7.0914070   -3.4547590    1.4219490  
H    -3.3261070   -0.7607510    3.7419170  
C    -1.1063890   -0.2101700    1.8175210  
C    -2.3514350   -0.1113060    1.2859000  
C    -2.3021150    1.0641650    0.3950340  
C    -0.8991670    1.5585640    0.5297100  
N    -0.2197750    0.7936230    1.3450750  
C    -0.4077260    2.7227910   -0.1898230  
C    -1.2984090    3.2826900   -1.0693560  
O    -0.9973500    4.2925760   -1.8938570  
C    -2.7196850    2.8237200   -1.1972310  
O    -3.4445880    3.4144020   -1.9969410  
C    -3.1954400    1.6748660   -0.4007290  
H    -1.8300420    4.4898970   -2.3784980  
H    -4.2223720    1.3538280   -0.5399100  
H    -0.7465950   -0.9413560    2.5301750  
C     3.6346260    0.8270100    0.0174510  
C     4.3644100    2.0001530    0.0773830  
C     3.4347090    3.0795560    0.0935650  
C     2.1348050    2.5098160    0.0189440  
N     2.2739840    1.1384260   -0.0703290  
C     0.9495100    3.2815130    0.0158820  
C     1.1329770    4.6608630    0.1894030  
O     0.0622650    5.4816730    0.3233020  
C     2.4326440    5.2407960    0.2510290  
O     2.4079520    6.6139960    0.3855880  
C     3.5776890    4.4800550    0.1813280  
H     5.4434980    2.0725790    0.0709680  
H     1.5551560    0.5625780    0.3695670  
H     0.4017400    6.3915120    0.3954190  
H     3.3124950    6.9532150    0.4559640  
H     4.5602480    4.9444540    0.2238940  
C     4.0812330   -0.5366980   -0.0059170  
C     5.2896040   -1.0838990    0.3518650  
C     5.2278610   -2.4989000    0.1211060  
C     3.8706320   -2.7684240   -0.4162690  
N     3.1994290   -1.5543350   -0.4138430  
C     3.4337020   -3.9873530   -0.8155570  
C     4.3380130   -5.1284520   -0.6805990  
O     4.0248140   -6.2627540   -1.0098640  
C     5.7661060   -4.8753350   -0.0728030  
O     6.5263830   -5.8260910    0.0549210  
C     6.1240620   -3.5124160    0.3023120  
H     6.1211740   -0.5442680    0.7817800  
H     2.4402140   -4.1652180   -1.2164030  
H     7.1187900   -3.3459080    0.7046180  
H     2.4172170   -1.3653320   -1.0252310  
