62


C     3.2111680   -0.7237710    1.7967570  
C     1.8815310   -0.5499330    1.5194510  
C     1.8065740    0.2175260    0.3088330  
C     3.1368830    0.4770190   -0.1094410  
N     3.9874350   -0.1084450    0.8195550  
C     3.4449300    1.1662160   -1.2871210  
C     2.3838710    1.6167560   -2.0566160  
O     2.6189400    2.2932120   -3.2147660  
C     1.0383940    1.4046760   -1.6521650  
O     0.0960900    1.9811570   -2.4773020  
C     0.7447430    0.7139270   -0.4788610  
H     1.0561560   -0.9237070    2.1089550  
H     4.4640420    1.3499750   -1.6055200  
H     1.7472400    2.4992750   -3.5986420  
H    -0.7105580    1.4356140   -2.5086870  
H     3.6946310   -1.2192840    2.6268790  
C    -1.1417240    1.0071010    1.1426120  
C    -2.4691040    0.7530600    1.2302220  
C    -2.8618480    0.0800450    0.0115040  
C    -1.6226650   -0.0502870   -0.7962630  
N    -0.6058440    0.5339080   -0.0658840  
C    -1.5473830   -0.6620330   -2.0142470  
C    -2.7640630   -1.2330440   -2.5714590  
O    -2.7968500   -1.8485130   -3.6261840  
C    -4.1027180   -1.0496820   -1.7708980  
O    -5.1427200   -1.4084270   -2.2923910  
C    -4.0578740   -0.4206440   -0.4227080  
H    -3.1227200    1.0329730    2.0407910  
H    -0.6099170   -0.8300460   -2.5361200  
H    -0.4826880    1.5095420    1.8372340  
C    -6.2757860    3.0507270    1.1667200  
C    -7.3848430    2.4719040    1.6796570  
C    -7.2068080    1.0416530    1.4504800  
C    -5.8767460    0.9445740    0.7605670  
N    -5.3432350    2.1201110    0.6003410  
C    -5.3193490   -0.3313600    0.3376250  
C    -6.0688330   -1.4359920    0.6196790  
O    -5.6777690   -2.6845730    0.3411740  
C    -7.4033720   -1.3628520    1.3130740  
O    -7.9917490   -2.4215740    1.5235490  
C    -7.9457140   -0.0524240    1.7132010  
H    -8.2325450    2.9463370    2.1540490  
H    -6.4185920   -3.2641820    0.6269480  
H    -8.9152830   -0.0421740    2.2017320  
H    -6.0261660    4.1046880    1.1367890  
C     6.6298310   -3.5326010    0.2980300  
C     7.8167360   -2.8505040    0.3644540  
C     7.4982960   -1.4627620    0.5535670  
C     6.0836180   -1.3724660    0.5959010  
N     5.5788190   -2.6442440    0.4435200  
C     5.4067300   -0.1510450    0.7645670  
C     6.1789250    1.0019240    0.8884840  
O     5.5761880    2.2102880    1.0610460  
C     7.5956450    0.9212200    0.8327950  
O     8.2166270    2.1489530    0.9649190  
C     8.2577430   -0.2817170    0.6751110  
H     8.8039870   -3.2845810    0.2870940  
H     4.5978420   -2.8729030    0.3946530  
H     6.2833420    2.8773560    1.1087030  
H     9.1771960    2.0333550    0.9214460  
H     9.3448380   -0.3097110    0.6393140  
H     6.4381810   -4.5872720    0.1602340  
