62


C     3.2952600    0.1433400    0.4300360  
C     3.7560200    1.2340500    1.1537870  
C     2.6461870    2.1052070    1.3865830  
C     1.5180750    1.4926070    0.7798360  
N     1.9358460    0.3207570    0.2050200  
C     0.2391640    2.0739260    0.8226460  
C     0.0974290    3.2949250    1.4803590  
O    -1.1233010    3.8880590    1.5477810  
C     1.2250140    3.9174960    2.0771340  
O     0.9251580    5.1203690    2.6855810  
C     2.4815660    3.3420890    2.0421510  
H     4.7530620    1.3565670    1.5521750  
H     1.3554020   -0.3858360   -0.2239640  
H    -1.0103750    4.7275150    2.0273820  
H     1.7282260    5.5005730    3.0709780  
H     3.3257820    3.8414120    2.5132090  
C    -1.5430470    0.3371480    0.7535350  
C    -2.5928200   -0.0695770   -0.0340350  
C    -2.6531740    0.8799750   -1.1471710  
C    -1.5306690    1.8276530   -0.9422580  
N    -0.8828860    1.4319230    0.2262550  
C    -1.2308800    2.8706350   -1.7532080  
C    -2.0823560    3.1131790   -2.9130490  
O    -1.8901350    4.0234730   -3.7054880  
C    -3.3068730    2.1561520   -3.1304950  
O    -4.0492250    2.3514830   -4.0812630  
C    -3.5143810    1.0556650   -2.1843610  
H    -0.4021510    3.5439470   -1.5642690  
H    -4.3514510    0.3960600   -2.3692790  
H    -1.2166470   -0.0783920    1.6947180  
C    -3.8133190   -1.6712690    3.8527680  
C    -4.6636180   -2.6629960    3.5073920  
C    -4.6756580   -2.6619340    2.0479220  
C    -3.7446130   -1.5514040    1.6704500  
N    -3.2490280   -0.9821890    2.7302210  
C    -3.4714360   -1.1951230    0.2748830  
C    -4.0775780   -1.9943840   -0.6578720  
O    -3.8769020   -1.8766430   -1.9870600  
C    -5.0078230   -3.1039760   -0.3049520  
O    -5.4984920   -3.7611560   -1.2267900  
C    -5.2947300   -3.4023870    1.1121200  
H    -5.2228320   -3.3246380    4.1541840  
H    -4.4448840   -2.5710680   -2.3908040  
H    -5.9806310   -4.2180280    1.3202690  
H    -3.5246190   -1.3513890    4.8466750  
C     7.5582900   -0.3962460   -0.5735340  
C     7.5046890   -1.7232820   -0.9054490  
C     6.1387900   -2.1402400   -0.7549390  
C     5.4059580   -1.0110600   -0.3072420  
N     6.3009710    0.0329180   -0.1862980  
C     4.0098180   -1.0290900   -0.0712010  
C     3.3721240   -2.2427350   -0.3593000  
O     2.0105760   -2.3603060   -0.2090780  
C     4.0919940   -3.3790800   -0.7983170  
O     3.2927970   -4.4898460   -1.0034940  
C     5.4602670   -3.3517680   -0.9863610  
H     8.3373950   -2.3357070   -1.2227580  
H     6.0239310    0.9961340   -0.0737170  
H     1.7737320   -3.2676510   -0.4714830  
H     3.8258780   -5.2109000   -1.3689860  
H     5.9914170   -4.2393990   -1.3231280  
H     8.3946130    0.2885060   -0.5662250  
