66


C    -1.8193200    0.3816300    1.0821010  
C    -3.0783800    0.3575420    0.5403070  
C    -2.9561940    0.6209380   -0.8739850  
C    -1.5795130    0.7995110   -1.1424570  
N    -0.9077280    0.6577860    0.0683400  
C    -1.0802330    1.0772320   -2.4183640  
C    -2.0031240    1.1771410   -3.4483480  
O    -1.5792260    1.4406160   -4.7160490  
C    -3.3927340    1.0068390   -3.1983150  
O    -4.1795040    1.1428500   -4.3240850  
C    -3.8774980    0.7346230   -1.9332140  
H    -0.0231930    1.2119420   -2.6175890  
H    -2.3675460    1.4609730   -5.2859560  
H    -5.1030410    0.9552770   -4.0993640  
H    -4.9426380    0.6057540   -1.7595440  
H    -1.4813370    0.2256600    2.0954100  
C     1.3508550   -0.2812650    0.1179090  
C     2.6228040    0.1889480    0.3394770  
C     2.4997100    1.6092170    0.6134410  
C     1.1277090    1.9426490    0.5388760  
N     0.4449880    0.7663410    0.2449780  
C     0.6359260    3.2316840    0.7599770  
C     1.5617040    4.2157310    1.0732620  
O     1.1444090    5.4934970    1.2993050  
C     2.9438560    3.9031340    1.1719540  
O     3.7360640    4.9837650    1.5072330  
C     3.4189500    2.6232520    0.9494150  
H    -0.4185350    3.4755640    0.6962670  
H     1.9324200    6.0207590    1.5171040  
H     4.6524250    4.6918690    1.6227630  
H     4.4787220    2.4031290    1.0557770  
H     1.0004540   -1.2684900   -0.1439670  
C    -4.6995610    0.9316160    2.3380350  
C    -5.8942880    0.4613570    2.8095650  
C    -6.2565300   -0.6641320    1.9948320  
C    -5.2248240   -0.8316920    1.0349350  
N    -4.2757240    0.1619430    1.2579240  
C    -5.2362480   -1.8630400    0.0862840  
C    -6.3197210   -2.7281210    0.0947290  
O    -6.3841120   -3.7483160   -0.8135490  
C    -7.3671800   -2.5683030    1.0391140  
O    -8.3782600   -3.5059610    0.9184450  
C    -7.3461430   -1.5572130    1.9820420  
H    -6.4563410    0.8734050    3.6366610  
H    -4.4388570   -2.0048380   -0.6343950  
H    -7.1985330   -4.2456350   -0.6257710  
H    -9.0283690   -3.3685380    1.6229610  
H    -8.1572680   -1.4587800    2.7013530  
H    -4.0982580    1.7713880    2.6560020  
C     3.8428530   -0.6024710    0.3073130  
C     4.0830250   -1.9026300    0.6962380  
C     5.4583620   -2.1959680    0.4181690  
C     6.0259600   -1.0233030   -0.1469440  
N     5.0352850   -0.0582240   -0.1719320  
C     7.3620210   -0.9515570   -0.5563740  
C     8.1462170   -2.0831540   -0.3868800  
O     9.4568810   -2.0681850   -0.7740800  
C     7.6009910   -3.2596600    0.1898630  
O     8.5078190   -4.2993010    0.3011970  
C     6.2797790   -3.3276630    0.5932030  
H     3.3630320   -2.5544570    1.1723350  
H     5.0723030    0.7841150   -0.7262870  
H     7.7980170   -0.0592210   -0.9943230  
H     9.8225000   -2.9474140   -0.5760190  
H     8.0630930   -5.0736240    0.6760050  
H     5.8852440   -4.2427410    1.0311310  
