60


C     6.5204880    0.6352040   -2.9975120  
C     7.1991530   -0.5377810   -2.8008910  
C     6.4973850   -1.2673230   -1.7827730  
C     5.3866850   -0.4686060   -1.4001580  
N     5.4167840    0.6768470   -2.1635840  
C     4.4710190   -0.8861260   -0.4154110  
C     4.6821310   -2.1313330    0.1766880  
O     3.8213980   -2.5855800    1.1371390  
C     5.7788960   -2.9375900   -0.2148780  
O     5.8369580   -4.1435880    0.4575840  
C     6.6824110   -2.5244640   -1.1761390  
H     8.0929930   -0.8510450   -3.3219040  
H     4.8004930    1.4671860   -2.0499430  
H     4.1775130   -3.4362780    1.4505270  
H     6.6799450   -4.5821530    0.2695780  
H     7.5135960   -3.1653080   -1.4616130  
H     6.7258410    1.4566410   -3.6689550  
C     2.0373530   -0.5476480   -0.0490260  
C     1.1534990    0.4035180    0.3807790  
C     1.9603410    1.5851770    0.7057080  
C     3.3712550    1.2070560    0.4462300  
N     3.3511680   -0.0977720   -0.0411470  
C     4.4434630    2.0103940    0.6736550  
C     4.2074770    3.3499950    1.2047400  
O     5.1079410    4.1414720    1.4398420  
C     2.7236550    3.7746250    1.4853350  
O     2.5002490    4.8860170    1.9366380  
C     1.6529080    2.8096280    1.2013750  
H     5.4678520    1.6932010    0.5130160  
H     0.6349010    3.1278390    1.3896250  
H     1.8324770   -1.5461740   -0.4059280  
C    -1.2280030   -3.0414630    1.8119940  
C    -0.2254370   -2.1793480    1.4983560  
C    -0.8376720   -0.9738120    0.9809400  
C    -2.2928930   -1.1975890    1.0366250  
N    -2.4638180   -2.4593860    1.5646290  
C    -3.2781460   -0.3188880    0.6284840  
C    -2.7834810    0.9567820    0.0914310  
O    -3.5101840    1.8525990   -0.3090940  
C    -1.2299130    1.2276090    0.0298450  
O    -0.8713750    2.2875810   -0.4549580  
C    -0.2856490    0.1995750    0.5087580  
H     0.8315090   -2.3539380    1.6333530  
H    -1.1756370   -4.0405100    2.2234110  
H    -3.3535330   -2.9364940    1.5804940  
C    -5.3126130   -1.3491160    1.7389100  
C    -4.6981450   -0.6030400    0.7629950  
C    -5.8207300   -0.2255410   -0.1384960  
C    -7.0133860   -0.8644820    0.4797440  
N    -6.7035920   -1.5044510    1.5784500  
C    -8.3259670   -0.7543220   -0.0964520  
C    -8.4559280   -0.0562280   -1.2504340  
O    -9.6163100    0.1201550   -1.9035040  
C    -7.2724910    0.5880070   -1.9086760  
O    -7.4605960    1.1963390   -2.9611790  
C    -5.9349070    0.4765910   -1.2818890  
H    -9.1702910   -1.2297050    0.3903700  
H    -9.3903460    0.6611260   -2.6920140  
H    -5.1184770    0.9971440   -1.7662760  
H    -4.8538250   -1.7649060    2.6289240  
