62


C    -4.2491900   -0.2542480    2.1174430  
C    -4.9554400   -1.3722700    2.4600910  
C    -5.8389370   -1.6698750    1.3669340  
C    -5.6274560   -0.6792270    0.3754930  
N    -4.6408520    0.1869730    0.8497670  
C    -6.3040850   -0.6848420   -0.8494860  
C    -7.2229470   -1.6991760   -1.0680210  
O    -7.9153940   -1.7464670   -2.2436780  
C    -7.4546390   -2.6941960   -0.0821120  
O    -8.3967760   -3.6382580   -0.4482910  
C    -6.7770220   -2.6914520    1.1226240  
H    -4.8712000   -1.9133150    3.3930540  
H    -6.1596080    0.0765970   -1.6059810  
H    -8.5278770   -2.4996570   -2.1860980  
H    -8.5746050   -4.2226510    0.3031970  
H    -6.9624970   -3.4684670    1.8618980  
H    -3.5182890    0.3130420    2.6760040  
C    -0.4941040    1.0381630   -0.0603870  
C    -0.6702870    2.2799420   -0.6329710  
C    -2.0756500    2.5841890   -0.6303510  
C    -2.7345900    1.4182030   -0.0032380  
N    -1.7344180    0.5380200    0.3416000  
C    -4.0826610    1.2951800    0.1802010  
C    -4.9349130    2.4163670   -0.2591950  
O    -6.1416260    2.4365200   -0.0922390  
C    -4.2430030    3.6446020   -0.9657810  
O    -4.9585430    4.5439620   -1.3824290  
C    -2.7925520    3.6497390   -1.0911380  
H     0.0924830    2.8791460   -1.1076620  
H    -2.3278340    4.5094170   -1.5636840  
H    -1.8775100   -0.4202840    0.6299550  
C     3.6515400    2.4445630    0.4691720  
C     4.2672310    1.2162420    0.5535460  
C     3.2141540    0.2309730    0.4385340  
C     1.9950100    0.9327420    0.2731950  
N     2.2944000    2.2770160    0.2887770  
C     0.7357630    0.2886670    0.1635310  
C     0.7605870   -1.1096230    0.2801970  
O    -0.3994150   -1.8259330    0.2079940  
C     1.9737060   -1.8198640    0.4512630  
O     1.7988100   -3.1855120    0.5393540  
C     3.1921140   -1.1740640    0.5274690  
H     1.6051410    3.0127030    0.3193500  
H    -0.1639550   -2.7701190    0.2644180  
H     2.6541990   -3.6357340    0.4732080  
H     4.1086780   -1.7407280    0.6671800  
H     4.0862380    3.4338400    0.4902030  
C     6.4964910    1.5960280    1.6798510  
C     5.6966900    0.9824780    0.7599040  
C     6.5644450    0.0787410    0.0071640  
C     7.9263980    0.2237180    0.5808070  
N     7.8180750    1.1746220    1.5751970  
C     9.0161280   -0.4677400    0.1598960  
C     8.8558820   -1.4159990   -0.9383720  
O     9.7749030   -2.0888240   -1.3795180  
C     7.4272270   -1.5689160   -1.5781680  
O     7.2699710   -2.3592020   -2.4954620  
C     6.3305010   -0.7594750   -1.0366040  
H    10.0040160   -0.3473480    0.5940110  
H     5.3525890   -0.8641140   -1.4952690  
H     6.2192500    2.3213540    2.4335580  
H     8.5665580    1.4522130    2.1904810  
