64


C     0.3876810   -2.5787630    0.1427170  
C     1.1704040   -3.6473980    0.5343190  
C     2.5107860   -3.1712070    0.6730850  
C     2.4955760   -1.7853630    0.3574090  
N     1.1936690   -1.4514130    0.0533090  
C     3.6514450   -0.9710940    0.3255760  
C     4.8363730   -1.6332730    0.6440200  
O     6.0358980   -0.9448910    0.6106210  
C     4.8744860   -3.0060190    0.9892240  
O     6.1461770   -3.4664830    1.2848730  
C     3.7338850   -3.7829750    1.0136020  
H     0.8091720   -4.6470180    0.7322990  
H     0.9164590   -0.5512890   -0.3109910  
H     6.7319590   -1.5754050    0.8706130  
H     6.1078070   -4.4112800    1.4937150  
H     3.7854550   -4.8394050    1.2679890  
C    -1.0333940   -2.5267970   -0.1327600  
C    -1.8658350   -3.4895330   -0.6612750  
C    -3.1852280   -2.9407920   -0.7144240  
C    -3.1109920   -1.6159560   -0.2049610  
N    -1.7869290   -1.3808270    0.1190740  
C    -4.2419040   -0.7803720   -0.0604180  
C    -5.4642930   -1.3387950   -0.4530130  
O    -6.6201830   -0.6159210   -0.3194170  
C    -5.5452250   -2.6468940   -0.9892010  
O    -6.8303810   -3.0227520   -1.3392960  
C    -4.4306920   -3.4506330   -1.1272730  
H    -1.5519040   -4.4639780   -1.0083910  
H    -1.4572910   -0.5965580    0.6626450  
H    -7.3305800   -1.1507080   -0.7160310  
H    -6.8034710   -3.8751740   -1.7982060  
H    -4.5197890   -4.4592710   -1.5250030  
C     1.0292480    2.4620790    1.6206180  
C     1.6735770    1.2479370    1.5388780  
C     2.6254610    1.3471140    0.4662970  
C     2.5061290    2.6651990   -0.0563370  
N     1.5452700    3.3260780    0.6806660  
C     3.3026470    3.1453360   -1.1014170  
C     4.2632340    2.2830950   -1.6011760  
O     5.0967580    2.6846270   -2.6004890  
C     4.4087580    0.9604060   -1.0964660  
O     5.3917170    0.2279930   -1.7319980  
C     3.5862310    0.4530470   -0.0899680  
H     1.5295120    0.4066490    2.2019870  
H     1.0717160    4.1759370    0.3884130  
H     3.2037070    4.1481280   -1.5024980  
H     5.6881570    1.9253140   -2.7643070  
H     5.8999570   -0.2486920   -1.0413570  
H     0.2711500    2.7990280    2.3137500  
C    -5.0449280    1.1145800    1.4116120  
C    -4.1751520    0.5760380    0.5072880  
C    -3.1967510    1.6219780    0.2175820  
C    -3.5553690    2.7852010    1.0694590  
N    -4.6882970    2.4149780    1.7538870  
C    -2.8551260    3.9516940    1.1281660  
C    -1.6626060    4.0729640    0.3131870  
O    -0.8771060    5.0152230    0.4020690  
C    -1.3612820    2.9336450   -0.7205600  
O    -0.4797340    3.1106070   -1.5487450  
C    -2.1554260    1.7046310   -0.6554050  
H    -3.1199040    4.7714400    1.7890080  
H    -1.9038920    0.9074300   -1.3465100  
H    -5.9244180    0.6617530    1.8455120  
H    -5.1852960    2.9996630    2.4075630  
