60


C    -3.8127950   -2.5612310    2.4841550  
C    -3.7471660   -1.2800870    1.9987930  
C    -4.5942550   -1.2166850    0.8377750  
C    -5.1670080   -2.5078040    0.6846420  
N    -4.6642950   -3.3045390    1.6933920  
C    -6.0985640   -2.8171730   -0.3115500  
C    -6.4751160   -1.7862930   -1.1570010  
O    -7.3962430   -2.0018970   -2.1358470  
C    -5.9175040   -0.4843710   -1.0360150  
O    -6.3845080    0.4047700   -1.9752740  
C    -4.9475580   -0.1785320   -0.0760990  
H    -3.1739700   -0.4747860    2.4344570  
H    -4.8934610   -4.2756640    1.8341220  
H    -6.5427620   -3.8012200   -0.4218740  
H    -7.5243460   -1.1329590   -2.5637620  
H    -6.5318140    1.2614500   -1.5067360  
H    -3.3180480   -3.0095670    3.3338620  
C    -0.6736230    0.8497720    0.1094790  
C    -0.7845970    2.2196690    0.2482610  
C    -2.1768180    2.5573070    0.2191750  
C    -2.9108420    1.2775510    0.0678970  
N    -1.9526140    0.2981600    0.0033910  
C    -4.2800990    1.1431770   -0.0079610  
C    -5.0190200    2.4059800   -0.0508270  
O    -6.2183700    2.4869390   -0.3249540  
C    -4.2781990    3.7649060    0.2344910  
O    -4.9535690    4.7773530    0.3493270  
C    -2.8277250    3.7527090    0.3175490  
H     0.0209330    2.9163530    0.4164160  
H    -2.3139860    4.6964730    0.4702910  
H    -2.1156440   -0.7021590    0.0274240  
C     3.6050440    1.6979790   -0.7659290  
C     2.2506960    1.7665400   -0.6530320  
C     1.7804840    0.4901010   -0.1922670  
C     2.9866840   -0.3583550   -0.0562380  
N     4.0798970    0.4334690   -0.4259810  
C     2.9876650   -1.6326610    0.4063970  
C     1.7028560   -2.2486670    0.7079460  
O     1.5919850   -3.3741800    1.1656620  
C     0.4007730   -1.4313980    0.4122170  
O    -0.6616080   -2.0361600    0.4487570  
C     0.5133870    0.0131150    0.1013610  
H     1.6481200    2.6209340   -0.9144770  
H     3.8835460   -2.2208320    0.5534160  
H     4.3054930    2.4578770   -1.0771660  
C     7.4582320    2.5653750    1.2134390  
C     8.4753370    1.7136380    0.9540460  
C     7.8647000    0.5826660    0.2603460  
C     6.4165170    0.9444620    0.1947550  
N     6.1838770    2.0972350    0.7446430  
C     5.4393640    0.0641450   -0.4290790  
C     5.9069170   -1.0849410   -0.9959190  
O     5.1348850   -1.9674690   -1.6462220  
C     7.3556030   -1.4671220   -0.9256790  
O     7.6829640   -2.5249490   -1.4599890  
C     8.3232960   -0.5697160   -0.2630950  
H     9.5216610    1.8246820    1.2016750  
H     5.7439790   -2.6871740   -1.9295830  
H     9.3612550   -0.8871470   -0.2457830  
H     7.4966840    3.5238790    1.7157280  
