64


C    -3.8242990    0.2533560   -1.9930580  
C    -5.1896500    0.2198550   -1.9506810  
C    -5.5613210   -0.6918120   -0.9049810  
C    -4.3576120   -1.1837660   -0.3368100  
N    -3.2953340   -0.5976080   -1.0221200  
C    -4.3443490   -2.0745580    0.7492900  
C    -5.5710240   -2.4960750    1.2469470  
O    -5.6115320   -3.3592180    2.3004790  
C    -6.7830340   -2.0284060    0.6762040  
O    -7.9156900   -2.5397800    1.2779600  
C    -6.7897800   -1.1320620   -0.3779080  
H    -5.8569600    0.7764650   -2.5943340  
H    -3.4314540   -2.3973600    1.2392330  
H    -6.5483210   -3.5169980    2.5103810  
H    -8.7044050   -2.1542440    0.8686920  
H    -7.7319910   -0.7736420   -0.7879390  
H    -3.1540460    0.7901440   -2.6482630  
C     0.1381380    2.1073280   -0.2463520  
C    -1.1220620    1.5920290   -0.4556370  
C    -0.9900760    0.1759480   -0.6317140  
C     0.3823970   -0.1398370   -0.5216230  
N     1.0582930    1.0507680   -0.3346650  
C     0.9001830   -1.4601140   -0.5384010  
C    -0.0601330   -2.4776640   -0.7273450  
O     0.3118590   -3.7689870   -0.8437330  
C    -1.4381930   -2.1760220   -0.8939950  
O    -2.2123110   -3.2806540   -1.1701330  
C    -1.9169040   -0.8698350   -0.8453040  
H    -2.0335200    2.1681030   -0.5142300  
H     1.9776830    1.0874060    0.0881730  
H    -0.5078670   -4.2878120   -0.9501200  
H    -3.1424130   -3.1147220   -0.9349350  
C     2.3138820   -1.7248690   -0.3457660  
C     3.3822450   -0.9117780   -0.6517460  
C     4.5584090   -1.6192330   -0.2157040  
C     4.0199930   -2.8865580    0.3785000  
N     2.7249430   -2.9491790    0.2972580  
C     4.8929090   -3.8760870    0.9583520  
C     6.2234600   -3.6321000    0.9270130  
O     7.1575820   -4.4594750    1.4172500  
C     6.7965910   -2.3692380    0.3187900  
O     8.0235680   -2.2483510    0.3439230  
C     5.8914580   -1.3717990   -0.2497830  
H     3.3754840    0.0253650   -1.1901100  
H     4.4787890   -4.7804480    1.3898510  
H     8.0132430   -4.0041660    1.2434200  
H     6.3368250   -0.4738570   -0.6669860  
C    -1.6196790    5.5356660    2.0568100  
C    -1.3951620    4.3083140    1.4895690  
C    -0.1705430    4.4030600    0.7452780  
C     0.3100090    5.7296830    0.9091990  
N    -0.5967960    6.3969870    1.7065170  
C     1.5063140    6.1857600    0.3443040  
C     2.2360340    5.2798310   -0.4095560  
O     3.4006020    5.6719220   -1.0034210  
C     1.7825130    3.9499550   -0.5863690  
O     2.6220350    3.1755960   -1.3763630  
C     0.5901630    3.4822480   -0.0250550  
H    -2.0192870    3.4345860    1.6048540  
H    -0.5134090    7.3564360    2.0030690  
H     1.8693560    7.2010820    0.4662700  
H     3.7186970    4.9143660   -1.5253370  
H     2.1107300    2.4336910   -1.7418010  
H    -2.4290680    5.8731070    2.6886990  
