64


C    -2.3761450    1.5121820    1.8723030  
C    -3.5370960    2.2236220    1.9990010  
C    -3.4912670    3.2875380    1.0352140  
C    -2.2598360    3.1710840    0.3422090  
N    -1.5819400    2.0742820    0.8702560  
C    -1.8908880    4.0365890   -0.6939260  
C    -2.7787380    5.0469010   -1.0280140  
O    -2.4670080    5.9237800   -2.0284110  
C    -4.0135980    5.1847720   -0.3404270  
O    -4.7885460    6.2394430   -0.7886530  
C    -4.3769600    4.3234080    0.6775870  
H    -4.3274390    2.0229100    2.7096130  
H    -0.9470580    3.9528940   -1.2195960  
H    -3.2024480    6.5569830   -2.0926680  
H    -5.5897740    6.3018910   -0.2482120  
H    -5.3309670    4.4434700    1.1875820  
H    -2.0059720    0.6668510    2.4354720  
C    -0.8095880   -1.8348100   -0.8530660  
C     0.5466770   -1.6981080   -1.0255120  
C     0.8864210   -0.3780760   -0.5787240  
C    -0.3093440    0.2320310   -0.1294200  
N    -1.3340710   -0.6740370   -0.3056060  
C    -0.3594360    1.5285360    0.4119180  
C     0.8452640    2.2268030    0.4852800  
O     0.8724750    3.4825970    0.9980340  
C     2.0517430    1.6483880    0.0066820  
O     3.1371550    2.4854630    0.0994930  
C     2.0914320    0.3575540   -0.5135980  
H     1.2213450   -2.4600480   -1.3877200  
H    -2.3143610   -0.4750360   -0.1668450  
H     1.7998930    3.7806020    0.9719620  
H     3.9634970    1.9755180    0.0337750  
C    -1.6166220   -3.5920380   -2.4058110  
C    -2.4927740   -4.6247540   -2.4218650  
C    -3.1563840   -4.6509760   -1.1352170  
C    -2.5757160   -3.5352500   -0.3477070  
N    -1.6448540   -2.9096810   -1.1800420  
C    -2.9176640   -3.2442110    0.9326200  
C    -3.9392630   -4.0649570    1.5821320  
O    -4.3072700   -3.8765610    2.7310670  
C    -4.5858700   -5.2362450    0.7574040  
O    -5.4506010   -5.9217830    1.2793980  
C    -4.1147830   -5.4595550   -0.6122450  
H    -2.6731410   -5.2983350   -3.2470100  
H    -2.4665100   -2.4420530    1.5061080  
H    -4.5538480   -6.2825050   -1.1680690  
H    -0.9465270   -3.2364530   -3.1766290  
C     3.5448820   -0.6050140   -2.3022710  
C     4.8444900   -1.0067060   -2.4412820  
C     5.4810800   -0.8362910   -1.1656380  
C     4.4989110   -0.3263500   -0.2770960  
N     3.3116930   -0.1867500   -0.9930780  
C     4.7672260   -0.0607220    1.0754760  
C     6.0571950   -0.2985140    1.5301590  
O     6.3693720   -0.0580670    2.8349240  
C     7.0546050   -0.7967130    0.6511080  
O     8.2850380   -0.9773330    1.2514130  
C     6.7805110   -1.0713140   -0.6765770  
H     5.3003150   -1.3749580   -3.3502340  
H     4.0078980    0.2773780    1.7727730  
H     7.3031700   -0.3011570    2.9590990  
H     8.9073820   -1.3537880    0.6117540  
H     7.5587020   -1.4635120   -1.3284830  
H     2.7443270   -0.5504660   -3.0256920  
