60


C    -7.2937730   -0.8237600    2.9216450  
C    -8.4074710   -0.6256200    2.1498360  
C    -7.9536920   -0.3594220    0.8138140  
C    -6.5358650   -0.4169220    0.8358780  
N    -6.1625700   -0.7040660    2.1327450  
C    -5.7355130   -0.1621060   -0.3015960  
C    -6.4217220    0.1396010   -1.4826770  
O    -5.7213540    0.3370520   -2.6318130  
C    -7.8378660    0.1883990   -1.5200390  
O    -8.3474140    0.4821540   -2.7707920  
C    -8.6052840   -0.0537610   -0.3969230  
H    -9.4328440   -0.6594440    2.4912780  
H    -5.2116860   -0.7670730    2.4601510  
H    -6.3549130    0.6292210   -3.3105510  
H    -9.2988760    0.6498340   -2.7023570  
H    -9.6910890   -0.0088070   -0.4513790  
H    -7.2038940   -1.0458520    3.9755670  
C    -2.7451190   -3.1961880    0.9832460  
C    -3.8874370   -2.5332480    0.6774880  
C    -3.5094810   -1.2233980    0.1753090  
C    -2.0315990   -1.1867890    0.1997260  
N    -1.6296870   -2.4155690    0.6801460  
C    -1.2428480   -0.1371670   -0.2043530  
C    -1.9524600    1.0468280   -0.6976240  
O    -1.3831530    2.0321460   -1.1437630  
C    -3.5241790    1.0659300   -0.6515900  
O    -4.0802340    2.1233790   -0.8740190  
C    -4.2631770   -0.1695670   -0.2714060  
H    -4.8945930   -2.9105000    0.7682040  
H    -2.6105830   -4.1931490    1.3811490  
H    -0.6780170   -2.6312690    0.9359500  
C     0.9840960   -1.2170930   -0.7324230  
C     0.2237070   -0.1995400   -0.2372630  
C     1.1739860    0.8063250    0.2565080  
C     2.5274700    0.2602110    0.0236970  
N     2.3474060   -0.9715410   -0.5468380  
C     3.7173020    0.8996930    0.3179640  
C     3.5920030    2.2772040    0.8208380  
O     4.5400810    3.0397720    0.9677560  
C     2.1680750    2.8171290    1.1975230  
O     2.0881780    3.8874950    1.7730290  
C     0.9929550    2.0191590    0.8351490  
H     0.0153970    2.4478670    1.0187840  
H     0.6685070   -2.1220370   -1.2346360  
H     3.0891980   -1.4663350   -1.0235030  
C     5.0187830    0.2893860    0.1170830  
C     5.3699260   -1.0429530   -0.0141080  
C     6.7972920   -1.1133540   -0.1624100  
C     7.2831460    0.2885300   -0.1118570  
N     6.1643440    1.0774950    0.0429490  
C     8.5884120    0.6484610   -0.2061880  
C     9.5890150   -0.4027830   -0.3696620  
O    10.7856560   -0.1742290   -0.4633770  
C     9.0959940   -1.8959240   -0.4270060  
O     9.9220450   -2.7869460   -0.5647210  
C     7.6625640   -2.1561280   -0.3132220  
H     4.7205930   -1.8974260    0.1053730  
H     8.9264740    1.6791330   -0.1655060  
H     7.3344270   -3.1907410   -0.3511430  
H     6.1315780    2.0689570    0.2490540  
