64


C     4.4802910   -0.2547890    0.2332960  
C     5.1827390   -1.0735020    1.0836870  
C     6.5731430   -0.8630030    0.8032040  
C     6.6524200    0.1080540   -0.2299040  
N     5.3577280    0.4776180   -0.5513400  
C     7.8683380    0.5580600   -0.7549670  
C     9.0306190    0.0176590   -0.2257720  
O    10.2430460    0.4161440   -0.7045410  
C     8.9725310   -0.9482710    0.8153400  
O    10.2132780   -1.3832990    1.2376750  
C     7.7689460   -1.3888240    1.3325340  
H     4.7525850   -1.7082720    1.8454180  
H     5.0819020    1.0230260   -1.3541040  
H     7.9324130    1.2995230   -1.5445010  
H    10.9243370   -0.0676230   -0.2063050  
H    10.1061400   -2.0315050    1.9493690  
H     7.7493890   -2.1289490    2.1297950  
C     2.2118740   -1.1647370    0.0479030  
C     0.9124690   -0.6959000   -0.1014400  
C     1.0120110    0.7530900   -0.1810960  
C     2.3782210    1.0856900   -0.0623940  
N     3.0975630   -0.1170160    0.0683000  
C     2.8426940    2.4057860   -0.0495960  
C     1.8958580    3.4120040   -0.1874560  
O     2.2890560    4.7162670   -0.1857580  
C     0.5203950    3.0934060   -0.3256520  
O    -0.3011990    4.1920590   -0.4572050  
C     0.0690980    1.7863610   -0.3174580  
H     3.8858140    2.6665670    0.0855380  
H     1.4856510    5.2591410   -0.2690120  
H    -1.2246610    3.8976820   -0.4932990  
H    -0.9853550    1.5483890   -0.4118480  
H     2.5822440   -2.1775130    0.1071260  
C    -0.2705260   -1.4965400   -0.1752250  
C    -0.4445810   -2.8583670   -0.0480260  
C    -1.8442910   -3.1005940   -0.2060540  
C    -2.4280520   -1.7354280   -0.4395500  
N    -1.5173310   -0.8133900   -0.4211500  
C    -3.8514430   -1.5332920   -0.6522380  
C    -4.6314770   -2.6499310   -0.6431510  
O    -5.9538720   -2.6458230   -0.8421820  
C    -4.0671510   -4.0316230   -0.3888030  
O    -4.8883160   -4.9561580   -0.4013340  
C    -2.6415240   -4.2040770   -0.1747420  
H     0.3126510   -3.6045470    0.1492770  
H    -6.2129600   -3.5957520   -0.7622580  
H    -2.2774760   -5.2117960   -0.0032790  
C    -3.8398100    0.6895430   -1.7577240  
C    -4.5207690    1.8704700   -1.6651220  
C    -5.5112720    1.7119930   -0.6353570  
C    -5.3850300    0.3911030   -0.1350470  
N    -4.3536480   -0.2294970   -0.8436900  
C    -6.1753090   -0.0923200    0.9134900  
C    -7.1218100    0.7661440    1.4527620  
O    -7.9218970    0.3376680    2.4750090  
C    -7.2711020    2.0852820    0.9553720  
O    -8.2564880    2.8191210    1.5919960  
C    -6.4801480    2.5642520   -0.0736820  
H    -4.3524300    2.7481420   -2.2751840  
H    -6.0866140   -1.0988270    1.3020150  
H    -8.5176000    1.0728930    2.6990410  
H    -8.3289090    3.6893800    1.1734620  
H    -6.6042440    3.5837940   -0.4346270  
H    -3.0260490    0.3982240   -2.4035500  
