60


C     0.8590720    4.2213600   -0.4883670  
C     0.1050410    5.3464560   -0.5627350  
C    -1.2751900    4.9647310   -0.3788950  
C    -1.3082170    3.5639370   -0.1951850  
N     0.0313710    3.1030240   -0.2719830  
C    -2.4983230    2.8757320    0.0484220  
C    -3.6753550    3.6165350    0.0728050  
O    -4.8585110    2.9783680    0.2933360  
C    -3.6584970    5.0177220   -0.1251360  
O    -4.8998710    5.6102850   -0.0704380  
C    -2.4698460    5.6975290   -0.3449790  
H     0.4803990    6.3460890   -0.7356400  
H    -2.5251550    1.8098230    0.2193510  
H    -5.5610500    3.6512990    0.2889700  
H    -4.8158090    6.5663140   -0.2030070  
H    -2.4673220    6.7763940   -0.4839720  
H     1.9234870    4.0873390   -0.5961720  
C     0.5063330    1.8269380   -0.1763810  
C     1.8300180    1.4173250   -0.1166580  
C     1.7757850    0.0064320   -0.0359490  
C     0.3003000   -0.3252470   -0.0708600  
N    -0.4200130    0.7611910   -0.1484830  
C    -0.2110760   -1.6823620   -0.0241480  
C     0.7650520   -2.6552130    0.0566340  
O     0.5396680   -3.9538510    0.0810810  
C     2.2606770   -2.3474100    0.1122730  
O     2.9885280   -3.3341680    0.2551320  
C     2.7370880   -0.9774470    0.0306490  
H     2.7182100    2.0281870   -0.0955990  
H     1.4431640   -4.3579810    0.1602490  
C    -1.6368890   -1.9615150   -0.0570220  
C    -2.6556320   -1.1469500   -0.4751950  
C    -3.8698630   -1.9039310   -0.2808230  
C    -3.4033860   -3.2084070    0.2897980  
N    -2.1125170   -3.2431740    0.4181870  
C    -4.3341090   -4.2531320    0.6400100  
C    -5.6493440   -4.0168770    0.4283840  
O    -6.6296410   -4.8919310    0.6994560  
C    -6.1482360   -2.7095590   -0.1468200  
O    -7.3654980   -2.5938060   -0.2972420  
C    -5.1846770   -1.6582860   -0.4889700  
H    -2.5719970   -0.1526300   -0.8810510  
H    -3.9727520   -5.1881910    1.0532380  
H    -7.4598110   -4.4312070    0.4409210  
H    -5.5774800   -0.7265370   -0.8842120  
C     5.5972590    1.4744770    2.4766970  
C     4.4477090    0.9219320    2.0185400  
C     4.8485160    0.0960110    0.8847860  
C     6.3316670    0.2794660    0.8146670  
N     6.7616730    1.0846680    1.7451750  
C     7.1372340   -0.3983230   -0.1673570  
C     6.5070650   -1.2168360   -1.0402200  
O     7.1278780   -1.9031170   -2.0130510  
C     5.0131520   -1.4035330   -1.0201910  
O     4.5213530   -2.0762910   -1.9203500  
C     4.1866930   -0.7310070    0.0332980  
H     3.4457090    1.0490300    2.4015340  
H     8.2103800   -0.2447860   -0.1892420  
H     6.4144640   -2.3701300   -2.5007620  
H     5.7205840    2.1498220    3.3153070  
