60


C    -6.9988450   -1.2443740    3.0304290  
C    -5.9083990   -0.9625040    2.2461730  
C    -6.3979860   -0.5657830    0.9555620  
C    -7.8160610   -0.6147200    1.0302670  
N    -8.1503270   -1.0473530    2.2975360  
C    -8.6511540   -0.2366550   -0.0240600  
C    -8.0372890    0.2328840   -1.1755700  
O    -8.7903090    0.6313670   -2.2336650  
C    -6.6237300    0.3147280   -1.2822550  
O    -6.1957380    0.7766670   -2.5025820  
C    -5.7744200   -0.1166050   -0.2518600  
H    -4.8778250   -1.0303560    2.5611910  
H    -9.0904150   -1.1371600    2.6499490  
H    -9.7341260   -0.2715860    0.0364460  
H    -8.1558470    0.9562980   -2.9015480  
H    -5.4494300    1.3969280   -2.3334570  
H    -7.0494540   -1.5735350    4.0586390  
C    -2.7204420   -3.2327130    0.5553830  
C    -3.8735980   -2.5440550    0.3575030  
C    -3.5158120   -1.2017740   -0.0400460  
C    -2.0397000   -1.1647890   -0.0695960  
N    -1.6200910   -2.4265240    0.2789180  
C    -1.2505420   -0.0609200   -0.3378060  
C    -2.0062660    1.1561900   -0.6531680  
O    -1.5096560    2.2606030   -0.8060510  
C    -3.5637930    1.0538630   -0.8679740  
O    -4.0781800    2.0031400   -1.4533370  
C    -4.3047110   -0.1177460   -0.3785650  
H    -4.8766980   -2.9245800    0.4639260  
H    -2.5719320   -4.2618840    0.8531660  
H    -0.6593970   -2.6518350    0.4934410  
C     0.9994220   -1.1655900   -0.6832560  
C     0.2022960   -0.1058450   -0.3301150  
C     1.1771360    0.9308790    0.1032870  
C     2.5039500    0.2844080   -0.0612200  
N     2.3761620   -0.9284060   -0.5294080  
C     3.7581500    0.9670490    0.2661410  
C     3.6169660    2.2395540    0.7640050  
O     4.6458230    3.0325700    1.1328580  
C     2.2967070    2.8960670    0.9566280  
O     2.2944820    4.0403970    1.4200250  
C     1.0624430    2.1803330    0.5920790  
H     4.2190020    3.8675160    1.4414290  
H     0.1251760    2.7089460    0.7060670  
H     0.6899950   -2.1080710   -1.1190720  
C     5.0468620    0.3194580    0.0821070  
C     5.3338290   -0.9356860   -0.4052890  
C     6.7608720   -1.1015450   -0.3872000  
C     7.3210010    0.1622000    0.1534280  
N     6.2431600    0.9727300    0.4162940  
C     8.6477120    0.3991020    0.3267460  
C     9.5941510   -0.6490470   -0.0362810  
O    10.8046980   -0.5293560    0.0849760  
C     9.0225900   -1.9985150   -0.6103990  
O     9.8012810   -2.8888270   -0.9183720  
C     7.5720170   -2.1340870   -0.7527630  
H     4.6000370   -1.6516750   -0.7359910  
H     9.0402690    1.3304240    0.7231780  
H     7.1880830   -3.0684080   -1.1511750  
H     6.2808870    1.9107770    0.7857360  
