64


C     1.2092700   -0.6561050    1.7226410  
C     2.5507240   -0.5386150    1.5130730  
C     2.7361790   -0.0984560    0.1568510  
C     1.4494040    0.0274670   -0.4232350  
N     0.5130290   -0.3305560    0.5543030  
C     1.2542410    0.5102080   -1.7212210  
C     2.3833810    0.8380110   -2.4573460  
O     2.2492640    1.2941940   -3.7385100  
C     3.6780750    0.7037580   -1.9013280  
O     4.7009590    1.0527560   -2.7576200  
C     3.8841300    0.2455660   -0.5967530  
H     3.3276570   -0.7407830    2.2360940  
H     0.2767380    0.6150110   -2.1723930  
H     3.1478740    1.4209920   -4.0894590  
H     5.5464860    0.8037940   -2.3449330  
H     0.6597300   -0.9402120    2.6053690  
C    -2.4939610    1.2202200    3.2412480  
C    -3.6363330    0.9383760    2.5699670  
C    -3.2060630    0.2790590    1.3394700  
C    -1.7232800    0.2453010    1.4538030  
N    -1.3139610    0.7953170    2.5622130  
C    -0.8843920   -0.3574240    0.4246190  
C    -1.5326670   -0.9266760   -0.6322380  
O    -0.9046370   -1.5561100   -1.6431640  
C    -3.0154100   -0.8576450   -0.7942340  
O    -3.4793900   -1.2911410   -1.8459290  
C    -3.8731150   -0.2586660    0.2850760  
H    -4.6559720    1.1305090    2.8720650  
H    -1.6208910   -1.7970120   -2.2724950  
H    -2.3864650    1.7024200    4.2054750  
C    -6.7174810    3.1426880    0.2365670  
C    -7.8514370    2.4242160   -0.0350510  
C    -7.4669460    1.0430980   -0.1083180  
C    -6.0694460    0.9863830    0.1335830  
N    -5.6398290    2.2803990    0.3327770  
C    -5.3307080   -0.2201760    0.0944410  
C    -6.0614730   -1.3868740   -0.1571240  
O    -5.4350520   -2.5933160   -0.1227740  
C    -7.4595350   -1.3421240   -0.3848890  
O    -8.0219740   -2.5850290   -0.6050720  
C    -8.1627560   -0.1528100   -0.3709110  
H    -8.8446980    2.8288160   -0.1718410  
H    -4.6955950    2.5472780    0.5650760  
H    -6.0872320   -3.2663600   -0.3853140  
H    -8.9605380   -2.4837440   -0.8214040  
H    -9.2356320   -0.1457210   -0.5528040  
H    -6.5791070    4.2057780    0.3733280  
C     6.3775930   -3.2599560    0.7771780  
C     5.3651830   -2.4720370    0.2954630  
C     5.8362560   -1.1158460    0.3242830  
C     7.1604250   -1.1462650    0.8373350  
N     7.4632090   -2.4660400    1.1036630  
C     7.9424130    0.0048270    0.9976440  
C     7.3726500    1.2146040    0.6361330  
O     8.0786160    2.3745420    0.7832400  
C     6.0532000    1.2685490    0.1154490  
O     5.6226750    2.5448060   -0.1865510  
C     5.2666520    0.1279220   -0.0541340  
H     4.3945040   -2.8107640   -0.0365310  
H     8.3362250   -2.7976930    1.4820250  
H     8.9525560   -0.0169660    1.3940510  
H     7.4860890    3.1007750    0.5211840  
H     4.6682390    2.5117300   -0.3738890  
H     6.4205770   -4.3307700    0.9184840  
