62


C    -2.4622330   -1.4754120   -1.7569890  
C    -3.6914730   -2.0666150   -1.6666570  
C    -3.6024400   -3.0828090   -0.6548180  
C    -2.2736430   -3.0674290   -0.1617130  
N    -1.5821480   -2.0671250   -0.8450310  
C    -1.8391320   -3.9175510    0.8614810  
C    -2.7619710   -4.8088030    1.3859650  
O    -2.3894430   -5.6650980    2.3812330  
C    -4.0960720   -4.8432660    0.8998680  
O    -4.8953200   -5.7827170    1.5248690  
C    -4.5231080   -3.9965510   -0.1055850  
H    -4.5563480   -1.8241060   -2.2694990  
H    -0.8197460   -3.9245930    1.2281430  
H    -3.1576050   -6.2281480    2.5784260  
H    -5.7537080   -5.8234110    1.0782300  
H    -5.5516450   -4.0344770   -0.4593690  
H    -2.0975720   -0.7110570   -2.4286140  
C    -0.1066370    1.8520890    0.1682450  
C     1.2430710    1.5802490    0.1200390  
C     1.4180650    0.1874460   -0.1903760  
C     0.0582960   -0.3630460   -0.3360350  
N    -0.8205970    0.6874430   -0.1511140  
C    -0.2481230   -1.6585340   -0.6358690  
C     0.8747720   -2.5798350   -0.8510760  
O     0.7325510   -3.7396040   -1.1961080  
C     2.3340960   -2.0325780   -0.6209200  
O     3.2393990   -2.8463690   -0.6094610  
C     2.5441000   -0.5864340   -0.3627660  
H     2.0346890    2.3073020    0.2234650  
H    -1.7925140    0.5352550    0.0781930  
C    -0.3006220    4.1832500    1.1146670  
C    -0.7857670    3.0863630    0.4475500  
C    -2.1625550    3.4744590    0.0723980  
C    -2.3069650    4.8540000    0.6209050  
N    -1.2097270    5.2490360    1.2199190  
C    -3.5161670    5.6091480    0.4651580  
C    -4.5389150    5.0369360   -0.2188050  
O    -5.7210540    5.6291840   -0.4383380  
C    -4.4187080    3.6595600   -0.8061350  
O    -5.3824400    3.2073520   -1.4199820  
C    -3.1596270    2.9006070   -0.6291320  
H    -3.5881870    6.6076400    0.8815580  
H    -6.2496340    4.9851960   -0.9588650  
H    -3.1195610    1.9195230   -1.0924520  
H     0.6790800    4.2864220    1.5664220  
C     4.5683390    1.4610170    3.0230960  
C     5.8015530    1.5926180    2.4408280  
C     5.7076670    1.0330370    1.1220400  
C     4.3739900    0.5780350    0.9561450  
N     3.7029260    0.8552780    2.1297010  
C     3.9166610   -0.0748670   -0.2117220  
C     4.8621170   -0.2422020   -1.2300790  
O     4.4849690   -0.8042290   -2.4093250  
C     6.1954780    0.2166420   -1.0808710  
O     6.9874060   -0.0149480   -2.1906910  
C     6.6269550    0.8456970    0.0708960  
H     6.6777010    2.0314250    2.8980880  
H     2.7461290    0.6020720    2.3193940  
H     5.2894990   -0.9228710   -2.9439410  
H     7.9107300    0.1825760   -1.9753210  
H     7.6561540    1.1876980    0.1598810  
H     4.2247950    1.7512290    4.0059770  
