60


C    -5.9973600    1.4801100   -1.6234540  
C    -7.3373580    1.2615250   -1.5200300  
C    -7.5304800    0.1890900   -0.5802160  
C    -6.2480140   -0.2250550   -0.1460040  
N    -5.3038130    0.5762770   -0.8078820  
C    -6.0733630   -1.2079860    0.8326840  
C    -7.2126320   -1.8080440    1.3532270  
O    -7.0867820   -2.7799210    2.3042310  
C    -8.5011540   -1.4218200    0.9118790  
O    -9.5342730   -2.1081480    1.5193490  
C    -8.6700840   -0.4309140   -0.0411480  
H    -8.1077220    1.8055900   -2.0493570  
H    -5.1021980   -1.5263450    1.1865270  
H    -7.9845310   -3.0719740    2.5381560  
H   -10.3814410   -1.7935430    1.1708460  
H    -9.6683750   -0.1309430   -0.3536910  
H    -5.4468180    2.2009480   -2.2054200  
C    -2.4683680    3.8095320   -0.3492080  
C    -1.2995730    3.1382340   -0.2321300  
C    -1.6572570    1.7286050   -0.3408860  
C    -3.1422810    1.7453080   -0.5356950  
N    -3.6042060    2.9599180   -0.5385100  
C    -3.9107740    0.5168980   -0.6945170  
C    -3.1992070   -0.6521240   -0.7168200  
O    -3.7624230   -1.8597810   -0.9005990  
C    -1.7302590   -0.6952700   -0.5060810  
O    -1.1848920   -1.7988520   -0.4783370  
C    -0.9548190    0.5718710   -0.3335300  
H    -0.3082160    3.5415820   -0.0850910  
H    -3.0224820   -2.5035170   -0.8411690  
H    -2.6294420    4.8802900   -0.3216110  
C     1.9687830    1.7812090    2.8181810  
C     0.8164310    1.6089350    2.1326790  
C     1.2026670    0.9343340    0.9003790  
C     2.6866150    0.7643700    1.0217030  
N     3.1170540    1.2612780    2.1419780  
C     3.4851300    0.0989280   -0.0131110  
C     2.7692540   -0.3542550   -1.0920830  
O     3.3193470   -0.9759410   -2.1547610  
C     1.2942330   -0.1806460   -1.2431970  
O     0.7928360   -0.5579010   -2.3017190  
C     0.5046730    0.4678000   -0.1633490  
H    -0.1835030    1.8995870    2.4195820  
H     2.5671540   -1.1490100   -2.7690580  
H     2.1108190    2.2446930    3.7865110  
C     4.9235690   -0.0511780    0.1186160  
C     5.7510350    0.3638640    1.1378510  
C     7.0939980   -0.0199860    0.7995210  
C     7.0146620   -0.7046440   -0.5146910  
N     5.6868080   -0.6916730   -0.8693280  
C     8.0845650   -1.2171700   -1.1768540  
C     9.4036820   -1.0931000   -0.5675060  
O    10.4239100   -1.5215660   -1.0865440  
C     9.5117700   -0.3709310    0.8265490  
O    10.6085680   -0.2567700    1.3525720  
C     8.2847730    0.1403920    1.4423420  
H     5.4253270    0.8814110    2.0249720  
H     8.0082210   -1.7154460   -2.1383420  
H     8.3700280    0.6369920    2.4041700  
H     5.2948270   -1.0771530   -1.7149700  
