62


C     4.3628870    0.3928240    0.0164660  
C     4.9644070    1.4293720    0.6855320  
C     6.3762790    1.3002540    0.4659010  
C     6.5729220    0.1496000   -0.3422050  
N     5.3267800   -0.3912740   -0.6013440  
C     7.8407120   -0.2854450   -0.7451260  
C     8.9330630    0.4584330   -0.3266670  
O    10.1905980    0.0836620   -0.6959920  
C     8.7570000    1.6109170    0.4865010  
O     9.9405540    2.2385290    0.8222100  
C     7.5035640    2.0353510    0.8848320  
H     4.4561000    2.1703090    1.2866540  
H     5.1297880   -1.1505590   -1.2353040  
H     7.9949540   -1.1651410   -1.3612560  
H    10.8105100    0.7207160   -0.3007240  
H     9.7547020    3.0043790    1.3852830  
H     7.3936830    2.9199060    1.5088170  
C     2.0327500    1.0201070   -0.5482660  
C     0.7963720    0.4578500   -0.5633210  
C     0.9336970   -0.9161530   -0.1409420  
C     2.3705010   -1.1171810    0.1225680  
N     2.9994980    0.1004740   -0.1331680  
C     2.9443960   -2.2777330    0.5513750  
C     2.0897370   -3.4331090    0.7072670  
O     2.4737140   -4.5268590    1.0969060  
C     0.5692570   -3.2834690    0.3340390  
O    -0.0983930   -4.3098210    0.3052740  
C     0.0124400   -1.9381250    0.0273170  
H    -0.1048710    0.9478780   -0.8960330  
H     3.9969010   -2.3693110    0.7935950  
H     2.3471610    2.0175500   -0.8224580  
C    -1.4193800   -1.7672620   -0.0776980  
C    -2.2010380   -0.6095430   -0.0197570  
C    -3.5605380   -0.9893870   -0.1421990  
C    -3.5744210   -2.4145570   -0.2530710  
N    -2.2765020   -2.8472670   -0.2269880  
C    -4.7533040   -3.1554260   -0.3407680  
C    -5.9459500   -2.4480070   -0.2799600  
O    -7.1275910   -3.1072620   -0.3441730  
C    -5.9707700   -1.0304880   -0.1449260  
O    -7.2438880   -0.5098270   -0.1250570  
C    -4.7998070   -0.2675450   -0.1141420  
H    -1.8301100    0.3885070    0.1435100  
H    -1.9347100   -3.8000390   -0.1852520  
H    -4.7664190   -4.2367400   -0.4251980  
H    -7.8202030   -2.4245360   -0.2495800  
H    -7.2705650    0.1607180    0.5912550  
C    -2.6172330    2.9519300   -2.3285970  
C    -3.1208010    1.7423000   -1.9853040  
C    -4.0003580    1.9996610   -0.8457010  
C    -3.8945330    3.4693090   -0.6439880  
N    -3.0789030    4.0224840   -1.4980740  
C    -4.6275050    4.1519810    0.3920980  
C    -5.4637050    3.4134900    1.1546790  
O    -6.2380220    3.9252300    2.1300430  
C    -5.6361820    1.9420930    0.9310290  
O    -6.5075120    1.3886770    1.6170510  
C    -4.7911340    1.2072630   -0.0620990  
H    -2.9472420    0.7870630   -2.4574920  
H    -4.5184050    5.2226120    0.5237020  
H    -6.7611580    3.1743270    2.4808030  
H    -1.9418600    3.1869860   -3.1425940  
