64


C    -4.7832990   -0.8323180    2.0447980  
C    -5.2844630   -2.0898710    2.2151040  
C    -4.6248650   -2.9560020    1.2721640  
C    -3.7133420   -2.1652750    0.5335840  
N    -3.8284760   -0.8652200    1.0238180  
C    -2.8924080   -2.6760330   -0.4752470  
C    -2.9975880   -4.0325990   -0.7463040  
O    -2.2243730   -4.5902470   -1.7186990  
C    -3.9058290   -4.8489990   -0.0191490  
O    -3.8906400   -6.1740460   -0.4055670  
C    -4.7127670   -4.3307850    0.9769220  
H    -6.0428650   -2.3743400    2.9316410  
H    -2.2016040   -2.0626890   -1.0432330  
H    -2.4549100   -5.5341350   -1.7686040  
H    -4.5608600   -6.6668140    0.0906260  
H    -5.4006080   -4.9752060    1.5205340  
H    -5.0043560    0.1019300    2.5399010  
C    -1.8648510    0.6006120    1.1122960  
C    -1.3949910    1.7205830    0.4943620  
C    -2.3994660    2.0864040   -0.5079380  
C    -3.4946070    1.0937280   -0.4078720  
N    -3.1036460    0.2088740    0.5921240  
C    -4.6183650    1.0922290   -1.1623970  
C    -4.7749410    2.1473760   -2.1639480  
O    -5.7573580    2.2431860   -2.8812780  
C    -3.6161840    3.1990760   -2.3161490  
O    -3.7161350    4.0734350   -3.1607440  
C    -2.4512830    3.0887340   -1.4277010  
H    -5.3984140    0.3451810   -1.0623700  
H    -1.6498990    3.8096520   -1.5577060  
H    -1.4247960    0.0186240    1.9104600  
C     2.8141610    0.2067960    0.7599650  
C     1.4552470    0.3084020    0.5851160  
C     1.1056910    1.6812730    0.8212700  
C     2.3082040    2.3730300    1.1201910  
N     3.3378580    1.4507700    1.0736590  
C     2.3535260    3.7465100    1.3730520  
C     1.1535720    4.4394490    1.3289530  
O     1.1366110    5.7791590    1.5828040  
C    -0.0633580    3.7726050    1.0355780  
O    -1.1612700    4.6092980    1.0734390  
C    -0.1167340    2.4020950    0.7742940  
H     0.8041610   -0.4950000    0.2730600  
H     4.2890490    1.6091080    1.3698050  
H     3.2733850    4.2771700    1.5953220  
H     0.2153450    6.0776230    1.4876010  
H    -1.9536700    4.1414650    0.7677660  
C     3.3357600   -2.1588370    1.2525320  
C     4.3485680   -3.0407690    1.0058390  
C     5.3553530   -2.3375060    0.2594520  
C     4.8883130   -1.0121360    0.0728590  
N     3.6432240   -0.9151000    0.6991560  
C     5.6092170   -0.0540350   -0.6521710  
C     6.8359120   -0.4363000   -1.1750050  
O     7.5781750    0.4616260   -1.8861490  
C     7.3275220   -1.7534490   -0.9817060  
O     8.5636650   -1.9786480   -1.5571500  
C     6.6038870   -2.7007760   -0.2808440  
H     4.3814100   -4.0728180    1.3272250  
H     5.2414080    0.9488920   -0.8368860  
H     8.3818990    0.0005450   -2.1820920  
H     8.8147200   -2.9056570   -1.4319220  
H     6.9936820   -3.7090710   -0.1549270  
H     2.4112490   -2.2790930    1.7978610  
