62


C     4.8716240   -2.3200070   -0.9407280  
C     4.9969220   -0.9796190   -0.6260170  
C     6.3316520   -0.8112750   -0.0955440  
C     6.9546010   -2.0837280   -0.1165970  
N     6.0407440   -2.9818700   -0.6340910  
C     8.2598760   -2.2991830    0.3444050  
C     8.9498910   -1.2035020    0.8362700  
O    10.2256100   -1.3512520    1.2934900  
C     8.3393040    0.0801990    0.8690820  
O     9.1546010    1.0680380    1.3876690  
C     7.0508480    0.2865480    0.4174380  
H     6.2260510   -3.9534090   -0.8289050  
H     8.7384800   -3.2729460    0.3274490  
H    10.5333710   -0.4733150    1.5782400  
H     8.7042190    1.9233750    1.3267270  
H     6.6107360    1.2794230    0.4354050  
H     4.0525920   -2.8402850   -1.4184710  
C     0.8293200   -1.1444240    0.6610660  
C     0.4007570    0.0883960    0.1847170  
C     1.5537320    0.7100220   -0.4408410  
C     2.6292090   -0.1973130   -0.3049000  
N     2.1480320   -1.3107010    0.3667700  
C     3.9364930    0.0307420   -0.7818920  
C     4.1286910    1.2604270   -1.4169130  
O     5.3537770    1.5837170   -1.9194600  
C     3.0594020    2.1799360   -1.5822940  
O     3.4230360    3.3278550   -2.2563100  
C     1.7815530    1.9243590   -1.1176380  
H     2.7341750   -2.0804720    0.6582280  
H     5.2560730    2.4299920   -2.3909640  
H     2.6325180    3.8294240   -2.5056950  
H     0.9816370    2.6364010   -1.3028260  
H     0.2806550   -1.8899250    1.2184960  
C    -0.9303390    0.6072000    0.3381880  
C    -2.1291740   -0.0526700    0.5221750  
C    -3.1631190    0.9237540    0.6492370  
C    -2.5040280    2.2457000    0.5405010  
N    -1.1621850    1.9883020    0.3008880  
C    -3.1377290    3.4377930    0.6465420  
C    -4.5840250    3.4377210    0.8573060  
O    -5.2425370    4.4620850    0.9331280  
C    -5.3221530    2.0553180    0.9823950  
O    -6.5198050    2.0458150    1.2184050  
C    -4.5220450    0.8326950    0.8340280  
H    -2.2660500   -1.1234410    0.4879320  
H    -2.6321450    4.3948230    0.5626360  
H    -0.4334060    2.6619460    0.4872100  
C    -4.9296090   -1.3003350    2.0662770  
C    -5.7240970   -2.3973250    1.9933230  
C    -6.5439800   -2.2551730    0.8097710  
C    -6.1561080   -0.9620960    0.1934730  
N    -5.1551570   -0.4225280    1.0004920  
C    -6.6845980   -0.4777200   -0.9570370  
C    -7.7102120   -1.2659410   -1.6362160  
O    -8.2312070   -0.9168940   -2.6848870  
C    -8.1479860   -2.6321010   -0.9910810  
O    -9.0053930   -3.3022340   -1.5466590  
C    -7.4939450   -3.0502150    0.2496720  
H    -5.7502450   -3.2186760    2.6949190  
H    -6.3920130    0.4697850   -1.3949820  
H    -7.7917980   -4.0009040    0.6817940  
H    -4.1939180   -1.0303470    2.8123810  
