64


C     2.9432490   -1.6728950   -2.7480280  
C     2.9827300   -1.3602710   -1.4095380  
C     3.3420290   -2.5554260   -0.6914230  
C     3.5092340   -3.5708890   -1.6659130  
N     3.2510400   -3.0076370   -2.9016630  
C     3.8614340   -4.8845890   -1.3296730  
C     4.0459040   -5.1727530    0.0129660  
O     4.3946870   -6.4341280    0.3960480  
C     3.8757170   -4.1649310    1.0020480  
O     4.0882110   -4.6117960    2.2912080  
C     3.5262770   -2.8705010    0.6696170  
H     3.3046610   -3.4910480   -3.7843830  
H     3.9952830   -5.6665910   -2.0700670  
H     4.4931560   -6.4239720    1.3639450  
H     4.0408050   -3.8642410    2.9056160  
H     3.4026280   -2.1123670    1.4388930  
H     2.7247230   -1.0411580   -3.5965800  
C     1.4775790    0.5598990   -0.9954910  
C     1.5140420    1.7972700   -0.3713030  
C     2.8436240    1.9079860    0.2063630  
C     3.5318430    0.7094730   -0.1035150  
N     2.6745050   -0.0995860   -0.8514350  
C     4.8470510    0.4520750    0.3000190  
C     5.4815830    1.4231090    1.0587510  
O     6.7648070    1.2303560    1.4822980  
C     4.8051800    2.6226780    1.3978130  
O     5.5609640    3.4952180    2.1593090  
C     3.5100490    2.8735440    0.9854700  
H     5.3686030   -0.4613210    0.0383860  
H     7.0289760    2.0333790    1.9639290  
H     5.0808530    4.3307520    2.2585010  
H     3.0305490    3.8146970    1.2316090  
H     0.6813080    0.1058180   -1.5660970  
C    -2.9192290    1.2336620   -0.0891270  
C    -1.5624640    1.0009350   -0.0773780  
C    -0.9407530    2.2796900   -0.2625710  
C    -2.0854610    3.2280630   -0.3658490  
N    -3.2361340    2.6203380   -0.2724350  
C    -1.8948650    4.6469680   -0.5322450  
C    -0.6221980    5.0938820   -0.5694400  
O    -0.2759910    6.3845700   -0.6953110  
C     0.5693570    4.1618730   -0.4673990  
O     1.6735100    4.7140790   -0.5213140  
C     0.3724210    2.7043450   -0.3362480  
H    -1.0651120    0.0552340    0.0784040  
H    -2.7482740    5.3115450   -0.6070610  
H     0.7090120    6.3747220   -0.7048810  
C    -4.0242070    0.3409670    0.0598780  
C    -4.1039900   -1.0373630    0.2519930  
C    -5.4784670   -1.3764490    0.3322330  
C    -6.2210400   -0.1614450    0.1821740  
N    -5.3154380    0.8502770    0.0198440  
C    -7.6213000   -0.1277150    0.2115860  
C    -8.2851120   -1.3292230    0.3940230  
O    -9.6453510   -1.3560630    0.4310870  
C    -7.5618160   -2.5511060    0.5452670  
O    -8.3764470   -3.6526080    0.7173620  
C    -6.1851480   -2.5880690    0.5166680  
H    -3.2608650   -1.7107140    0.3236560  
H    -5.4891710    1.8373940   -0.1088130  
H    -8.1899900    0.7891610    0.0988260  
H    -9.9140290   -2.2814270    0.5669670  
H    -7.8312230   -4.4468030    0.8189450  
H    -5.6543560   -3.5305820    0.6341510  
