60


C     4.3287310    2.3642520    0.8540630  
C     5.6191510    2.6517570    0.5125340  
C     6.0944950    1.5723250   -0.3086570  
C     5.0318220    0.6435030   -0.4347580  
N     3.9501980    1.1419970    0.2929560  
C     5.1333920   -0.5227400   -1.2031340  
C     6.3416320   -0.7654280   -1.8390750  
O     6.4949210   -1.8891440   -2.5975810  
C     7.4227100    0.1465750   -1.7129860  
O     8.5567600   -0.2343560   -2.4042150  
C     7.3120100    1.3034780   -0.9639910  
H     6.1740800    3.5282900    0.8180050  
H     4.3188720   -1.2292930   -1.3149750  
H     7.4042870   -1.8822860   -2.9427870  
H     9.2607640    0.4136150   -2.2539180  
H     8.1500330    1.9937410   -0.8893730  
H     3.6275510    2.9019650    1.4762650  
C     1.4993900    1.1191840    0.0532480  
C     2.6824720    0.5548110    0.4163470  
C     2.3846350   -0.7404920    1.0136120  
C     0.9118770   -0.8797170    0.9636390  
N     0.4188570    0.2929700    0.3831260  
C     0.2311100   -1.9595230    1.4241280  
C     0.9948730   -3.0555050    2.0197610  
O     0.4677190   -4.0679510    2.4545900  
C     2.5580660   -2.9168020    2.1002510  
O     3.2082210   -3.8161800    2.6066920  
C     3.1751120   -1.6996880    1.5583290  
H    -0.8490270   -2.0551870    1.3794390  
H     4.2549440   -1.6078820    1.6098320  
H     1.3227740    2.0680040   -0.4342340  
C    -1.8335130   -0.2562150   -0.4430070  
C    -0.9300370    0.5823420    0.1320580  
C    -1.6264940    1.8021310    0.4992010  
C    -3.0341050    1.5991520    0.0822200  
N    -3.1036560    0.3194020   -0.4892050  
C    -4.0181580    2.5031510    0.2999630  
C    -3.6745230    3.7688240    0.9552160  
O    -4.5014000    4.6382450    1.1755290  
C    -2.1858090    4.0043360    1.3889240  
O    -1.8812420    5.0510890    1.9365420  
C    -1.2171920    2.9372240    1.1214490  
H    -5.0466530    2.3538380    0.0001520  
H    -0.1968880    3.0893560    1.4587200  
H    -1.6838640   -1.2519240   -0.8281740  
C    -4.2418350   -3.6799130    0.6680000  
C    -5.4496700   -3.8043200    0.0738390  
C    -5.6704130   -2.5420120   -0.6269690  
C    -4.4413530   -1.7481830   -0.3289090  
N    -3.6132840   -2.4125050    0.4192150  
C    -4.2611210   -0.3979370   -0.8461150  
C    -5.2436480    0.0997430   -1.6500180  
O    -5.1978520    1.3107720   -2.2273900  
C    -6.4854590   -0.6810510   -1.9504400  
O    -7.3184650   -0.1515030   -2.6848310  
C    -6.6552630   -2.0397470   -1.3954590  
H    -6.1254950   -4.6473810    0.1038140  
H    -6.0388130    1.3872030   -2.7334720  
H    -7.5701530   -2.5661740   -1.6490750  
H    -3.7138310   -4.3978130    1.2828650  
