60


C    -4.4961470    0.7836310   -0.0589710  
C    -4.1620710   -0.4915550    0.4142320  
C    -5.3331540   -1.2909880    0.3617120  
C    -6.3772320   -0.4653480   -0.1537070  
N    -5.8398180    0.7711430   -0.3999450  
C    -7.6839480   -0.9311850   -0.3373400  
C    -7.9446970   -2.2488350    0.0052970  
O    -9.1969630   -2.7555830   -0.1511620  
C    -6.9138540   -3.0893290    0.5233910  
O    -7.3427840   -4.3692000    0.8115700  
C    -5.6266650   -2.6312290    0.7035170  
H    -3.2137440   -0.7922830    0.8356160  
H    -6.3141920    1.6198710   -0.6853600  
H    -8.4813560   -0.3084660   -0.7283540  
H    -9.1751240   -3.6833740    0.1418800  
H    -6.6032350   -4.8904970    1.1574670  
H    -4.8557140   -3.2890610    1.0994290  
C    -0.1339450    1.3980980   -0.1072290  
C    -0.1228860    2.7745870   -0.1573370  
C    -1.4856020    3.2210980   -0.2086920  
C    -2.3189090    2.0031740   -0.1635870  
N    -1.4500600    0.9427400   -0.0786990  
C    -3.6995810    1.9825620   -0.1969850  
C    -4.3407500    3.3012580   -0.4108500  
O    -5.5400530    3.4364220   -0.6240530  
C    -3.4666650    4.6131980   -0.3765420  
O    -4.0548400    5.6851710   -0.4411400  
C    -2.0304330    4.4766190   -0.2862630  
H     0.7533000    3.4068420   -0.1691230  
H    -1.4269160    5.3783290   -0.2895010  
H    -1.6762080   -0.0320110   -0.2186800  
C     0.9260760    0.4289960   -0.0814870  
C     2.2880030    0.6119100   -0.0887100  
C     2.8550340   -0.7134330   -0.0707780  
C     1.6670240   -1.6205700   -0.0656220  
N     0.5478060   -0.9479180   -0.0651270  
C     1.7964560   -3.0513550   -0.0873810  
C     3.0487570   -3.5636190   -0.1063370  
O     3.3228490   -4.8721180   -0.1226000  
C     4.2778950   -2.6844180   -0.0550380  
O     5.3538670   -3.2552350    0.0837280  
C     4.1361800   -1.1987230   -0.0906240  
H     2.8236940    1.5482960   -0.1510270  
H     0.9137260   -3.6805980   -0.0942730  
H     4.3035110   -4.9375890   -0.0813690  
C     5.5011950    2.1177350    2.5052930  
C     6.7230980    2.3346830    1.9585260  
C     6.8704740    1.4080510    0.8549210  
C     5.6119470    0.6231570    0.8018550  
N     4.8299340    1.1005170    1.8279980  
C     5.3601160   -0.3961710   -0.0825360  
C     6.4000860   -0.6579570   -1.1046690  
O     6.2245090   -1.4216600   -2.0368530  
C     7.7553930    0.1279600   -1.0235190  
O     8.6454430   -0.1559400   -1.8076370  
C     7.8922840    1.1756900   -0.0112780  
H     7.4560410    3.0576690    2.2850370  
H     8.8282250    1.7247190    0.0246620  
H     5.0245760    2.6053130    3.3452110  
H     3.8912710    0.7864510    2.0243850  
