62


C     4.1187320    0.2845640    0.1895310  
C     4.0502670   -1.0233830   -0.2966530  
C     5.3745330   -1.5439930   -0.3215380  
C     6.2331310   -0.5135180    0.1597790  
N     5.4491810    0.5735900    0.4514270  
C     7.6188200   -0.6808730    0.2770890  
C     8.1472800   -1.9066920   -0.0932600  
O     9.4883040   -2.1261590    0.0015830  
C     7.3036670   -2.9497640   -0.5751390  
O     7.9868520   -4.1051470   -0.9014780  
C     5.9392680   -2.7845970   -0.6927420  
H     3.1481170   -1.5811210   -0.5052130  
H     5.7173890    1.4354750    0.9108940  
H     8.2761170    0.1002160    0.6439850  
H     9.6545540   -3.0382320   -0.2935000  
H     7.3585100   -4.7826780   -1.1917830  
H     5.3154860   -3.5958850   -1.0630110  
C     0.0225890    0.5959910   -1.3511760  
C    -0.4198760    1.6789550   -0.6456790  
C     0.7043950    2.1183040    0.1777480  
C     1.8127640    1.1936720   -0.1054210  
N     1.3269860    0.2668190   -1.0101930  
C     3.0762040    1.2597080    0.4390750  
C     3.3226370    2.4367460    1.3001660  
O     4.4320450    2.7446950    1.7194420  
C     2.1144440    3.3630010    1.7074020  
O     2.3259390    4.2431420    2.5288920  
C     0.8271670    3.1383850    1.0735820  
H     0.0117420    3.8087770    1.3168560  
H    -0.5036230    0.0101950   -2.0938920  
H     1.9366920   -0.3088700   -1.5740200  
C    -4.3456910   -0.2668570   -0.1159830  
C    -5.1290590    0.8754210   -0.3138060  
C    -4.2579280    1.9637650   -0.5517180  
C    -2.9273660    1.4507760   -0.5012740  
N    -3.0134640    0.1120070   -0.2409310  
C    -1.7778390    2.2491970   -0.6914640  
C    -2.0184470    3.6009960   -0.9385740  
O    -0.9759250    4.4417570   -1.1618360  
C    -3.3448670    4.1319860   -0.9846270  
O    -3.3723460    5.4860030   -1.2400090  
C    -4.4557270    3.3419030   -0.8028960  
H    -6.2076020    0.9015600   -0.3349970  
H    -2.2519450   -0.5484410   -0.1706300  
H    -1.3423560    5.3324170   -1.3074790  
H    -4.2890340    5.7981710   -1.2691780  
H    -5.4558160    3.7667830   -0.8457240  
C    -8.1360380   -2.3143470    1.1671370  
C    -7.2277910   -1.3338940    0.9205500  
C    -6.0046030   -2.0263670    0.5354250  
C    -6.3714850   -3.4538290    0.6220610  
N    -7.6202220   -3.6236420    0.9773840  
C    -5.4303010   -4.5110160    0.3486700  
C    -4.1630210   -4.1638820    0.0339410  
O    -3.1748540   -5.0525320   -0.2061570  
C    -3.7438900   -2.7346740   -0.0520760  
O    -2.5475460   -2.5261920   -0.2908160  
C    -4.7482800   -1.6275140    0.1411840  
H    -7.3673000   -0.2702660    1.0414400  
H    -5.7425820   -5.5468600    0.4234090  
H    -2.3741780   -4.5141490   -0.3762030  
H    -9.1634260   -2.2020670    1.4923750  
