60


C    -3.2845060   -0.7118540    2.7670630  
C    -4.0119800   -1.8490350    2.9747780  
C    -4.2348760   -2.4546700    1.6905080  
C    -3.6091140   -1.6281120    0.7244260  
N    -3.0311220   -0.5538520    1.4022720  
C    -3.5961970   -1.9357200   -0.6416950  
C    -4.2485130   -3.0925740   -1.0415950  
O    -4.2696460   -3.4368370   -2.3607630  
C    -4.8929490   -3.9270620   -0.0897490  
O    -5.4935490   -5.0415050   -0.6425580  
C    -4.8903070   -3.6249490    1.2595220  
H    -4.3624920   -2.2097420    3.9322290  
H    -3.1134950   -1.3097210   -1.3837650  
H    -4.8017540   -4.2473890   -2.4401010  
H    -5.9996390   -5.5093580    0.0380110  
H    -5.3820620   -4.2839410    1.9723630  
H    -2.9352690    0.0392670    3.4611920  
C    -0.9929820    0.7949330    1.1235710  
C    -2.2845740    0.4889190    0.8326730  
C    -2.7695080    1.4906720   -0.1066260  
C    -1.6343170    2.4131430   -0.3363730  
N    -0.5750970    1.9545490    0.4639710  
C    -1.6729780    3.4495200   -1.2061500  
C    -2.9239010    3.7137670   -1.9221760  
O    -3.0429060    4.6281470   -2.7211060  
C    -4.1545370    2.7803010   -1.6421820  
O    -5.2115690    3.0030670   -2.2082690  
C    -3.9721960    1.6611270   -0.7105500  
H    -0.8384410    4.1158870   -1.3863090  
H    -4.8091290    0.9905700   -0.5458890  
H    -0.3118940    0.2928830    1.7961570  
C     3.4426960    0.1223150    0.0398730  
C     2.0676920    0.2839130    0.0567800  
C     1.8438370    1.6603340    0.4026310  
C     3.2135100    2.2153330    0.6159300  
N     4.1363970    1.3231450    0.4025020  
C     3.4309290    3.5879810    0.9934750  
C     2.3450020    4.3840160    1.1197210  
O     2.3980530    5.6846050    1.4383090  
C     0.9400730    3.8681530    0.9229680  
O     0.0165080    4.6527440    1.1295140  
C     0.7390410    2.4534130    0.5352060  
H     1.3199160   -0.4082960   -0.3057790  
H     4.4397750    3.9558730    1.1408530  
H     1.4642140    5.9860140    1.4897800  
C     2.4891180   -4.1120850    0.6737590  
C     3.6316600   -4.6738150    0.2078660  
C     4.4875510   -3.5944320   -0.2408830  
C     3.7346710   -2.3427070   -0.0081920  
N     2.5302080   -2.7245700    0.5263210  
C     4.2058750   -1.0676300   -0.2537690  
C     5.5528440   -0.9824120   -0.8806440  
O     6.0187620    0.0448860   -1.3306900  
C     6.3906750   -2.3007780   -1.0474310  
O     7.5452600   -2.2181730   -1.4309880  
C     5.7493270   -3.5825320   -0.7482370  
H     3.8672820   -5.7274870    0.1780040  
H     6.3262210   -4.4879910   -0.9106120  
H     1.6111160   -4.5787850    1.0995660  
H     1.8692390   -2.0729920    0.9242660  
