60


C     3.5191150   -1.6666940   -1.6106920  
C     3.4554930   -0.6856900   -0.6247670  
C     4.8290450   -0.4600090   -0.1979960  
C     5.6437520   -1.3411060   -0.9504480  
N     4.8128880   -2.0514410   -1.8042960  
C     7.0294940   -1.4395110   -0.7902840  
C     7.6179800   -0.6242830    0.1635870  
O     8.9638090   -0.6681660    0.3612790  
C     6.8216180    0.2600350    0.9380890  
O     7.5454150    1.0050000    1.8463340  
C     5.4523220    0.3484290    0.7732140  
H     5.1258690   -2.6987310   -2.5120660  
H     7.6435520   -2.1173400   -1.3740830  
H     9.1762620   -0.0160880    1.0518080  
H     6.9625670    1.6475980    2.2777310  
H     4.8756610    1.0538690    1.3606350  
H     2.7219620   -2.0640880   -2.2215860  
C    -0.7033650   -2.2106590   -0.0922210  
C     0.6562060   -2.1689060   -0.2752810  
C     1.0075310   -0.7793140   -0.1331420  
C    -0.2795860   -0.0977710    0.1374670  
N    -1.2761250   -0.9466560    0.1489420  
C    -0.4015620    1.3408500    0.3659420  
C     0.7881990    2.0084030    0.3945980  
O     0.8996310    3.3173140    0.6874070  
C     2.1128390    1.3535070    0.1316410  
O     3.0992220    2.0923460    0.2043740  
C     2.1991830   -0.0941910   -0.1978700  
H     1.3392930   -2.9855080   -0.4486080  
H     1.8626860    3.5095240    0.6148330  
C    -2.7857950    1.3476440    1.1661940  
C    -1.7138600    1.9550570    0.5605320  
C    -2.1926810    3.2648020    0.1099210  
C    -3.6155670    3.3519930    0.5277040  
N    -3.8955090    2.1652310    1.1796170  
C    -4.4386630    4.4018200    0.2833710  
C    -3.9064520    5.5420550   -0.4558510  
O    -4.5664900    6.5354060   -0.7198450  
C    -2.4130430    5.4666870   -0.9347780  
O    -1.9476200    6.4009240   -1.5689740  
C    -1.6266050    4.2733630   -0.6033270  
H    -5.4767610    4.4303460    0.6000480  
H    -0.5957210    4.2532660   -0.9314230  
H    -2.8318150    0.3625910    1.6045170  
H    -4.8112120    1.8844340    1.4975110  
C    -1.0562830   -4.6421660   -0.1123500  
C    -2.0613670   -5.5447820   -0.0619060  
C    -3.3055230   -4.8084570    0.0059830  
C    -2.9407640   -3.3700740   -0.0177930  
N    -1.5361040   -3.3217010   -0.0838540  
C    -3.8562770   -2.3694680    0.0026310  
C    -5.2734710   -2.7170940    0.1100250  
O    -6.1489670   -1.8678940    0.1927960  
C    -5.6748760   -4.2318550    0.1343800  
O    -6.8543380   -4.5383040    0.2012480  
C    -4.5963590   -5.2226640    0.0751730  
H    -1.9548800   -6.6201300   -0.0620210  
H    -3.5792510   -1.3266050   -0.0410640  
H    -4.8732930   -6.2724660    0.0861570  
H     0.0096610   -4.8114280   -0.1526690  
