62


C    -3.1319250    1.4268740   -1.3789290  
C    -2.9880060    0.2370980   -0.6878640  
C    -4.2693540   -0.0221170   -0.0640290  
C    -5.1307860    1.0473270   -0.4161280  
N    -4.4111790    1.9067420   -1.2231530  
C    -6.4541610    1.1405170    0.0332140  
C    -6.9192540    0.1300740    0.8588240  
O    -8.2023580    0.1634880    1.3243800  
C    -6.0702420   -0.9474160    1.2260940  
O    -6.6756750   -1.8769660    2.0536790  
C    -4.7646610   -1.0330010    0.7831720  
H    -4.7600010    2.7633450   -1.6240430  
H    -7.1120780    1.9595740   -0.2388590  
H    -8.3308660   -0.6370620    1.8618990  
H    -6.0721560   -2.6219650    2.1909290  
H    -4.1424480   -1.8782310    1.0609760  
H    -2.4257570    1.9506230   -2.0078710  
C     1.1470460    1.6240590   -0.1764590  
C     1.7646670    0.3658660   -0.2014210  
C     0.7509910   -0.6218680   -0.3299730  
C    -0.4896570    0.0783530   -0.4026160  
N    -0.2156790    1.4143440   -0.2901390  
C    -1.7441500   -0.5406710   -0.5962240  
C    -1.6805920   -1.9287670   -0.7371960  
O    -2.8090850   -2.6461630   -0.9723010  
C    -0.4566340   -2.6617290   -0.6601300  
O    -0.6352840   -4.0122510   -0.8077290  
C     0.7745950   -2.0521040   -0.4198090  
H     2.8281720    0.1914090   -0.2375810  
H    -0.8785050    2.1782380   -0.3245690  
H    -2.5060130   -3.5671170   -1.1053060  
H     0.1249170   -4.3504600   -1.3451030  
C     5.1779630    3.2024630    0.9510870  
C     4.0902520    2.4050980    0.7682210  
C     3.0186540    3.2316680    0.2599070  
C     3.5714090    4.5954150    0.1721160  
N     4.8862840    4.5075230    0.5827970  
C     2.8990790    5.7080740   -0.2437150  
C     1.5113100    5.5575700   -0.6032660  
O     0.7935760    6.4651640   -1.0020570  
C     0.8631340    4.1281930   -0.4607230  
O    -0.3455750    4.0537940   -0.6424880  
C     1.7107000    2.9526320   -0.1092990  
H     4.0410940    1.3548930    1.0046000  
H     3.3574310    6.6887960   -0.3190940  
H     6.1609280    2.9508130    1.3257790  
H     5.5163390    5.2910260    0.6523420  
C     3.8433380   -1.6979690    2.6965630  
C     4.7519690   -2.6043970    2.2528830  
C     4.2088550   -3.2003310    1.0502630  
C     2.8968130   -2.5483390    0.8207770  
N     2.7306650   -1.6643010    1.8626060  
C     2.0305980   -2.8091550   -0.2210780  
C     2.4405100   -3.9166360   -1.0866590  
O     1.7122030   -4.4236960   -1.9424990  
C     3.8748620   -4.5504720   -0.9334610  
O     4.2326340   -5.3666130   -1.7675920  
C     4.6883770   -4.1547160    0.2072860  
H     5.6938820   -2.8551770    2.7183630  
H     5.6584030   -4.6248040    0.3323380  
H     3.8764580   -1.0599860    3.5699640  
H     1.9818850   -0.9876950    1.9047580  
