60


C    -5.4061520    0.7838690   -2.0913200  
C    -5.3394690    0.0798490   -0.8972440  
C    -6.6597810    0.1707200   -0.3034270  
C    -7.4576330    0.9477960   -1.1786930  
N    -6.6665580    1.3043860   -2.2562430  
C    -8.7959180    1.2663350   -0.9158100  
C    -9.3437350    0.7827590    0.2607730  
O   -10.6436550    1.0481250    0.5680530  
C    -8.5592640    0.0025490    1.1538300  
O    -9.2454360   -0.4085910    2.2791520  
C    -7.2383580   -0.3009080    0.8920000  
H    -6.9916650    1.7861040   -3.0802950  
H    -9.4047790    1.8585870   -1.5910600  
H   -10.8386110    0.5937800    1.4064700  
H    -8.7134610   -1.0583680    2.7627460  
H    -6.6718210   -0.9244370    1.5753870  
H    -4.6645430    0.8813000   -2.8725250  
C    -1.2255250    1.4771390   -0.7921470  
C    -0.5733890    0.3711170   -0.2945300  
C    -1.6120810   -0.6368890   -0.0490900  
C    -2.8886150   -0.0185120   -0.4615470  
N    -2.5678550    1.2517220   -0.9247330  
C    -4.1357990   -0.5800970   -0.3879050  
C    -4.1843450   -1.9252690    0.2290120  
O    -5.2214870   -2.5438290    0.3993630  
C    -2.8397940   -2.5974950    0.6980210  
O    -2.9025520   -3.6969900    1.2262060  
C    -1.5848280   -1.8805940    0.5009940  
H    -0.6703390   -2.3769190    0.7990480  
H    -0.7950140    2.4195400   -1.1030910  
H    -3.2630410    1.9272040   -1.2084810  
C     2.4004610    3.2908620    1.2433680  
C     1.2271460    2.6848330    0.9404380  
C     1.5960690    1.3801360    0.4113790  
C     3.0833030    1.3622870    0.4787820  
N     3.5379090    2.4894010    0.9567620  
C     3.8895370    0.2093380    0.0587280  
C     3.1582110   -0.8811700   -0.3628000  
O     3.6672530   -2.0521430   -0.7422480  
C     1.6517020   -0.8735450   -0.4446210  
O     1.1239810   -1.9033090   -0.8642140  
C     0.8641450    0.3313610   -0.0641080  
H     0.2263990    3.0585470    1.1016380  
H     2.8869530   -2.5991160   -0.9951180  
H     2.5552320    4.2720660    1.6758150  
C     5.3375520    0.2480300    0.1085240  
C     6.1445250    1.2490260    0.5909570  
C     7.4988460    0.7895810    0.3994070  
C     7.3468720   -0.5566490   -0.2387680  
N     6.1002580   -0.8700660   -0.4082170  
C     8.4939810   -1.3541560   -0.5986960  
C     9.7194440   -0.8442430   -0.3363790  
O    10.8750290   -1.4685830   -0.6122560  
C     9.9032850    0.5107400    0.3078250  
O    11.0605010    0.8858670    0.5037650  
C     8.7228400    1.3056540    0.6631200  
H     5.8218280    2.1835460    1.0195980  
H     8.3577700   -2.3258650   -1.0601450  
H    11.5769150   -0.8501560   -0.3074280  
H     8.8934230    2.2749960    1.1214510  
