62


C    -2.6193940    1.2222150    0.0123810  
C    -3.4611640    0.1427290   -0.0752690  
C    -2.6162680   -1.0148890   -0.3254270  
C    -1.2747420   -0.5767140   -0.3604690  
N    -1.2847510    0.8212530   -0.1356680  
C    -0.2169620   -1.4434920   -0.6469210  
C    -0.5261030   -2.7803100   -0.8695360  
O     0.4769830   -3.6621840   -1.1325000  
C    -1.8676920   -3.2333530   -0.8336590  
O    -2.0151490   -4.5792710   -1.0840750  
C    -2.9135230   -2.3634330   -0.5743910  
H     0.8075930   -1.1059370   -0.7017970  
H     0.0707270   -4.5341160   -1.2785470  
H    -2.9546380   -4.8155760   -1.0623410  
H    -3.9414260   -2.7146620   -0.5591360  
H    -2.8461990    2.2427450    0.2808440  
C    -0.2276550    1.6881760   -0.0546310  
C    -0.2643710    3.0682750   -0.0166610  
C     1.0949270    3.4682940    0.0884350  
C     1.8781090    2.1771400    0.1122360  
N     1.0802180    1.1485550    0.0224560  
C     3.3293810    2.1356150    0.2115020  
C     3.9338030    3.3761750    0.2778370  
O     5.2295100    3.5880480    0.4110180  
C     3.1555800    4.6937010    0.2433280  
O     3.8500250    5.7148250    0.3141580  
C     1.7198160    4.6787600    0.1470080  
H    -1.1213820    3.7208240   -0.0858370  
H     5.3103290    4.5781510    0.4284520  
H     1.1980960    5.6298060    0.1297350  
C     4.0515720    0.8760670    0.2324810  
C     3.5669220   -0.3827390    0.4771610  
C     4.6977800   -1.2705650    0.3586910  
C     5.8433210   -0.3652850    0.0198390  
N     5.4713480    0.8755520   -0.0515550  
C     7.1732820   -0.8809330   -0.1949280  
C     7.3540180   -2.2159790   -0.0725940  
O     8.5300920   -2.8406100   -0.2379660  
C     6.2162570   -3.1532310    0.2701600  
O     6.4889130   -4.3522620    0.3553210  
C     4.8722610   -2.6086020    0.4772300  
H     2.5537140   -0.6552180    0.7213110  
H     7.9855760   -0.2061970   -0.4411490  
H     8.3331570   -3.7929050   -0.0858820  
H     4.0765780   -3.3103010    0.7077070  
C    -6.4166960   -2.2477710    2.3567100  
C    -5.2641180   -1.7439250    1.8103300  
C    -5.6487110   -0.7242550    0.8732800  
C    -7.0664010   -0.6501040    0.9061380  
N    -7.5054860   -1.5955940    1.8107940  
C    -7.8019290    0.2627460    0.1411660  
C    -7.0888100    1.1282760   -0.6721210  
O    -7.7518650    2.0320450   -1.4501340  
C    -5.6719890    1.0871410   -0.7121910  
O    -5.1155290    2.0111390   -1.5719560  
C    -4.9284180    0.1704930    0.0350300  
H    -4.2589040   -2.0522310    2.0582860  
H    -8.4684440   -1.7572340    2.0602770  
H    -8.8857240    0.3142760    0.1624870  
H    -7.0792850    2.5137940   -1.9625040  
H    -4.1700290    1.8019180   -1.6773620  
H    -6.5553720   -3.0206830    3.0994920  
