60


C     6.0579650   -1.6406550   -0.6203650  
C     7.2845690   -1.0512340   -0.6304740  
C     7.1049150    0.3336240   -0.2808930  
C     5.7191520    0.5409770   -0.0818440  
N     5.0756830   -0.6897370   -0.3078090  
C     5.2054620    1.7642270    0.3572290  
C     6.1026220    2.8076020    0.5520580  
O     5.6389090    4.0220540    0.9670490  
C     7.4877910    2.6235810    0.3291010  
O     8.2508970    3.7490030    0.5629840  
C     7.9955630    1.3997200   -0.0776930  
H     8.2193270   -1.5459680   -0.8564760  
H     4.1532660    1.9358950    0.5361470  
H     6.4079920    4.6110340    1.0552360  
H     9.1857830    3.5467010    0.4101210  
H     9.0660640    1.2666120   -0.2200840  
H     5.7682070   -2.6607420   -0.8102310  
C     3.0924230   -4.0306330    1.5486980  
C     1.7879200   -3.7336930    1.3293210  
C     1.7953630   -2.4940290    0.5673730  
C     3.2438130   -2.1724320    0.4291040  
N     3.9927510   -3.0788540    0.9880130  
C     3.7092340   -0.9629660   -0.2406240  
C     2.7432950   -0.1383230   -0.7541170  
O     3.0246990    0.9969960   -1.4290280  
C     1.3057570   -0.4183050   -0.6054160  
O     0.5192850    0.4314020   -1.0570620  
C     0.8283810   -1.6978570    0.0208630  
H     0.9240750   -4.2664580    1.6959850  
H     2.1530880    1.3937640   -1.6414950  
H     3.5036910   -4.8719170    2.0927250  
C    -0.5894430   -2.0196830   -0.0065600  
C    -1.2018220   -3.2485700    0.1283270  
C    -2.6193040   -3.0542970    0.0006430  
C    -2.8184010   -1.6078040   -0.2389790  
N    -1.5621460   -1.0464610   -0.2304700  
C    -4.0307690   -0.9954590   -0.4262140  
C    -5.2171700   -1.8738910   -0.3731210  
O    -6.3529440   -1.4656230   -0.5510600  
C    -5.0225550   -3.4120060   -0.0926290  
O    -6.0154420   -4.1189660   -0.0173450  
C    -3.6667670   -3.9258430    0.0678900  
H    -0.7069360   -4.1994630    0.2467820  
H    -3.5399860   -4.9893480    0.2443300  
H    -1.3269440   -0.0843970   -0.4268780  
C    -3.4098400    1.1349170   -1.6264850  
C    -4.1661040    0.4335370   -0.7274400  
C    -5.0883170    1.4062890   -0.1279910  
C    -4.7852230    2.7135530   -0.7605080  
N    -3.7593850    2.4751670   -1.6551680  
C    -5.4172380    3.8807920   -0.4770960  
C    -6.4657990    3.8712040    0.5366620  
O    -7.0902600    4.8689190    0.8638030  
C    -6.7891030    2.5042320    1.2408750  
O    -7.6418020    2.4749110    2.1127950  
C    -6.0454720    1.3052630    0.8274720  
H    -5.1763260    4.8222150   -0.9613610  
H    -6.3120080    0.3663390    1.2976650  
H    -2.6359230    0.7695280   -2.2895110  
H    -3.3638130    3.1648130   -2.2749890  
