62


C    -3.9297570    1.6345460    0.2074670  
C    -2.7696200    0.8774010    0.3070860  
C    -1.6513830    1.7446720    0.1258150  
C    -2.1850490    3.0395550   -0.0955320  
N    -3.5605720    2.9485820   -0.0105490  
C    -1.3986510    4.1612310   -0.3689110  
C    -0.0258990    3.9819210   -0.4301020  
O     0.7888770    5.0382790   -0.7066030  
C     0.5628740    2.7127110   -0.2031230  
O     1.9127480    2.7284340   -0.2903910  
C    -0.2234450    1.5635840    0.1040260  
H    -2.7632730   -0.1783490    0.5211580  
H    -4.2043200    3.6710450   -0.2959890  
H    -1.8202850    5.1466480   -0.5410350  
H     1.6964000    4.6817100   -0.7205950  
H     2.2330770    1.7796500   -0.1745670  
C     0.4074070    0.3046440    0.3836160  
C    -0.0982970   -0.9005090    0.8376630  
C     0.9986320   -1.8015160    0.9280440  
C     2.1923520   -1.0009110    0.4861250  
N     1.8342630    0.2140600    0.1813440  
C     3.5245140   -1.5561830    0.4232660  
C     3.6257180   -2.8657060    0.8024920  
O     4.7728420   -3.5317150    0.8478280  
C     2.4394420   -3.7055140    1.2603960  
O     2.7056450   -4.8714210    1.5768940  
C     1.1268920   -3.1096420    1.3014700  
H    -1.1130600   -1.1287370    1.1172860  
H     4.5190830   -4.4415320    1.1434870  
H     0.2959640   -3.7270560    1.6263630  
C     5.4684690    2.2490680    1.6998400  
C     4.6605140    1.1628940    1.5992870  
C     5.1164760    0.3870710    0.4643080  
C     6.2813380    1.1216100   -0.0910340  
N     6.4356170    2.2429690    0.6996880  
C     7.0244130    0.7170860   -1.1530540  
C     6.6570660   -0.5276450   -1.8100660  
O     7.2726140   -0.9951650   -2.7562310  
C     5.3996670   -1.3072670   -1.2752880  
O     5.0372650   -2.3014320   -1.8785090  
C     4.6834580   -0.7912070   -0.0797700  
H     3.8245860    0.9269510    2.2389280  
H     7.8831080    1.2661850   -1.5269090  
H     5.4424140    3.0586790    2.4171160  
H     7.1597870    2.9336940    0.5823660  
C    -6.3526890    2.0170440    0.8184960  
C    -5.3207280    1.2429990    0.3215640  
C    -5.9078960   -0.0240080   -0.0581320  
C    -7.2905500    0.0503630    0.2398750  
N    -7.5307780    1.3065590    0.7653690  
C    -8.1777480   -1.0039780   -0.0095840  
C    -7.6563920   -2.1555560   -0.5776200  
O    -8.4739140   -3.2146670   -0.8395850  
C    -6.2749200   -2.2415010   -0.9003100  
O    -5.9135330   -3.4441530   -1.4744100  
C    -5.4035900   -1.1974900   -0.6522230  
H    -8.4211550    1.6346450    1.1053910  
H    -9.2374830   -0.9498620    0.2175860  
H    -7.9259920   -3.9087820   -1.2452640  
H    -4.9728220   -3.4259010   -1.7050280  
H    -4.3548370   -1.2769640   -0.9275090  
H    -6.3269400    3.0089030    1.2477900  
