64


C     3.8488540   -1.2744080   -1.9315760  
C     4.1837680   -2.5941070   -1.8102770  
C     5.0899980   -2.7028830   -0.7014940  
C     5.2725540   -1.3965370   -0.1815210  
N     4.5036700   -0.5264330   -0.9516490  
C     6.0809750   -1.1328280    0.9299360  
C     6.7271900   -2.2075760    1.5198030  
O     7.5328930   -2.0051690    2.6054600  
C     6.5635390   -3.5216330    1.0086100  
O     7.2736680   -4.4853980    1.7028650  
C     5.7582610   -3.7790450   -0.0850620  
H     3.8312460   -3.3972310   -2.4431430  
H     6.2214930   -0.1356040    1.3297200  
H     7.8857870   -2.8736090    2.8643770  
H     7.1142820   -5.3521050    1.3013500  
H     5.6415810   -4.7954760   -0.4566370  
H     3.2153140   -0.7740820   -2.6503890  
C     0.8754510    1.7221210   -0.0467710  
C     1.4816060    2.9841810   -0.0195770  
C     2.8601240    2.8097820   -0.2795530  
C     3.0672980    1.4104720   -0.4689600  
N     1.8652540    0.7845100   -0.3248460  
C     4.3351570    0.8640480   -0.7528360  
C     5.4005450    1.7563060   -0.8460870  
O     6.6427800    1.3010750   -1.1360420  
C     5.2027230    3.1573380   -0.6373130  
O     6.3681110    3.8840210   -0.7554620  
C     3.9643910    3.6910610   -0.3668340  
H     0.9706500    3.9241110    0.1195800  
H     1.6496030   -0.1957770   -0.4693140  
H     7.2409230    2.0695600   -1.1448240  
H     6.1811220    4.8268890   -0.6348830  
H     3.8403580    4.7607870   -0.2159130  
C    -2.7760200    3.7563770    1.5648880  
C    -1.4758800    3.4814930    1.2806360  
C    -1.4831690    2.1674860    0.6590750  
C    -2.9047510    1.7809820    0.6598150  
N    -3.6560160    2.7213770    1.1783490  
C    -3.3725600    0.4857060    0.1436270  
C    -2.3742240   -0.3539840   -0.2993220  
O    -2.6213000   -1.6156940   -0.7689170  
C    -0.9606920   -0.0098890   -0.3042920  
O    -0.1653590   -0.8921650   -0.6962650  
C    -0.5059310    1.3558050    0.1307810  
H    -0.6136300    4.0836080    1.5239100  
H    -1.7297120   -1.9707910   -0.9835250  
H    -3.1839240    4.6365040    2.0471490  
C    -4.7681910    0.1362640    0.1323660  
C    -5.8856740    0.8708850    0.5407470  
C    -7.0307100    0.0719860    0.3133010  
C    -6.5787130   -1.1645710   -0.2425080  
N    -5.2169310   -1.0975630   -0.3408170  
C    -7.4580020   -2.1981380   -0.5909860  
C    -8.8094780   -1.9830490   -0.3769440  
O    -9.7105740   -2.9509410   -0.6960300  
C    -9.2804060   -0.7532160    0.1774460  
O   -10.6534980   -0.7085630    0.3224270  
C    -8.4180400    0.2630640    0.5202510  
H    -5.8346250    1.8658940    0.9529720  
H    -4.5923900   -1.8114210   -0.6879640  
H    -7.1237930   -3.1399510   -1.0131120  
H   -10.5940610   -2.6096840   -0.4717570  
H   -10.9111200    0.1440810    0.7031470  
H    -8.7946760    1.1927780    0.9414910  
