62


C     4.4681630    0.2461330    0.0878240  
C     5.5713840    1.0909140    0.1728940  
C     6.7411160    0.2768930    0.2079560  
C     6.3040030   -1.0753970    0.1386490  
N     4.9329940   -1.0614270    0.0601650  
C     7.1936470   -2.1576240    0.1552200  
C     8.5458390   -1.8710840    0.2460350  
O     9.4564760   -2.8851950    0.2677610  
C     9.0017110   -0.5237030    0.3176940  
O    10.3760950   -0.4090630    0.4031660  
C     8.1249570    0.5418940    0.2994170  
H     5.5402120    2.1644880    0.2953810  
H     4.3172680   -1.8597700    0.1132520  
H     6.8655130   -3.1903900    0.1020290  
H    10.3383840   -2.4804470    0.3372130  
H    10.6201320    0.5263220    0.4627570  
H     8.4972160    1.5630180    0.3554490  
C     2.4342430    3.8673420   -1.3436220  
C     1.1499810    3.5059150   -1.0221410  
C     1.2136070    2.2004240   -0.4346760  
C     2.5771060    1.8216900   -0.4205670  
N     3.2990050    2.8656150   -0.9610200  
C     3.0491990    0.5645630    0.0315820  
C     2.0454870   -0.3380920    0.4141630  
O     2.3844340   -1.5958650    0.8449440  
C     0.6782950    0.0082400    0.4157580  
O    -0.1268580   -0.9912570    0.9006930  
C     0.2217270    1.2779090    0.0147010  
H     0.2640840    4.0923960   -1.2130940  
H     4.2690130    2.7931520   -1.2283910  
H     1.5542930   -2.0406610    1.0956410  
H    -1.0507270   -0.6698020    0.9503500  
H     2.8071900    4.7662300   -1.8136170  
C    -1.1780550    1.6279730    0.0866250  
C    -1.7866200    2.8334490    0.3188020  
C    -3.2055480    2.6381520    0.3332350  
C    -3.4286560    1.1954410    0.0831200  
N    -2.1675810    0.6007360   -0.0097750  
C    -4.6555150    0.5781420   -0.0106180  
C    -5.8096400    1.4774480    0.1987940  
O    -6.9733690    1.0844760    0.2226800  
C    -5.5914950    3.0147980    0.4494780  
O    -6.5885940    3.7124690    0.5789560  
C    -4.2363790    3.5104150    0.5265690  
H    -1.2811150    3.7632990    0.5343060  
H    -4.0841500    4.5694560    0.7080370  
H    -2.0917060   -0.0635310   -0.7892460  
C    -7.4350280   -2.4809190    1.6501900  
C    -6.9993150   -3.5796070    0.9873950  
C    -5.9322840   -3.1483730    0.1116020  
C    -5.7707930   -1.6828790    0.3398110  
N    -6.6853370   -1.3549910    1.3107270  
C    -4.8399930   -0.8701040   -0.2855800  
C    -4.0147860   -1.5503290   -1.2925700  
O    -3.1449930   -0.9889280   -1.9580050  
C    -4.1895540   -3.0929370   -1.5620330  
O    -3.4741240   -3.6109330   -2.4036000  
C    -5.1742030   -3.8293950   -0.7844030  
H    -7.3723100   -4.5886480    1.0844110  
H    -5.2790420   -4.8948640   -0.9626620  
H    -8.2334660   -2.3856640    2.3743290  
H    -7.0424860   -0.4035130    1.3525900  
