64


C    -0.3229520    1.7317920   -0.0429570  
C    -0.7256330    3.0497810   -0.0374330  
C    -2.1407600    3.0736370    0.1890300  
C    -2.5612560    1.7263800    0.3252900  
N    -1.4338750    0.9310570    0.2189290  
C    -3.9038100    1.3342200    0.5142580  
C    -4.8293290    2.3799000    0.5776230  
O    -6.1579220    2.1095820    0.7698760  
C    -4.4245580    3.7343010    0.4605860  
O    -5.4732090    4.6354090    0.5544000  
C    -3.1043490    4.0971460    0.2741380  
H    -0.0697680    3.9038780   -0.1400200  
H    -1.4780030   -0.0599560    0.0278010  
H    -6.6091120    2.9685230    0.8455150  
H    -5.1187800    5.5361540    0.5826200  
H    -2.8253570    5.1446130    0.1790930  
C     1.9282300    1.5908540   -1.1749520  
C     0.9925070    1.1495270   -0.2658090  
C     1.5876690    0.0157320    0.4094640  
C     2.8788930   -0.1686170   -0.1479880  
N     3.0567330    0.7978330   -1.1126760  
C     3.7446370   -1.1909880    0.2859210  
C     3.2880000   -2.0325280    1.3004970  
O     4.0867590   -3.0395370    1.7545140  
C     1.9985820   -1.8518590    1.8589510  
O     1.6959300   -2.7687200    2.8496260  
C     1.1506910   -0.8466410    1.4324520  
H     3.9135110    0.9611180   -1.6189660  
H     3.6118820   -3.4656090    2.4905430  
H     0.9565510   -2.4387860    3.3813720  
H     0.1703140   -0.7214760    1.8850270  
H     1.8635350    2.4043110   -1.8828600  
C    -3.6566620   -1.0157490    1.4391530  
C    -4.2823880   -0.0860360    0.6334850  
C    -5.3186250   -0.8047270   -0.0765390  
C    -5.2626320   -2.1562410    0.3463950  
N    -4.2396310   -2.2558710    1.2691880  
C    -6.1195810   -3.1458570   -0.1531000  
C    -7.0530430   -2.7603650   -1.1013440  
O    -7.9187040   -3.6797810   -1.6211340  
C    -7.1205330   -1.4110950   -1.5406980  
O    -8.1021510   -1.1831250   -2.4893940  
C    -6.2718670   -0.4398290   -1.0473970  
H    -3.9975370   -3.0893840    1.7808180  
H    -6.0784340   -4.1807500    0.1714070  
H    -8.4903260   -3.2076630   -2.2509770  
H    -8.1269110   -0.2383150   -2.7010500  
H    -6.3538600    0.5901310   -1.3819880  
H    -2.8636600   -0.8722980    2.1598310  
C     5.4782970   -2.5880510   -0.8527640  
C     6.7438130   -2.4765430   -1.3237500  
C     7.1885160   -1.1275930   -1.0505990  
C     6.0567930   -0.4525920   -0.3636930  
N     5.0291370   -1.3861960   -0.2860910  
C     6.0940760    0.8302750    0.0863020  
C     7.3114170    1.6088100   -0.1312510  
O     7.4334350    2.7670580    0.2382900  
C     8.5111060    0.9197510   -0.8779410  
O     9.5284550    1.5632190   -1.0840930  
C     8.3556110   -0.4754840   -1.2949630  
H     7.3178440   -3.2524910   -1.8090450  
H     5.2766490    1.2974900    0.6244180  
H     9.1977330   -0.9497660   -1.7900160  
H     4.8112800   -3.4382080   -0.8578560  
