64


C    -6.5044050    3.2029700    0.7800310  
C    -7.6574950    2.4837120    0.9623740  
C    -7.3163000    1.0990180    0.8061540  
C    -5.9220950    1.0417030    0.5341380  
N    -5.4614880    2.3410460    0.5110670  
C    -5.2176840   -0.1619300    0.2934890  
C    -6.0037010   -1.3129670    0.3240330  
O    -5.4258500   -2.5464290    0.0696770  
C    -7.3917860   -1.2818190    0.5946550  
O    -7.9858870   -2.5333370    0.5859250  
C    -8.0575710   -0.0977630    0.8414380  
H    -8.6370000    2.8909580    1.1719380  
H    -4.4910070    2.5975010    0.4085130  
H    -6.1367170   -3.2094200    0.1407280  
H    -8.9342290   -2.4421590    0.7591660  
H    -9.1267060   -0.0934180    1.0432560  
H    -6.3360040    4.2702400    0.8140690  
C    -1.6842300    1.7598410    2.3242800  
C    -2.9361090    1.2862780    2.0253100  
C    -2.8307580    0.5399090    0.7968750  
C    -1.4666170    0.5879970    0.4103310  
N    -0.7935500    1.3343910    1.3578640  
C    -0.9462640   -0.0477970   -0.7356700  
C    -1.8711850   -0.7713340   -1.4856730  
O    -1.4716620   -1.4629520   -2.5839010  
C    -3.2460520   -0.8328010   -1.1246900  
O    -4.0105350   -1.5761100   -2.0009070  
C    -3.7637100   -0.1719430   -0.0101050  
H    -3.8244930    1.4270030    2.6238260  
H     0.1796950    1.5911690    1.2939090  
H    -2.2807350   -1.8916740   -2.9245330  
H    -4.6034460   -2.1478130   -1.4663310  
H    -1.3454660    2.3561900    3.1597600  
C     2.5249640   -1.5602140    1.4928600  
C     3.5249850   -1.1512730    0.6352080  
C     2.8673690   -0.4797170   -0.4654610  
C     1.4759920   -0.5184220   -0.2051250  
N     1.2990470   -1.1796430    0.9951970  
C     0.4973990    0.0109150   -1.0730740  
C     0.9758560    0.5961450   -2.2448930  
O     0.1073890    1.1643050   -3.1241750  
C     2.3681080    0.6314230   -2.5302100  
O     2.6679980    1.2407410   -3.7338100  
C     3.3113040    0.1050120   -1.6689530  
H     0.4015450   -1.3775580    1.4109790  
H     0.6325250    1.4915720   -3.8750000  
H     3.6293250    1.2876150   -3.8430950  
H     4.3682690    0.1411090   -1.9209020  
H     2.6038940   -2.0697880    2.4429860  
C     5.5422690   -2.5794420    1.1605700  
C     4.9553670   -1.3971260    0.8172300  
C     6.0411440   -0.4230620    0.7160170  
C     7.2980660   -1.1513820    1.0265680  
N     6.9224850   -2.4458380    1.3140490  
C     8.5350800   -0.5900750    1.0158560  
C     8.6520320    0.8279860    0.6970320  
O     9.7206370    1.4201410    0.6586340  
C     7.3308140    1.6272160    0.3946590  
O     7.4065650    2.8174920    0.1311740  
C     6.0548220    0.9059910    0.4337730  
H     9.4424140   -1.1421750    1.2416930  
H     5.1495990    1.4664250    0.2243860  
H     5.0731640   -3.5425540    1.3126020  
H     7.5630210   -3.2060280    1.4797020  
