60


C     3.8497520   -2.9237160   -3.5204250  
C     3.4203540   -1.8642380   -2.7640920  
C     3.9021220   -2.0835500   -1.4296330  
C     4.6292840   -3.3039250   -1.4389490  
N     4.5741470   -3.7933510   -2.7270420  
C     5.2685700   -3.8210380   -0.3063680  
C     5.1706670   -3.0933640    0.8698630  
O     5.7740230   -3.5442650    2.0027220  
C     4.4317180   -1.8811310    0.9237390  
O     4.3579630   -1.3124240    2.1775620  
C     3.7985370   -1.3787830   -0.2106520  
H     2.8394640   -1.0252630   -3.1197370  
H     5.0197660   -4.6393620   -3.0460440  
H     5.8350260   -4.7463010   -0.3198150  
H     5.5979860   -2.8824560    2.6962820  
H     4.3635410   -0.3402510    2.1121380  
H     3.7010640   -3.1335460   -4.5701020  
C     1.6740750   -0.0931930   -0.4076780  
C     1.1824960    1.1711110   -0.2128240  
C     2.3088460    1.9718470    0.2715500  
C     3.4819070    1.0625330    0.2887850  
N     3.0329340   -0.1781890   -0.1342050  
C     4.7409960    1.4214550    0.6669490  
C     4.9687240    2.7926670    1.1164830  
O     6.0659800    3.2137260    1.4473180  
C     3.7297220    3.7511220    1.1776000  
O     3.8766290    4.8856910    1.6025490  
C     2.4292750    3.2504910    0.7123650  
H     5.5953240    0.7556520    0.5861460  
H     1.6022480    3.9480770    0.7209350  
H     1.1423760   -0.9814710   -0.7111250  
C    -2.4245610   -1.1597840    0.4144030  
C    -3.4379030   -0.2898380    0.1128840  
C    -2.7324410    0.9464660   -0.2897650  
C    -1.2869660    0.6103930   -0.1372020  
N    -1.1316330   -0.6241340    0.2646750  
C    -0.2135240    1.5640350   -0.4041700  
C    -0.6235420    2.7962100   -0.8391480  
O     0.2195810    3.7806350   -1.2007490  
C    -2.0603570    3.1665250   -0.9800440  
O    -2.3256640    4.3034690   -1.3733780  
C    -3.1145950    2.1755090   -0.6761510  
H    -0.3593800    4.5331900   -1.4595930  
H    -4.1416620    2.4882400   -0.8160600  
H    -2.5278640   -2.1959770    0.7124360  
C    -5.9446550   -2.6627970    2.9359740  
C    -4.8855230   -2.0142700    2.3909960  
C    -5.4076990   -1.3672130    1.1927730  
C    -6.8495930   -1.7407530    1.1876180  
N    -7.1573520   -2.5033060    2.2000280  
C    -7.7546420   -1.2787660    0.1667710  
C    -7.2570780   -0.4675250   -0.7933740  
O    -7.9900150    0.0510250   -1.7947480  
C    -5.8103260   -0.0657610   -0.8207020  
O    -5.4570740    0.6770270   -1.7354930  
C    -4.8601150   -0.5785430    0.2205150  
H    -3.8766090   -1.9568960    2.7725280  
H    -8.7981090   -1.5724310    0.1920600  
H    -7.3663570    0.5860350   -2.3310390  
H    -5.9660220   -3.2565230    3.8420010  
