60


C     4.1134690    1.1013630   -0.0245990  
C     3.9144780   -0.2476620    0.2828720  
C     5.1388610   -0.9300300    0.0464150  
C     6.0727740    0.0432720   -0.4137520  
N     5.4246560    1.2512490   -0.4511650  
C     7.3956030   -0.2799620   -0.7423460  
C     7.7823170   -1.6026600   -0.6007400  
O     9.0566160   -1.9746390   -0.9029450  
C     6.8612480   -2.5893390   -0.1391670  
O     7.4062930   -3.8550780   -0.0563300  
C     5.5584540   -2.2725060    0.1818340  
H     3.0291700   -0.6801380    0.7257710  
H     5.8141790    2.1678280   -0.6356890  
H     8.1117890    0.4562770   -1.0912330  
H     9.1300830   -2.9286110   -0.7256620  
H     6.7500280   -4.4684770    0.3064490  
H     4.8724590   -3.0406360    0.5330850  
C    -0.2777610    1.3101950    0.1516040  
C    -0.4097180    2.6673670    0.2905910  
C     0.9061090    3.2499510    0.2857370  
C     1.8457440    2.1269550    0.1542050  
N     1.0819940    0.9671600    0.1357000  
C     3.2138900    2.2334110    0.0554090  
C     3.7275390    3.6245080    0.0011790  
O     4.8950450    3.8963760   -0.2488020  
C     2.7460990    4.8297960    0.2642130  
O     3.2338820    5.9498090    0.3348690  
C     1.3310000    4.5473390    0.3773910  
H    -1.3379400    3.2042490    0.4275240  
H     0.6499500    5.3810570    0.5131850  
H     1.4271730    0.1291440   -0.3158600  
C    -2.5436310    0.4726470   -0.5044650  
C    -1.2976830    0.2893500    0.0295520  
C    -1.2153950   -1.1187450    0.4134180  
C    -2.5180570   -1.7235480    0.0509910  
N    -3.2914130   -0.6988190   -0.5038470  
C    -2.8456870   -3.0223410    0.2518520  
C    -1.8513640   -3.9052240    0.8633540  
O    -2.0550240   -5.0906370    1.0674570  
C    -0.4681540   -3.2849590    1.2689560  
O     0.3799420   -3.9996650    1.7763780  
C    -0.2459580   -1.8558010    1.0147560  
H    -3.8123240   -3.4399780   -0.0077520  
H     0.6978950   -1.4334090    1.3420860  
H    -2.9695020    1.3715770   -0.9297940  
C    -5.0431360   -1.5964720   -2.0095830  
C    -4.6126810   -0.8113280   -0.9795200  
C    -5.7701730   -0.1137870   -0.4398360  
C    -6.9195930   -0.5642090   -1.2588570  
N    -6.4074860   -1.4668150   -2.1802150  
C    -8.1943230   -0.1392990   -1.0846510  
C    -8.4638710    0.8262870   -0.0169040  
O    -9.5778020    1.2672200    0.2101210  
C    -7.2574870    1.3088680    0.8689220  
O    -7.4613010    2.1106220    1.7641870  
C    -5.9215020    0.7720670    0.5774570  
H    -9.0273680   -0.4772780   -1.6931510  
H    -5.0968090    1.1060540    1.1995880  
H    -4.4673730   -2.2556620   -2.6453900  
H    -6.9553400   -1.9665040   -2.8636810  
