60


C     4.6938510   -3.5406490   -2.3671180  
C     3.9694120   -2.4472540   -1.9697260  
C     4.6094120   -1.9306980   -0.7926710  
C     5.7324010   -2.7593390   -0.5238720  
N     5.7519280   -3.7344360   -1.4984610  
C     6.6121060   -2.5337500    0.5412540  
C     6.3535210   -1.4461820    1.3624050  
O     7.1735540   -1.1731190    2.4130690  
C     5.2256370   -0.6120460    1.1410890  
O     5.0411670    0.3769720    2.0874050  
C     4.3568800   -0.8484700    0.0776200  
H     3.0959360   -2.0504410   -2.4672210  
H     6.4521140   -4.4544160   -1.5853090  
H     7.4771680   -3.1595820    0.7340460  
H     6.8231910   -0.3669890    2.8349750  
H     4.7643740    1.2081100    1.6561280  
H     4.5462140   -4.2030500   -3.2081620  
C     1.8914240   -0.4847460   -0.0694700  
C     0.9843490    0.5297900   -0.1693980  
C     1.7714670    1.7629620   -0.2800630  
C     3.1953760    1.3535650   -0.2329080  
N     3.2112870   -0.0229520   -0.1070740  
C     4.2520880    2.2147910   -0.3069780  
C     3.9773110    3.6432800   -0.4283830  
O     4.8537540    4.4884750   -0.5238090  
C     2.4755810    4.1000090   -0.4324130  
O     2.2161510    5.2908620   -0.4658500  
C     1.4262260    3.0685110   -0.3890940  
H     5.2837640    1.8809020   -0.3748670  
H     0.3969830    3.4000470   -0.4607910  
H     1.7193270   -1.5505070    0.0029730  
C    -1.6053310   -1.7492740    2.5293220  
C    -2.8130930   -1.5138220    1.9555160  
C    -2.5925520   -0.6352480    0.8247070  
C    -1.1344700   -0.3871700    0.7786590  
N    -0.5924930   -1.1073930    1.8258860  
C    -0.4760100    0.3899110   -0.1393390  
C    -1.3164460    1.0321870   -1.1612080  
O    -0.8637800    1.7273200   -2.0563950  
C    -2.8731980    0.8217110   -1.1085260  
O    -3.5624260    1.4767630   -1.8681930  
C    -3.4502260   -0.0963030   -0.0981040  
H    -3.7633240   -1.9131680    2.2750110  
H    -1.3605110   -2.3501230    3.3951510  
H     0.3673770   -1.0216830    2.1247670  
C    -6.7683000    0.6053920    2.8120380  
C    -5.5532080    0.5261160    2.2095990  
C    -5.7566420   -0.0574220    0.8994930  
C    -7.2149160   -0.3076290    0.7862340  
N    -7.7650490    0.0955440    1.9887400  
C    -7.8382020   -0.8101020   -0.3104630  
C    -7.0245540   -1.1409340   -1.4718140  
O    -7.4883160   -1.5746430   -2.5148680  
C    -5.4701660   -0.9428410   -1.3652970  
O    -4.7675100   -1.3422270   -2.2758610  
C    -4.9002120   -0.3371870   -0.1320050  
H    -4.6111040    0.8463040    2.6273680  
H    -8.9116080   -0.9605220   -0.3719040  
H    -7.0242560    0.9915660    3.7898960  
H    -8.7532000    0.1220040    2.1858030  
