62


C     5.6667450   -3.4233590   -0.6439670  
C     6.9207910   -3.1253320   -0.1765390  
C     6.9263770   -1.7273580    0.1458500  
C     5.6276180   -1.2276230   -0.1442060  
N     4.8891940   -2.2837650   -0.6344480  
C     5.2516440    0.1265280    0.0233630  
C     6.2692420    0.9615530    0.4827870  
O     6.0236090    2.3136840    0.6520780  
C     7.5687450    0.4876250    0.7794050  
O     8.4291330    1.4760360    1.2276040  
C     7.9103520   -0.8411550    0.6248930  
H     7.7470920   -3.8162920   -0.0818450  
H     3.9112560   -2.2306590   -0.8759960  
H     6.8467650    2.7102690    0.9912240  
H     9.2906140    1.0856780    1.4353520  
H     8.9164880   -1.1860260    0.8540310  
H     5.2566700   -4.3615210   -0.9906820  
C     1.1958070   -1.3528660    1.2272790  
C     2.5371780   -1.1449010    1.1053740  
C     2.7307550   -0.0737520    0.1585430  
C     1.4430010    0.3359250   -0.2660360  
N     0.5032480   -0.4770950    0.3862930  
C     1.2392140    1.4359760   -1.1024180  
C     2.3697210    2.1225510   -1.5213790  
O     2.2431390    3.2128360   -2.3268090  
C     3.6717900    1.7179130   -1.1330990  
O     4.6798290    2.4907900   -1.6673460  
C     3.8865440    0.6060140   -0.3121720  
H     3.3062090   -1.6734780    1.6498990  
H     0.2604430    1.7705900   -1.4180580  
H     3.1532540    3.5376790   -2.4672540  
H     5.3258250    2.6744880   -0.9506740  
H     0.6468720   -2.0413150    1.8487590  
C    -2.5360680   -0.5682810    3.4655170  
C    -3.6689470   -0.4337880    2.7384370  
C    -3.2248750   -0.3509130    1.3511440  
C    -1.7363930   -0.4642900    1.4410360  
N    -1.3444980   -0.5921890    2.6740730  
C    -0.8905580   -0.4326030    0.2542220  
C    -1.5304430   -0.3544770   -0.9516590  
O    -0.8898860   -0.3624660   -2.1350110  
C    -3.0062890   -0.2168690   -1.0637690  
O    -3.4829900   -0.0773370   -2.1901460  
C    -3.8632700   -0.2447160    0.1618600  
H    -4.6893990   -0.3890410    3.0901740  
H    -1.5960650   -0.2567330   -2.8103860  
H    -2.4385270   -0.6620280    4.5402120  
C    -7.0683960    2.5514220    1.5726200  
C    -5.8551940    1.9743960    1.3988420  
C    -6.1053790    0.8187760    0.5455510  
C    -7.5834500    0.8697810    0.2915660  
N    -8.1368230    1.8819550    0.8945510  
C    -8.2446060   -0.1011570   -0.5393200  
C    -7.4879980   -1.0770140   -1.0928510  
O    -7.9734740   -2.0534490   -1.8738330  
C    -6.0062900   -1.1738500   -0.8445540  
O    -5.4168910   -2.1432800   -1.3103280  
C    -5.3224650   -0.1390340   -0.0113620  
H    -4.9018080    2.2892880    1.7973440  
H    -9.3146550   -0.0372440   -0.7020300  
H    -7.2042640   -2.6207810   -2.0999100  
H    -7.3037700    3.4395310    2.1471330  
