62


C     1.0581730   -3.0020380   -1.5749540  
C     1.8866230   -2.2298040   -0.7807380  
C     2.8112140   -3.1486100   -0.1507220  
C     2.4833150   -4.4504080   -0.6049790  
N     1.4157740   -4.3267710   -1.4733770  
C     3.1633330   -5.5993610   -0.1815240  
C     4.1990790   -5.4292000    0.7225060  
O     4.9020970   -6.5109840    1.1670640  
C     4.5394000   -4.1326820    1.1930640  
O     5.5920510   -4.1252860    2.0902700  
C     3.8629900   -3.0032430    0.7753140  
H     0.9800930   -5.0852030   -1.9743470  
H     2.9118390   -6.5955540   -0.5308630  
H     5.5858620   -6.1777070    1.7735410  
H     5.8183480   -3.2096150    2.3104440  
H     4.1545020   -2.0209690    1.1346990  
H     0.2691730   -2.6961610   -2.2479130  
C    -1.6716630    0.2794090   -0.2277480  
C    -1.0239340    1.5170450   -0.1786640  
C     0.3665850    1.2816800   -0.2881890  
C     0.5335680   -0.1342040   -0.4314180  
N    -0.7070890   -0.7018450   -0.3793820  
C     1.7788840   -0.7735130   -0.6148960  
C     2.8681000    0.0973020   -0.6679820  
O     4.1185570   -0.3838640   -0.8738910  
C     2.7371910    1.5160800   -0.5348270  
O     3.9407570    2.1662280   -0.6156120  
C     1.5143360    2.1435460   -0.3064580  
H    -1.5186960    2.4714150   -0.0777530  
H    -0.9298650   -1.6875920   -0.3987420  
H     4.6913370    0.4066820   -0.9469490  
H     3.7884230    2.9900340   -1.1426280  
C    -0.5965840    4.4997640    2.8170730  
C    -0.0109080    3.5116800    2.0892180  
C     0.6281450    4.1287530    0.9500290  
C     0.3678690    5.5836150    1.0801210  
N    -0.3996220    5.7373650    2.2172280  
C     0.8025790    6.5375260    0.2154870  
C     1.6221630    6.1028210   -0.8984690  
O     2.0472310    6.8482440   -1.7670330  
C     2.0209350    4.5811910   -0.9729940  
O     2.9036510    4.2931350   -1.7815050  
C     1.3718030    3.5990760   -0.0876250  
H    -0.0153370    2.4592700    2.3237850  
H     0.5559590    7.5905280    0.3036120  
H    -1.1535260    4.4314030    3.7421130  
H    -0.6850250    6.6248660    2.6003770  
C    -3.0442430   -0.0874760   -0.1537890  
C    -4.1779700    0.6846960   -0.0104780  
C    -5.2723960   -0.2319410    0.0009430  
C    -4.6287070   -1.5856870   -0.1488210  
N    -3.3324660   -1.4952150   -0.2391610  
C    -5.4108920   -2.7915830   -0.1810310  
C    -6.7546390   -2.6627030   -0.0719060  
O    -7.6155010   -3.6847700   -0.0845030  
C    -7.4362220   -1.3112160    0.0801250  
O    -8.6695860   -1.3360770    0.1704670  
C    -6.6277450   -0.1096700    0.1102720  
H    -4.2347170    1.7609940    0.0722220  
H    -4.9283710   -3.7566970   -0.2880650  
H    -8.5013130   -3.2589250    0.0129960  
H    -7.1411960    0.8404160    0.2186320  
