62


C     5.0491580    2.2579980    0.8388500  
C     6.2958010    2.4099090    0.3009330  
C     6.4864150    1.3426480   -0.6422880  
C     5.3021990    0.5638410   -0.6354540  
N     4.4267870    1.1378720    0.2853280  
C     5.1251620   -0.5517620   -1.4630000  
C     6.1730520   -0.8976290   -2.3025220  
O     6.0535180   -1.9782130   -3.1283340  
C     7.3714640   -0.1363340   -2.3157300  
O     8.3207350   -0.6056970   -3.2043030  
C     7.5369030    0.9708290   -1.5041310  
H     7.0030470    3.1887090    0.5518070  
H     4.2166170   -1.1432430   -1.4682960  
H     6.8891100   -2.0580800   -3.6197590  
H     9.1185770   -0.0601440   -3.1425930  
H     8.4612880    1.5443680   -1.5372070  
H     4.5298610    2.8326810    1.5924990  
C     1.9786690    1.3960880    0.4260940  
C     3.1308280    0.6941890    0.5959730  
C     2.7811600   -0.5730130    1.2202990  
C     1.3107280   -0.5365810    1.4032080  
N     0.8717240    0.6815200    0.8953430  
C     0.5925170   -1.5377420    1.9788610  
C     1.3010760   -2.7296060    2.4368320  
O     0.7335290   -3.6825500    2.9502880  
C     2.8616530   -2.7813490    2.2541030  
O     3.4699090   -3.7673610    2.6371490  
C     3.5255950   -1.6324060    1.6272920  
H    -0.4783060   -1.4830940    2.1396600  
H     4.6036120   -1.6680950    1.5086050  
H     1.8380500    2.3810340    0.0051860  
C    -2.7177160   -1.0808790   -0.8779240  
C    -3.6132210   -0.0893380   -0.5167120  
C    -2.8371730    0.9093080    0.1951400  
C    -1.4999070    0.4433110    0.2316660  
N    -1.4530280   -0.7580980   -0.4418490  
C    -0.4674890    1.1546970    0.8740490  
C    -0.8005620    2.3683820    1.4709780  
O     0.1633500    3.1087800    2.0857560  
C    -2.1336550    2.8486580    1.4203640  
O    -2.2953050    4.0680120    2.0447810  
C    -3.1465870    2.1396830    0.8065030  
H    -0.6336330   -1.3372170   -0.5431840  
H    -0.2684750    3.9172000    2.4159550  
H    -3.1962060    4.3930530    1.8965510  
H    -4.1502900    2.5460140    0.7540590  
H    -2.8799650   -1.9688670   -1.4726430  
C    -6.5021290   -3.3714820   -0.2757840  
C    -7.6170040   -2.7410100   -0.7282270  
C    -7.2499740   -1.3722590   -1.0210590  
C    -5.8073840   -1.2571580   -0.7066560  
N    -5.4050550   -2.5177150   -0.2969540  
C    -5.0528770   -0.1163900   -0.8011920  
C    -5.7790820    1.0901660   -1.2465730  
O    -5.2507560    2.1867360   -1.3504550  
C    -7.3106240    0.9811740   -1.6123440  
O    -7.8837680    1.9953240   -1.9814840  
C    -7.9700780   -0.3090790   -1.4746310  
H    -8.5981960   -3.1767400   -0.8481340  
H    -9.0253600   -0.3732850   -1.7203230  
H    -6.3787640   -4.3937810    0.0570820  
H    -4.5251710   -2.6870040    0.1689600  
