62


C    -0.1146020   -1.0471510   -0.6981520  
C    -0.3927370   -2.3153670   -1.1459540  
C    -1.8138770   -2.4774620   -1.0531530  
C    -2.3447380   -1.2629550   -0.5418960  
N    -1.2791350   -0.4243230   -0.2862120  
C    -3.7244730   -1.0314880   -0.3247640  
C    -4.5524610   -2.1054600   -0.6686130  
O    -5.9130530   -2.0138770   -0.5027550  
C    -4.0385330   -3.3274130   -1.1737130  
O    -5.0182700   -4.2688570   -1.4403930  
C    -2.6881690   -3.5341280   -1.3655220  
H     0.3261130   -3.0343060   -1.5136810  
H    -1.3867700    0.5744360   -0.1725720  
H    -6.2968960   -2.8150710   -0.9031940  
H    -4.6383860   -4.9936610   -1.9583760  
H    -2.3177440   -4.4832620   -1.7462020  
C     2.2564950   -0.9271680    0.0218560  
C     3.3119570   -0.0599000    0.0051620  
C     2.8304420    1.1527730   -0.6651500  
C     1.4236800    0.8893490   -1.0446080  
N     1.1201950   -0.3918800   -0.5853310  
C     0.6299040    1.7549210   -1.7262210  
C     1.1804900    3.0546770   -2.0949410  
O     0.5331470    3.9076670   -2.6843780  
C     2.6728970    3.3551250   -1.7129180  
O     3.1660950    4.4222180   -2.0393300  
C     3.4286560    2.3277290   -0.9821780  
H    -0.3906120    1.5285820   -2.0143450  
H     4.4500310    2.5607900   -0.7057390  
H     2.1877700   -1.9084030    0.4728390  
C     5.9852450   -3.5048630   -0.4786330  
C     7.0026540   -3.1261550    0.3360540  
C     6.6552410   -1.8337400    0.8894960  
C     5.3295750   -1.4888790    0.3262980  
N     4.9594670   -2.5631170   -0.4645090  
C     4.6456490   -0.3250090    0.5557990  
C     5.3000410    0.6460630    1.4574980  
O     4.7915860    1.7124800    1.7611840  
C     6.7060360    0.2903020    2.0736300  
O     7.2400230    1.1102500    2.8038790  
C     7.3102570   -0.9941890    1.7368380  
H     7.9058840   -3.6831450    0.5382920  
H     8.2799700   -1.2281430    2.1648730  
H     5.8821670   -4.3996980   -1.0782990  
H     4.2003060   -2.5222850   -1.1284120  
C    -6.5563180   -0.3248350    3.0260410  
C    -6.4670770    1.0401390    3.0685690  
C    -5.5776550    1.4325050    2.0120230  
C    -5.1491930    0.2427280    1.3632330  
N    -5.7345400   -0.8170750    2.0278570  
C    -4.2402590    0.2290510    0.2759880  
C    -3.8118520    1.4927360   -0.1489980  
O    -2.9310320    1.6169550   -1.2019700  
C    -4.2338180    2.6863170    0.4865920  
O    -3.6884520    3.8279000   -0.0723590  
C    -5.0983920    2.6752200    1.5623760  
H    -6.9631370    1.6935880    3.7730610  
H    -5.8584530   -1.7178660    1.5871880  
H    -2.8451560    2.5714340   -1.3842710  
H    -4.0976380    4.6130700    0.3197430  
H    -5.3972360    3.6037710    2.0441730  
H    -7.1328540   -1.0037850    3.6390340  
