60


C    -0.5675140    3.6449170    0.8613430  
C    -1.5815850    4.5488260    0.8707990  
C    -2.6726350    3.9921770    0.1107110  
C    -2.2627210    2.7199190   -0.3498130  
N    -0.9562000    2.5051080    0.1347700  
C    -3.0661220    1.9327910   -1.1824470  
C    -4.3246470    2.4225690   -1.5099320  
O    -5.1396580    1.6847980   -2.3100090  
C    -4.7616780    3.6828310   -1.0289590  
O    -6.0285220    4.0269900   -1.4410100  
C    -3.9469810    4.4716980   -0.2349590  
H    -1.5678750    5.5061160    1.3736080  
H    -2.7502010    0.9871120   -1.6045440  
H    -5.9697560    2.1799600   -2.4227900  
H    -6.2820800    4.8802590   -1.0584610  
H    -4.2859060    5.4471900    0.1063850  
H     0.3990920    3.6635420    1.3408910  
C    -0.1569020    1.3986440   -0.0204020  
C     1.2111330    1.3029240    0.0234500  
C     1.5564750   -0.0810470   -0.1484460  
C     0.2743320   -0.8022300   -0.2930170  
N    -0.7357620    0.1463930   -0.2537530  
C     0.1570940   -2.1524500   -0.4572690  
C     1.3988930   -2.9288750   -0.5940850  
O     1.3987990   -4.1216820   -0.8493690  
C     2.7676970   -2.1842710   -0.4142660  
O     3.7755640   -2.8673360   -0.3748080  
C     2.7712830   -0.7199060   -0.2412900  
H     1.9028540    2.1297250    0.0664570  
H    -1.6770750   -0.0782000    0.0501920  
C     4.5832030    1.7447580    2.9467340  
C     5.7762400    2.0254230    2.3633910  
C     5.7778190    1.3954430    1.0586870  
C     4.4646740    0.7191180    0.9268830  
N     3.7786120    0.9916120    2.0962920  
C     4.0690150   -0.0333080   -0.1424750  
C     5.0205860   -0.1258620   -1.2732390  
O     4.7365080   -0.6687840   -2.3258260  
C     6.4290140    0.5590310   -1.1360600  
O     7.2315410    0.4333110   -2.0472680  
C     6.7149300    1.3256650    0.0755170  
H     6.5805650    2.6053020    2.7919640  
H     7.6880520    1.8001600    0.1566710  
H     4.2127470    2.0276330    3.9233530  
H     2.8997350    0.5659050    2.3466810  
C    -1.4130430   -3.7433440   -1.5704210  
C    -2.6802840   -4.1951860   -1.4280330  
C    -3.2385650   -3.5697310   -0.2490240  
C    -2.1666760   -2.7014690    0.3019040  
N    -1.0827060   -2.8174450   -0.5586640  
C    -2.2865270   -1.9861800    1.4553450  
C    -3.5508720   -2.0419070    2.1865490  
O    -3.7345800   -1.4455960    3.2366700  
C    -4.7139820   -2.9094240    1.5865070  
O    -5.7919420   -2.9323100    2.1581680  
C    -4.4476220   -3.6691600    0.3610150  
H    -3.1823950   -4.9011690   -2.0733720  
H    -1.4692270   -1.4318100    1.9042950  
H    -5.2424510   -4.3040550   -0.0186270  
H    -0.6695560   -3.9867760   -2.3138040  
