62


C     5.5387010    2.0436840    0.7901110  
C     4.9735810    0.8790690    0.3121550  
C     6.0797500   -0.0131700    0.0182540  
C     7.2748370    0.6776030    0.3475110  
N     6.9103580    1.9253680    0.8121140  
C     8.5471340    0.1197810    0.1722230  
C     8.6179370   -1.1614970   -0.3509440  
O     9.8314390   -1.7528620   -0.5388440  
C     7.4339040   -1.8655330   -0.7008670  
O     7.6693720   -3.1238300   -1.2180760  
C     6.1789460   -1.3124530   -0.5277300  
H     7.5489760    2.6370670    1.1317510  
H     9.4614120    0.6482750    0.4220520  
H     9.6693610   -2.6308030   -0.9254410  
H     6.8293100   -3.5342880   -1.4714980  
H     5.2893830   -1.8678510   -0.8143270  
H     5.0536780    2.9441680    1.1387440  
C     1.6546950    3.2236730   -1.6118690  
C     2.8716510    2.7968020   -1.1521150  
C     2.6597710    1.5443940   -0.4798840  
C     1.2719380    1.2629750   -0.5774770  
N     0.6849470    2.2952100   -1.2757380  
C     0.7032900    0.0903140   -0.0461110  
C     1.5655540   -0.8069430    0.5807820  
O     1.0684790   -1.9579490    1.1197110  
C     2.9517350   -0.5381310    0.6693710  
O     3.6516420   -1.5215580    1.3408810  
C     3.5307750    0.6227650    0.1579320  
H     3.8165870    3.3016000   -1.2892730  
H    -0.3052410    2.4004660   -1.4337240  
H     1.8158040   -2.4052790    1.5562270  
H     4.5614130   -1.2131150    1.4935710  
H     1.3883060    4.1155530   -2.1608510  
C    -1.2218810   -1.3429540   -0.7438120  
C    -2.5791020   -1.3450870   -0.6955310  
C    -2.9865010   -0.1366620   -0.0197120  
C    -1.7322630    0.5793940    0.3269720  
N    -0.6845510   -0.1974830   -0.1535380  
C    -1.6775030    1.7703810    0.9803960  
C    -2.9317250    2.4121920    1.3540110  
O    -2.9863560    3.4961620    1.9141800  
C    -4.2730990    1.6702370    1.0222620  
O    -5.3209160    2.1468360    1.4228880  
C    -4.2166190    0.3861740    0.2840830  
H    -3.2307210   -2.1127310   -1.0839560  
H    -0.7473270    2.2639600    1.2386030  
H    -0.5469570   -2.0774650   -1.1597250  
C    -6.1350260   -3.5864360    1.1446920  
C    -5.2270550   -2.5815190    1.1104830  
C    -5.8581960   -1.5258380    0.3245240  
C    -7.1943440   -2.0953810   -0.0328240  
N    -7.3491110   -3.2972150    0.4474030  
C    -8.1615310   -1.3476790   -0.7940420  
C    -7.8219260   -0.0992840   -1.1877270  
O    -8.6161690    0.7062940   -1.9113100  
C    -6.4718560    0.4922690   -0.8802250  
O    -6.2075400    1.5778920   -1.3861900  
C    -5.4911280   -0.2718440   -0.0447480  
H    -4.2481040   -2.5491350    1.5662750  
H    -9.1232460   -1.7882890   -1.0321330  
H    -8.0879590    1.5191460   -2.0705880  
H    -6.0424650   -4.5480930    1.6358150  
