62


C     4.5344090    0.3634110    2.4534860  
C     3.3862580   -0.1478090    1.9010700  
C     3.7647590   -0.8911590    0.7290130  
C     5.1784580   -0.7999360    0.6348550  
N     5.6165190   -0.0127500    1.6824190  
C     5.9244270   -1.4530890   -0.3511350  
C     5.2198490   -2.2429050   -1.2454660  
O     5.8771210   -2.9255000   -2.2200050  
C     3.8053150   -2.3670050   -1.1758150  
O     3.2817060   -3.1706370   -2.1586050  
C     3.0424250   -1.6734170   -0.2274330  
H     2.3899740   -0.0237720    2.2989780  
H     6.5832570    0.1586690    1.9099150  
H     7.0056960   -1.3881850   -0.4174540  
H     5.1878650   -3.4368780   -2.6875560  
H     2.5725540   -3.7147740   -1.7382570  
H     4.6730160    0.9585800    3.3452300  
C    -0.0540130    1.5221630   -0.0018730  
C     1.1105060    0.7808230   -0.1159000  
C     0.7685200   -0.6011490   -0.0926730  
C    -0.7097380   -0.6546570    0.0151360  
N    -1.1365100    0.6461240    0.0799220  
C    -1.4746380   -1.7990400    0.0800340  
C    -0.6935610   -3.0274260    0.0978110  
O    -1.1481780   -4.1372100    0.3813080  
C     0.8298360   -2.9909320   -0.2742430  
O     1.3235410   -4.0689640   -0.6124630  
C     1.5656780   -1.7326100   -0.1907130  
H     2.1038610    1.1673800   -0.2612350  
H    -2.0986680    0.9641350    0.0458830  
C     2.7243910    4.9099430    0.8269300  
C     2.1561960    3.6713750    0.7368960  
C     0.8060580    3.8480030    0.2729150  
C     0.6209270    5.3074100    0.1141500  
N     1.8327030    5.8900620    0.4368240  
C    -0.5255770    5.9200110   -0.2823070  
C    -1.6888210    5.0869780   -0.5343940  
O    -2.7621960    5.5231900   -0.9191410  
C    -1.5590990    3.5437520   -0.2823250  
O    -2.5884800    2.8840480   -0.3199780  
C    -0.2256110    2.9574710    0.0003540  
H     2.6348950    2.7459000    1.0177070  
H    -0.6152720    6.9928670   -0.4204080  
H     3.7200810    5.1806650    1.1522090  
H     2.0021740    6.8834620    0.4665980  
C    -4.5957990    0.3458800   -2.3265120  
C    -3.4185350   -0.1905440   -1.8707220  
C    -3.7286660   -0.9811210   -0.7096430  
C    -5.1351550   -0.8960120   -0.5260140  
N    -5.6311150   -0.0743910   -1.5178600  
C    -5.8176460   -1.5887210    0.4787420  
C    -5.0585740   -2.4043570    1.3026130  
O    -5.6545910   -3.1286140    2.2890120  
C    -3.6493830   -2.5079730    1.1512630  
O    -3.0542090   -3.3359980    2.0752890  
C    -2.9521350   -1.7804500    0.1816740  
H    -2.4492210   -0.0496930   -2.3262790  
H    -6.6009750    0.1728090   -1.6352510  
H    -6.8930690   -1.5307320    0.6123520  
H    -4.9348560   -3.6454160    2.7003640  
H    -2.3733120   -3.8613000    1.5928470  
H    -4.7832490    0.9989940   -3.1667670  
