60


C    -3.5247840    1.5824300    2.7265430  
C    -4.2301840    2.6524350    2.2467670  
C    -3.5059860    3.1593950    1.1154030  
C    -2.3504580    2.3489790    0.9636990  
N    -2.3686250    1.4158620    1.9812050  
C    -1.3843310    2.5663350   -0.0441150  
C    -1.6527620    3.6107950   -0.9362150  
O    -0.8081740    3.8521130   -1.9788900  
C    -2.8054430    4.4245310   -0.7940610  
O    -2.9033060    5.4139180   -1.7565500  
C    -3.7208270    4.2234000    0.2191140  
H    -5.1559240    3.0394130    2.6495200  
H    -1.8304920    0.5628010    1.9484520  
H    -1.1680600    4.6163780   -2.4625220  
H    -3.7326940    5.8994840   -1.6374720  
H    -4.5936150    4.8665610    0.3119260  
H    -3.7393310    0.9212260    3.5543510  
C    -0.6771920   -1.7542430   -0.2884590  
C     0.6918390   -1.8235600   -0.4797430  
C     1.1274370   -0.4695480   -0.4526410  
C    -0.1238450    0.3396370   -0.2511360  
N    -1.1713480   -0.4447650   -0.1434900  
C    -0.1358430    1.7802710   -0.1691660  
C     1.1008390    2.3651860   -0.2315070  
O     1.3046360    3.6704610   -0.0973380  
C     2.3902530    1.5979440   -0.4703330  
O     3.4150440    2.2716800   -0.5796120  
C     2.3506310    0.1378780   -0.5593340  
H     1.3136400   -2.6962370   -0.6052270  
H     2.2724930    3.8011310   -0.2354960  
C    -1.1594870   -4.1493790   -0.2057660  
C    -2.2143760   -4.9878790   -0.1256710  
C    -3.4172140   -4.1845790   -0.0756370  
C    -2.9810010   -2.7689800   -0.1325680  
N    -1.5642910   -2.8002500   -0.2078880  
C    -3.8382190   -1.7217480   -0.1289690  
C    -5.2810200   -2.0051460   -0.0532900  
O    -6.1167300   -1.1180280   -0.0546000  
C    -5.7547240   -3.4960200    0.0280670  
O    -6.9466570   -3.7433660    0.1053520  
C    -4.7244750   -4.5380100    0.0022640  
H    -2.1683340   -6.0673910   -0.0983190  
H    -3.5150820   -0.6911950   -0.1818790  
H    -5.0482280   -5.5735260    0.0433810  
H    -0.1061970   -4.3820230   -0.2496380  
C     3.6664020   -1.4494160   -1.9429500  
C     4.8962970   -2.0157400   -1.9781540  
C     5.6412440   -1.5061530   -0.8466270  
C     4.7296990   -0.5763840   -0.1358670  
N     3.5305790   -0.5699470   -0.8580930  
C     5.0481680    0.0660140    1.0133170  
C     6.3831470   -0.1359530    1.5777300  
O     6.7509580    0.4013910    2.6104760  
C     7.3747400   -1.0912430    0.8215400  
O     8.4946040   -1.2649130    1.2754830  
C     6.9006710   -1.7486800   -0.3986470  
H     5.2607750   -2.7082410   -2.7232730  
H     4.3754450    0.7378170    1.5328860  
H     7.5811240   -2.4276660   -0.9035630  
H     2.8321120   -1.5662790   -2.6213770  
