60


C    -6.2915170    0.4063560    3.0969680  
C    -7.4006980    0.1024130    2.3536040  
C    -6.9420090   -0.2595000    1.0425510  
C    -5.5262560   -0.1581070    1.0532580  
N    -5.1597390    0.2552930    2.3152260  
C    -4.7313870   -0.3951270   -0.0943410  
C    -5.4144770   -0.7851220   -1.2531390  
O    -4.7107330   -1.1179630   -2.3674010  
C    -6.8261300   -0.9048760   -1.2680510  
O    -7.3308660   -1.3113850   -2.4876750  
C    -7.5906560   -0.6424530   -0.1472890  
H    -8.4258660    0.1363680    2.6952280  
H    -4.2108150    0.3862070    2.6301010  
H    -5.3546150   -1.2945330   -3.0758470  
H    -8.2989650   -1.3089490   -2.4583300  
H    -8.6739230   -0.7377580   -0.1856440  
H    -6.2043600    0.7195700    4.1276040  
C    -1.3409090   -1.9596140    2.3836940  
C    -2.5879470   -1.7427690    1.8990240  
C    -2.4162920   -0.7981300    0.7984750  
C    -0.9513670   -0.5593300    0.7659720  
N    -0.3274980   -1.2364470    1.6881580  
C    -0.3372500    0.3207290   -0.2162270  
C    -1.1637960    0.8911620   -1.1366410  
O    -0.7418640    1.6969500   -2.1238140  
C    -2.6500790    0.7076410   -1.0908000  
O    -3.3082380    1.3749860   -1.8824320  
C    -3.2719450   -0.2288660   -0.0932570  
H    -3.5187590   -2.1820490    2.2281540  
H    -1.5627010    2.0020640   -2.5729760  
H    -1.0433570   -2.6066100    3.1998890  
C     1.9989580   -0.4682710   -0.0477060  
C     3.2756940    0.0229400    0.0179960  
C     3.1636480    1.4763350   -0.0879000  
C     1.7139750    1.7749140   -0.1878470  
N     1.0531350    0.5411980   -0.1773740  
C     1.1876380    3.0217790   -0.2391830  
C     2.1002240    4.1633540   -0.2621490  
O     1.7109850    5.3206810   -0.3001000  
C     3.6389530    3.8709040   -0.2502280  
O     4.4215090    4.8070570   -0.3133540  
C     4.0800010    2.4779340   -0.1473690  
H     0.1256780    3.2206620   -0.2969620  
H     5.1449040    2.2995630   -0.0818550  
H     1.6780790   -1.4957110   -0.0255680  
C     4.0439240   -3.9475810   -1.6484030  
C     5.3176540   -4.1867020   -1.2660560  
C     5.7129630   -3.0067640   -0.5032080  
C     4.5047840   -2.1224510   -0.5370750  
N     3.5400570   -2.6797180   -1.2086160  
C     4.4743250   -0.8096480    0.1118580  
C     5.6111260   -0.4697220    0.7941060  
O     5.7419360    0.6615210    1.5142810  
C     6.8281470   -1.3346860    0.8382440  
O     7.7968240   -0.9304470    1.4847790  
C     6.8330220   -2.6353950    0.1412680  
H     5.9291160   -5.0545950   -1.4702310  
H     6.6544490    0.6264270    1.8805380  
H     7.7407450   -3.2283580    0.1995570  
H     3.3883510   -4.5838500   -2.2305770  
