60


C    -3.0089960    1.9620270    0.1165310  
C    -4.3200750    2.3135090   -0.1723560  
C    -5.0876510    1.1180520   -0.2177270  
C    -4.1981670    0.0410540    0.0584560  
N    -2.9364250    0.5711340    0.2188850  
C    -4.6226630   -1.2903380    0.1279790  
C    -5.9644710   -1.5423800   -0.1076860  
O    -6.4293470   -2.8165570   -0.0612270  
C    -6.8693820   -0.4781990   -0.4070880  
O    -8.1593730   -0.9071420   -0.6207790  
C    -6.4505350    0.8333480   -0.4655810  
H    -4.6661210    3.3184500   -0.3716140  
H    -2.1703040    0.0730970    0.6491390  
H    -3.9489020   -2.1080950    0.3590780  
H    -7.3869130   -2.7897440   -0.2358910  
H    -8.7403480   -0.1489720   -0.7839580  
H    -7.1552470    1.6307010   -0.6897120  
C    -1.8484080    2.7891340    0.2541550  
C    -1.7300320    4.1333350    0.5014410  
C    -0.3349780    4.4639370    0.5226460  
C     0.3938160    3.2008660    0.2793460  
N    -0.5580540    2.2142940    0.1738300  
C     1.7629550    3.0821140    0.1583340  
C     2.5251710    4.3461410    0.2204240  
O     3.7245840    4.4192160   -0.0185440  
C     1.7794690    5.6714110    0.6068790  
O     2.4501230    6.6787310    0.7757410  
C     0.3303450    5.6408780    0.7162890  
H    -2.5459450    4.8157920    0.6899020  
H    -0.1811990    6.5741940    0.9287090  
H    -0.3720630    1.3623230   -0.3435670  
C     2.4304440    1.8134740   -0.0594840  
C     1.9654070    0.5216030    0.1234350  
C     3.0130770   -0.3861810   -0.2372980  
C     4.1634870    0.4593150   -0.6350850  
N     3.7388040    1.7657430   -0.5268220  
C     5.3801850   -0.0163580   -1.0048090  
C     5.5790820   -1.4599210   -1.0236650  
O     6.6442770   -1.9844970   -1.3092810  
C     4.3562090   -2.3840230   -0.6807930  
O     4.4673830   -3.5852320   -0.8547840  
C     3.0879450   -1.7600090   -0.2321630  
H     1.0301440    0.2332760    0.5742470  
H     6.2155040    0.6246840   -1.2680450  
H     4.2990420    2.6076600   -0.5970290  
C    -1.1382470   -2.1746680   -1.6248380  
C     0.1471260   -1.7726300   -1.4492530  
C     0.7225120   -2.5907820   -0.3956420  
C    -0.3494980   -3.5204790    0.0250050  
N    -1.4737490   -3.1793430   -0.7174350  
C    -0.2100420   -4.5166600    0.9369870  
C     1.0876630   -4.6808220    1.5769570  
O     1.3344590   -5.5698850    2.3767740  
C     2.2133410   -3.6405320    1.2357210  
O     3.2203910   -3.6323770    1.9167220  
C     1.9792560   -2.6413170    0.1499540  
H     0.6602520   -1.0071230   -2.0112830  
H    -1.0066290   -5.2075340    1.1956530  
H    -1.8798220   -1.8203890   -2.3287420  
H    -2.2715460   -3.7885610   -0.8254830  
