60


C     3.1656790   -4.2663970   -1.2087870  
C     4.4252180   -4.6703700   -0.8495680  
C     5.0608950   -3.5493680   -0.2181620  
C     4.1223970   -2.4843080   -0.2204420  
N     2.9740370   -2.9520280   -0.8283950  
C     4.4081390   -1.2012030    0.3051560  
C     5.6841310   -1.0258670    0.8431170  
O     6.0320130    0.1774070    1.3934830  
C     6.6299830   -2.0815050    0.8503820  
O     7.8391240   -1.7334190    1.4260260  
C     6.3376100   -3.3300040    0.3354540  
H     4.8525420   -5.6495190   -1.0164920  
H     2.1404180   -2.4097160   -1.0142820  
H     6.9500180    0.0916860    1.7058790  
H     8.4412770   -2.4912980    1.3973830  
H     7.0834610   -4.1222120    0.3544860  
H     2.3736920   -4.8083910   -1.7059900  
C     2.0753290   -0.3458600    0.5670040  
C     3.3862320   -0.1462070    0.2684100  
C     3.4889500    1.2310740   -0.2125170  
C     2.1124340    1.7862490   -0.1998330  
N     1.2845160    0.7860640    0.3131260  
C     1.7832560    3.0257710   -0.6504870  
C     2.8489920    3.8945140   -1.1460940  
O     2.6419800    5.0249210   -1.5604670  
C     4.3158610    3.3388150   -1.1340640  
O     5.2237260    4.0561250   -1.5226220  
C     4.5359140    1.9674620   -0.6609790  
H     0.7662620    3.3976530   -0.7006110  
H     5.5488620    1.5838690   -0.6742380  
H     1.6054630   -1.2286630    0.9725920  
C    -1.6836550    3.5131200    1.9562360  
C    -2.8076880    2.8946220    1.5083790  
C    -2.4005560    1.7146210    0.7766600  
C    -0.9303970    1.6970780    0.8437950  
N    -0.5529940    2.8045780    1.5609640  
C    -0.1216330    0.7349750    0.2842520  
C    -0.7751270   -0.3898030   -0.3647930  
O    -0.1777710   -1.3347570   -0.8678180  
C    -2.3526110   -0.4179110   -0.4039970  
O    -2.8622000   -1.4074740   -0.8995540  
C    -3.1298130    0.7200160    0.1448380  
H    -3.8211600    3.2097790    1.6997980  
H    -1.5775270    4.4108630    2.5494510  
H     0.4033050    3.0881380    1.7146720  
C    -5.2991470    1.9387210   -0.2453160  
C    -4.5665510    0.7930270   -0.0412890  
C    -5.5965580   -0.2778490   -0.0308840  
C    -6.8798480    0.4562830   -0.2275050  
N    -6.6841380    1.7446230   -0.3641280  
C    -8.1506390   -0.2107690   -0.2589020  
C    -8.1645490   -1.5546810   -0.0825760  
O    -9.2740830   -2.3065020   -0.0801970  
C    -6.8934080   -2.3256140    0.1365240  
O    -6.9825580   -3.5401420    0.3021380  
C    -5.5957480   -1.6129370    0.1451040  
H    -9.0576680    0.3634280   -0.4112340  
H    -8.9669840   -3.2277220    0.0716550  
H    -4.7050340   -2.2156390    0.2667640  
H    -4.9072560    2.9416250   -0.3634040  
