60


C     4.8134120    4.0025170    0.3588510  
C     3.8896780    2.9885050    0.2464600  
C     2.6043000    3.5929510    0.0553240  
C     2.8201190    4.9930820    0.0682310  
N     4.1698390    5.2109120    0.2489510  
C     1.7946250    5.9379750   -0.0677440  
C     0.5052890    5.4622900   -0.2142410  
O    -0.5343710    6.3313540   -0.3395530  
C     0.2329520    4.0677870   -0.2373860  
O    -1.0829560    3.7850060   -0.3829240  
C     1.2658270    3.0959140   -0.1185190  
H     4.1320940    1.9404980    0.3148390  
H     4.6106430    6.1165500    0.2947920  
H     1.9760700    7.0080150   -0.0522770  
H    -1.3403960    5.7875870   -0.4080740  
H    -1.1730730    2.7810870   -0.3478090  
H     5.8825740    3.9544600    0.5080340  
C     0.9530970    1.6927660   -0.1882600  
C     1.7550900    0.5654750   -0.1682740  
C     0.8873900   -0.5644220   -0.2824940  
C    -0.4833430    0.0175120   -0.3835290  
N    -0.4282990    1.3196800   -0.3190310  
C    -1.6836190   -0.7800300   -0.5490240  
C    -1.4643170   -2.1270650   -0.6071360  
O    -2.4348260   -3.0251020   -0.7915300  
C    -0.1009430   -2.7642670   -0.4395880  
O    -0.0952300   -3.9930660   -0.3753460  
C     1.1019990   -1.9221040   -0.3177070  
H     2.8306880    0.5255130   -0.1731110  
H    -1.9816220   -3.9014470   -0.7377400  
C    -3.2865710    0.9789300   -1.3848150  
C    -3.0039150   -0.1509350   -0.6670780  
C    -4.2590410   -0.5571090   -0.0337180  
C    -5.2817810    0.4279570   -0.4666690  
N    -4.6231460    1.3229590   -1.2877780  
C    -6.5852550    0.4114920   -0.0905670  
C    -7.0303120   -0.6384880    0.8199850  
O    -8.1819730   -0.7368980    1.2151270  
C    -5.9617670   -1.6784370    1.3157580  
O    -6.3055900   -2.5545420    2.0934600  
C    -4.5838330   -1.5568830    0.8262480  
H    -7.3114380    1.1465420   -0.4240490  
H    -3.8684700   -2.2952830    1.1666840  
H    -2.6173990    1.5813360   -1.9828590  
H    -5.0496250    2.1219710   -1.7303990  
C     4.3443520   -1.4651950    2.6491090  
C     5.2050320   -2.4059860    2.1842710  
C     4.6047320   -2.9913240    1.0033410  
C     3.3048500   -2.3018700    0.8163930  
N     3.2013690   -1.4024550    1.8563700  
C     2.4036720   -2.5795190   -0.1798040  
C     2.8227790   -3.5860370   -1.1839510  
O     2.1961840   -3.7913600   -2.2078350  
C     4.1624020   -4.3727270   -0.9556410  
O     4.4502500   -5.2741120   -1.7266710  
C     5.0135800   -3.9830340    0.1667010  
H     6.1560420   -2.6793320    2.6173670  
H     5.9480020   -4.5185750    0.3037450  
H     4.4337570   -0.8150120    3.5093400  
H     2.4790260   -0.7001510    1.9269730  
