62


C    -3.2350510   -1.6477300    1.9105070  
C    -3.6414000   -0.8298670    0.8656550  
C    -4.8868870   -1.3855380    0.3695810  
C    -5.1714470   -2.5236130    1.1624280  
N    -4.1446280   -2.6502260    2.0858930  
C    -6.2967680   -3.3303050    0.9657280  
C    -7.1575330   -2.9842670   -0.0644140  
O    -8.2688220   -3.7335810   -0.2999270  
C    -6.8808080   -1.8590690   -0.8865530  
O    -7.8154870   -1.6561740   -1.8789220  
C    -5.7647710   -1.0657350   -0.6860050  
H    -4.0888420   -3.3616280    2.7993950  
H    -6.5102850   -4.2031840    1.5737170  
H    -8.7265550   -3.3466300   -1.0663610  
H    -7.5469650   -0.9134620   -2.4399800  
H    -5.5622650   -0.2346180   -1.3569980  
H    -2.3723760   -1.5555670    2.5546090  
C    -2.9339920    0.3409160    0.4230670  
C    -1.6069480    0.6822110    0.5672150  
C    -1.4070790    1.9855430    0.0190710  
C    -2.7348340    2.4228680   -0.4735550  
N    -3.6056320    1.3592100   -0.2743680  
C    -2.9983600    3.6351280   -1.0158250  
C    -1.8926610    4.5771310   -1.1216360  
O    -1.9992220    5.6785320   -1.6373500  
C    -0.4996120    4.1589090   -0.5279010  
O     0.3492170    5.0543730   -0.4543500  
C    -0.2810610    2.7894700   -0.0732430  
H    -0.8390090    0.0488990    0.9832950  
H    -3.9702740    3.9292430   -1.3992090  
H    -4.6000720    1.5021790   -0.1638270  
C     1.9858170   -0.8871560   -1.2532000  
C     1.0695970    0.1222870   -1.1543210  
C     1.5500910    1.0503500   -0.1651670  
C     2.7869220    0.5434020    0.3036210  
N     3.0403300   -0.6536870   -0.3667500  
C     3.5969570    1.2311920    1.2119750  
C     3.1407970    2.4670970    1.6394540  
O     3.8814460    3.2087460    2.5052720  
C     1.8992830    3.0002700    1.1941580  
O     1.5993300    4.2251920    1.7371910  
C     1.0603730    2.2976480    0.3245050  
H     0.1496990    0.1915110   -1.7163270  
H     4.5437870    0.8460910    1.5712430  
H     3.3819570    4.0395810    2.6272490  
H     1.2133300    4.7706540    1.0084670  
H     1.9725870   -1.7936100   -1.8422000  
C     5.9285230   -1.8495340   -3.3432990  
C     6.6930050   -2.6828850   -2.5900880  
C     6.1410940   -2.6855980   -1.2509600  
C     4.9767720   -1.7717450   -1.2947500  
N     4.8893220   -1.3116030   -2.5913400  
C     4.1746600   -1.4782260   -0.2297480  
C     4.4773590   -2.1371260    1.0534960  
O     3.7934300   -1.9947410    2.0515610  
C     5.7378180   -3.0836760    1.1199330  
O     6.0231970   -3.5866330    2.1952990  
C     6.5074800   -3.3139890   -0.1003310  
H     7.5557740   -3.2401000   -2.9245220  
H     7.3616760   -3.9810360   -0.0411010  
H     6.0292200   -1.5810370   -4.3865920  
H     4.2241600   -0.6190190   -2.9014620  
