66


C     5.8259890    2.0887530   -0.3287080  
C     7.0899190    1.7621300   -0.7376760  
C     7.1821130    0.3297630   -0.7276030  
C     5.9198370   -0.1632520   -0.3033510  
N     5.0973000    0.9333810   -0.0580290  
C     5.6400670   -1.5355240   -0.2004770  
C     6.6604500   -2.4220890   -0.5153450  
O     6.4401660   -3.7662440   -0.4328070  
C     7.9316520   -1.9453990   -0.9291230  
O     8.8418000   -2.9490360   -1.2029240  
C     8.1981960   -0.5928490   -1.0429300  
H     7.8686390    2.4613880   -1.0101460  
H     4.6629440   -1.9180990    0.0746660  
H     7.2605870   -4.2097360   -0.7092980  
H     9.6689260   -2.5577520   -1.5204270  
H     9.1777930   -0.2519420   -1.3728520  
H     5.3616060    3.0530130   -0.1812950  
C     1.3107520    2.5673010   -1.6861840  
C     2.6176600    2.2018890   -1.5236000  
C     2.7066040    1.5060100   -0.2705460  
C     1.4065750    1.4829070    0.2935210  
N     0.5559280    2.1379890   -0.5966410  
C     1.1246950    0.8854030    1.5283450  
C     2.1781230    0.2843600    2.1998910  
O     1.9609600   -0.3186550    3.4043890  
C     3.4927420    0.2977180    1.6664350  
O     4.4350700   -0.2967030    2.4736660  
C     3.7662950    0.9032190    0.4423890  
H     3.4222100    2.3868460   -2.2206800  
H     0.1349140    0.8854240    1.9693410  
H     2.8158660   -0.6808170    3.6975420  
H     5.2485670   -0.4668140    1.9684070  
H     0.8183470    3.0819700   -2.4981700  
C    -0.8172090    2.3623840   -0.4409680  
C    -1.5483040    3.5077360   -0.6378400  
C    -2.9229720    3.1672200   -0.4003750  
C    -2.9604450    1.7960140   -0.0427060  
N    -1.6572090    1.3292440   -0.0593930  
C    -4.1424660    1.0852610    0.2548880  
C    -5.3215820    1.8314390    0.1718100  
O    -6.5264230    1.2432380    0.4476180  
C    -5.3045260    3.2053330   -0.1805010  
O    -6.5626080    3.7852390   -0.2075490  
C    -4.1332090    3.8839270   -0.4597640  
H    -1.1439310    4.4793860   -0.8844470  
H    -1.4052800    0.3512810   -0.0432190  
H    -7.1978830    1.9460520    0.3999750  
H    -6.4711140    4.7429010   -0.3182720  
H    -4.1534150    4.9377930   -0.7293330  
C    -3.2342520   -0.8964110    1.5480240  
C    -4.1048020   -0.3393960    0.6314230  
C    -4.8970480   -1.4343670    0.1141590  
C    -4.4535690   -2.6169880    0.7581690  
N    -3.4422990   -2.2572220    1.6270120  
C    -4.9926230   -3.8807710    0.4834960  
C    -6.0014960   -3.9509760   -0.4631550  
O    -6.5690000   -5.1550680   -0.7695520  
C    -6.4557330   -2.7772180   -1.1214640  
O    -7.4665230   -3.0084250   -2.0387900  
C    -5.9196570   -1.5338630   -0.8496250  
H    -2.9517610   -2.8843460    2.2448770  
H    -4.6537580   -4.7860330    0.9770190  
H    -7.2534470   -4.9841390   -1.4392700  
H    -7.7581380   -2.1626280   -2.4097160  
H    -6.2967070   -0.6466830   -1.3498140  
H    -2.5091850   -0.4135700    2.1883950  
