62


C     5.0704640   -0.8332950   -0.1572210  
C     5.8446840   -1.9170060    0.1965480  
C     7.2099820   -1.5968040   -0.1021500  
C     7.2180100   -0.2844610   -0.6432340  
N     5.9120260    0.1742390   -0.6322730  
C     8.3900570    0.3524210   -1.0654150  
C     9.5817740   -0.3449790   -0.9328580  
O    10.7542850    0.2291750   -1.3336060  
C     9.5960470   -1.6522150   -0.3793610  
O    10.8586170   -2.2119540   -0.3041170  
C     8.4354580   -2.2790270    0.0363870  
H     5.4772340   -2.8201040    0.6650760  
H     5.5798540    0.9524560   -1.1825140  
H     8.3998910    1.3531300   -1.4855750  
H    11.4623540   -0.4152480   -1.1620420  
H    10.7927690   -3.1082050    0.0568270  
H     8.4729220   -3.2827670    0.4556560  
C     2.6685220   -1.5892180   -0.3305350  
C     3.6310560   -0.6345760   -0.0914390  
C     2.9203590    0.5829190    0.2428480  
C     1.5359860    0.2900000    0.1922280  
N     1.4111580   -1.0490360   -0.1302650  
C     0.5316690    1.2544060    0.4374830  
C     0.9772150    2.5426720    0.7545560  
O     0.0712840    3.5073890    1.0561400  
C     2.3614320    2.8416260    0.8321050  
O     2.6216630    4.1481370    1.1896540  
C     3.3297320    1.8856610    0.5879610  
H     0.5483530   -1.4917570   -0.4081190  
H     0.5593660    4.3394160    1.1865700  
H     3.5772150    4.3070630    1.1839020  
H     4.3847820    2.1331830    0.6781450  
H     2.7860840   -2.6186870   -0.6366710  
C    -1.8594060   -1.6980210    2.5894030  
C    -3.0837030   -1.4774870    2.0241850  
C    -2.9321370   -0.4309120    1.0496280  
C    -1.5077210   -0.0466690    1.0936290  
N    -0.9047760   -0.8829440    2.0214670  
C    -0.9082140    0.9482500    0.3715290  
C    -1.7979990    1.6870730   -0.5454360  
O    -1.3963680    2.4899950   -1.3656090  
C    -3.3404790    1.3999430   -0.5000500  
O    -4.0617330    2.2022860   -1.0820360  
C    -3.8410010    0.2112560    0.2168690  
H    -4.0008340   -1.9666780    2.3081330  
H    -1.5862190   -2.3890380    3.3759830  
H     0.0486150   -0.7766690    2.3351220  
C    -5.2220760   -0.2035090    0.0629580  
C    -5.8172790   -1.4234100    0.3288970  
C    -7.1979760   -1.3378170   -0.0481700  
C    -7.3963640    0.0374420   -0.5717400  
N    -6.1778650    0.6666190   -0.4659030  
C    -8.5780660    0.5108950   -1.0446900  
C    -9.7352080   -0.3782120   -1.0414110  
O   -10.8377580   -0.0400410   -1.4467520  
C    -9.5482900   -1.8396880   -0.4884970  
O   -10.5096700   -2.5958970   -0.4776110  
C    -8.2261100   -2.2343360   -0.0082950  
H    -5.3224420   -2.3132030    0.6841400  
H    -8.7052400    1.5192470   -1.4259760  
H    -8.1077820   -3.2458680    0.3688470  
H    -5.9158040    1.5713160   -0.8374760  
