64


C     1.2439770   -0.2833360    0.7788770  
C     2.3507500    0.1698300    0.0973700  
C     2.7153300   -0.8848280   -0.8234420  
C     1.7980480   -1.9469480   -0.6406480  
N     0.8901800   -1.5590600    0.3445690  
C     1.8554850   -3.1314300   -1.3840470  
C     2.8704110   -3.2471690   -2.3199120  
O     2.9771420   -4.3812180   -3.0723250  
C     3.8048250   -2.1946810   -2.5090780  
O     4.7549620   -2.4570070   -3.4797840  
C     3.7410500   -1.0255960   -1.7767240  
H     1.1652390   -3.9528690   -1.2357320  
H     3.7577880   -4.2735490   -3.6423060  
H     5.3772730   -1.7161940   -3.5236820  
H     4.4477580   -0.2196400   -1.9519430  
H     0.6619270    0.2025160    1.5500280  
C    -3.2649370   -0.3529580    0.3355750  
C    -3.7929850   -1.4592080    0.9686950  
C    -2.7222970   -2.3784950    1.2407520  
C    -1.4986520   -1.7322310    0.7155410  
N    -1.8881900   -0.5304450    0.1800480  
C    -0.2449310   -2.2707790    0.7893000  
C    -0.0998390   -3.5805620    1.4453240  
O     0.9794680   -4.1212330    1.6172000  
C    -1.4051560   -4.3003550    1.9593700  
O    -1.2915060   -5.4168970    2.4447790  
C    -2.6798680   -3.6075830    1.8322240  
H    -4.8127610   -1.5779310    1.3028130  
H    -3.5655780   -4.1047670    2.2152880  
H    -1.2693750    0.1888770   -0.1681330  
C    -7.4534230    0.2950000   -0.9109840  
C    -7.3598230    1.6357780   -1.1681490  
C    -6.0013700    2.0188330   -0.9068400  
C    -5.3149280    0.8556100   -0.4726510  
N    -6.2279150   -0.1756500   -0.4710570  
C    -3.9333170    0.8459190   -0.1503150  
C    -3.2603390    2.0659600   -0.3309540  
O    -1.9206660    2.1559840   -0.0751250  
C    -3.9395900    3.2333620   -0.7529960  
O    -3.1192320    4.3399270   -0.8460470  
C    -5.2932240    3.2286280   -1.0300580  
H    -8.1600710    2.2783150   -1.5079000  
H    -5.9822240   -1.1485570   -0.3691120  
H    -1.6423010    3.0680910   -0.2748020  
H    -3.6216700    5.0962080   -1.1829430  
H    -5.7933330    4.1393960   -1.3523420  
H    -8.2968980   -0.3756820   -0.9924440  
C     3.7486910    1.9067940    3.8812500  
C     4.2498360    3.0841650    3.3881980  
C     4.0391340    3.0699510    1.9678870  
C     3.3905670    1.8465000    1.6578220  
N     3.2159420    1.1647120    2.8449920  
C     3.0357060    1.4514040    0.3488930  
C     3.3717820    2.3532230   -0.6625650  
O     3.0602380    2.0692750   -1.9668840  
C     4.0192440    3.5817130   -0.3717290  
O     4.2667460    4.3567340   -1.4949860  
C     4.3496810    3.9551240    0.9167720  
H     4.7150130    3.8697750    3.9679750  
H     2.8745160    0.2171140    2.9049960  
H     3.3645080    2.8260930   -2.4971970  
H     4.7095180    5.1747230   -1.2258300  
H     4.8463910    4.9046670    1.1074040  
H     3.7179170    1.5321870    4.8948110  
