62


C    -1.4665020   -1.4390140   -1.2771050  
C    -0.6997970   -0.4622980   -0.6759240  
C    -1.6281800    0.4326790   -0.0204870  
C    -2.9327290   -0.0672480   -0.2642700  
N    -2.7982620   -1.1949590   -1.0492810  
C    -4.1164880    0.5606760    0.1906130  
C    -3.9106920    1.7446360    0.8966180  
O    -4.9949470    2.4555080    1.3738450  
C    -2.6196290    2.2717440    1.1413060  
O    -2.6337800    3.4600260    1.8476280  
C    -1.4777540    1.6375630    0.6940730  
H    -3.5602540   -1.8187590   -1.2731720  
H    -4.6403990    3.2201740    1.8639270  
H    -1.7326710    3.6931930    2.1160060  
H    -0.4971560    2.0681360    0.8785490  
H    -1.1503520   -2.3075230   -1.8379430  
C     1.5326910   -0.4874230   -1.8607190  
C     0.7564670   -0.3591850   -0.7477970  
C     1.6828970   -0.1523500    0.3648850  
C     3.0515510   -0.1652780   -0.2087760  
N     2.8917760   -0.3991020   -1.5516810  
C     4.2066210   -0.0193730    0.5184250  
C     4.0550830    0.2350330    1.9654640  
O     4.9928750    0.5381730    2.6828790  
C     2.6196520    0.1693770    2.5944640  
O     2.5014140    0.2895150    3.8030270  
C     1.4750360   -0.0161390    1.7004730  
H     0.4843850   -0.0482880    2.1419140  
H     1.2233580   -0.6378640   -2.8863430  
H     3.6392170   -0.3532990   -2.2284460  
C     6.3663450    1.9051930   -2.9294630  
C     5.3923890    1.5957510   -2.0347110  
C     5.9919110    0.6021220   -1.1499010  
C     7.3790530    0.4443980   -1.6813130  
N     7.5873910    1.2039690   -2.7231840  
C     8.3363860   -0.4351570   -1.0643180  
C     7.9370480   -1.1346220    0.0222820  
O     8.7181630   -1.9950340    0.6925240  
C     6.5285280   -1.0488360    0.5515960  
O     6.2173850   -1.8374490    1.4358650  
C     5.5529240   -0.0844080   -0.0595480  
H     4.4048900    2.0278690   -1.9538360  
H     9.3383270   -0.5180590   -1.4703380  
H     8.1446700   -2.3853450    1.3881900  
H     6.3130450    2.6176860   -3.7447170  
C    -5.8603180   -3.5680050    0.6448070  
C    -5.0466740   -2.4657960    0.7098700  
C    -5.7600730   -1.3697150    0.1041390  
C    -7.0213330   -1.8822510   -0.3012630  
N    -7.0468690   -3.2226070    0.0279550  
C    -8.0140170   -1.0938160   -0.8945890  
C    -7.7275850    0.2509240   -1.0569160  
O    -8.6498790    1.0886910   -1.6047560  
C    -6.4724030    0.7936880   -0.6655170  
O    -6.3440120    2.1412970   -0.9325500  
C    -5.4607950    0.0067980   -0.1113450  
H    -4.0695430   -2.4311690    1.1698450  
H    -7.8324940   -3.8381970   -0.1121990  
H    -8.9791810   -1.4859960   -1.1984250  
H    -8.2354530    1.9728600   -1.5935520  
H    -5.9474990    2.5661500   -0.1416980  
H    -5.6965840   -4.5764980    0.9975650  
