62


C    -2.7384220   -0.2614130    0.1596740  
C    -2.4390770   -1.5906600   -0.0189340  
C    -3.6465420   -2.3233090    0.2334660  
C    -4.6549030   -1.3757800    0.5537990  
N    -4.0775280   -0.1189690    0.4882970  
C    -5.9708220   -1.7415140    0.8538260  
C    -6.2791900   -3.0937600    0.8321530  
O    -7.5464060   -3.5057220    1.1242510  
C    -5.2875130   -4.0565850    0.5059500  
O    -5.7503490   -5.3585300    0.5201560  
C    -3.9879860   -3.6901930    0.2069990  
H    -1.4794950   -1.9820780   -0.3268350  
H    -4.4899600    0.7381550    0.8246640  
H    -6.7426590   -1.0193290    1.0989470  
H    -7.5586770   -4.4756190    1.0511600  
H    -5.0290860   -5.9618930    0.2883930  
H    -3.2470150   -4.4476590   -0.0409830  
C    -0.6082520    0.8848780    0.5786990  
C    -0.0280990    2.1196960    0.3493610  
C    -1.0379570    2.9161300   -0.3266010  
C    -2.1788500    2.0956130   -0.4931480  
N    -1.9009140    0.8545930    0.0898830  
C    -3.3277950    2.5160120   -1.1754830  
C    -3.3343430    3.8093020   -1.6752680  
O    -4.4299610    4.2765430   -2.3365400  
C    -2.2073110    4.6537990   -1.5012550  
O    -2.3649520    5.9131580   -2.0431700  
C    -1.0683700    4.2231190   -0.8490000  
H    -4.1853380    1.8739470   -1.3393020  
H    -4.2422640    5.1977660   -2.5880220  
H    -1.6100680    6.4678980   -1.7950650  
H    -0.2268750    4.8927110   -0.7104350  
H    -0.2373790    0.0356830    1.1340880  
C     3.6224810   -0.2972550    0.2070510  
C     4.5000170    0.6092310    0.7709800  
C     3.7756610    1.8163350    1.0484700  
C     2.3833550    1.5662660    0.6290850  
N     2.3574020    0.2753870    0.1431450  
C     1.3456110    2.4628910    0.7163490  
C     1.7041260    3.7935090    1.2551640  
O     0.8980770    4.7018050    1.3808450  
C     3.1914470    4.0778300    1.7046960  
O     3.4570370    5.1940210    2.1294710  
C     4.1709550    3.0135270    1.5790340  
H     5.5335850    0.4251010    1.0187210  
H     5.1898850    3.2102770    1.8967700  
H     1.5485950   -0.1976160   -0.2307110  
C     7.2719620   -2.6383300   -0.9234190  
C     6.4597460   -1.5913280   -0.6291040  
C     5.1238290   -2.1582580   -0.5288530  
C     5.3328650   -3.6092960   -0.8202060  
N     6.5884680   -3.8863680   -1.0324850  
C     4.2436070   -4.5482590   -0.8516090  
C     2.9953780   -4.0711490   -0.6472380  
O     1.8866940   -4.8304490   -0.6880000  
C     2.7398280   -2.6177040   -0.3799130  
O     1.5579860   -2.2726780   -0.2943670  
C     3.8830600   -1.6581930   -0.2341460  
H     6.7356630   -0.5518920   -0.5403220  
H     4.4352480   -5.5951100   -1.0586700  
H     1.1353860   -4.2185520   -0.5395230  
H     8.3424570   -2.6204140   -1.0894080  
