60


C     0.6448700    4.0490940   -0.3684080  
C     1.5948740    5.0115560   -0.4490770  
C     2.8874230    4.3680990   -0.3799200  
C     2.6663290    2.9794680   -0.2531070  
N     1.2566960    2.7824160   -0.2473530  
C     3.7140680    2.0635240   -0.1582430  
C     5.0111550    2.5698490   -0.1951010  
O     6.0596230    1.7099340   -0.1069210  
C     5.2474190    3.9590540   -0.3229030  
O     6.5774000    4.3050670   -0.3444130  
C     4.1967620    4.8621680   -0.4149330  
H     1.4080650    6.0725370   -0.5471320  
H     3.5463410    1.0012080   -0.0578880  
H     6.8790410    2.2327370   -0.1479030  
H     6.6706810    5.2650860   -0.4369460  
H     4.3901420    5.9279890   -0.5124570  
H    -0.4297620    4.1283270   -0.3812170  
C     0.5615420    1.6214000   -0.1555800  
C    -0.8357580    1.4673930   -0.1671340  
C    -1.0594270    0.0900230   -0.0624680  
C     0.3274760   -0.5063540    0.0011170  
N     1.2596770    0.4139480   -0.0432120  
C     0.5647170   -1.9217100    0.0734400  
C    -0.5592540   -2.6985340    0.0497120  
O    -0.5307120   -4.0193000    0.1237440  
C    -1.9766200   -2.1420720   -0.0333630  
O    -2.8526800   -3.0244880   -0.0860840  
C    -2.2069330   -0.7134650   -0.0292620  
H    -1.5718450    2.2413450   -0.2980900  
H    -1.4790110   -4.2979670    0.0599880  
C     4.1255200   -1.6143320    2.7899090  
C     2.9010270   -1.4042650    2.2533240  
C     2.8632360   -2.2354280    1.0545330  
C     4.2073400   -2.8987710    1.0344460  
N     4.9351230   -2.5374730    2.0508840  
C     4.5799330   -3.8305150    0.0020730  
C     3.6714100   -4.0920840   -0.9644990  
O     3.8841880   -4.9287290   -1.9932650  
C     2.3154050   -3.4377930   -0.9819970  
O     1.5813840   -3.6920860   -1.9324380  
C     1.9227460   -2.5016210    0.1152610  
H     2.1157420   -0.7555400    2.6114090  
H     5.5605710   -4.2927700    0.0156890  
H     3.0640600   -4.8954920   -2.5325460  
H     4.5418950   -1.1747040    3.6884690  
C    -3.5598420   -0.1953920    0.0076940  
C    -4.0133790    1.0820980    0.2809640  
C    -5.4452570    1.0720270    0.2253620  
C    -5.8341660   -0.3218790   -0.1037520  
N    -4.6595600   -1.0259870   -0.2319330  
C    -7.1172570   -0.7463420   -0.2357340  
C    -8.1931640    0.2216820   -0.0474960  
O    -9.3763120   -0.0691460   -0.1461940  
C    -7.8042280    1.7065910    0.2981940  
O    -8.6952710    2.5297470    0.4563430  
C    -6.3874590    2.0410910    0.4164700  
H    -3.4088850    1.9302120    0.5568290  
H    -7.3841010   -1.7710560   -0.4751300  
H    -6.1307240    3.0680980    0.6588610  
H    -4.5597860   -2.0256710   -0.3439560  
