62


C    -4.6608000    1.1057170   -0.9204820  
C    -4.4523860   -0.2155450   -0.5547610  
C    -5.5840070   -0.5828570    0.2771820  
C    -6.4169570    0.5588990    0.3778520  
N    -5.8282070    1.5685860   -0.3614730  
C    -7.6000780    0.5816900    1.1271770  
C    -7.9531320   -0.5810520    1.7919440  
O    -9.0991210   -0.6267580    2.5292480  
C    -7.1299260   -1.7358830    1.7074340  
O    -7.6133820   -2.8168120    2.4205870  
C    -5.9620120   -1.7495420    0.9714280  
H    -6.2372510    2.4729100   -0.5374200  
H    -8.2371550    1.4575260    1.1963270  
H    -9.1775150   -1.5327210    2.8761260  
H    -7.1041510   -3.6076180    2.1875750  
H    -5.3697280   -2.6550010    0.8966170  
H    -4.0858800    1.7323750   -1.5883040  
C    -0.2297120    0.9147780   -0.8695300  
C     0.2751200   -0.2722870   -1.3593930  
C    -0.8096300   -1.2104030   -1.4672370  
C    -2.0164190   -0.4922830   -1.0101460  
N    -1.5973300    0.7806230   -0.6742250  
C    -3.2848390   -1.0105530   -0.9437640  
C    -3.4069290   -2.4310920   -1.3425130  
O    -4.4637540   -3.0415790   -1.3146230  
C    -2.1276730   -3.2135150   -1.8377980  
O    -2.2637550   -4.3879220   -2.1534330  
C    -0.8584410   -2.5114990   -1.8796300  
H     1.2831680   -0.4447600   -1.7052940  
H     0.0158780   -3.0537770   -2.2258930  
H    -2.1933130    1.5059940   -0.3056550  
C     3.9911050    1.6207460    0.2211760  
C     3.9135180    2.9959960    0.3225200  
C     2.5703950    3.3720480    0.0263070  
C     1.8555330    2.1807860   -0.2664130  
N     2.7453170    1.1320760   -0.1778230  
C     0.4690250    2.1583250   -0.5585660  
C    -0.1718750    3.4053690   -0.5180460  
O    -1.5135890    3.5015650   -0.7524630  
C     0.5403770    4.6053090   -0.2531390  
O    -0.2604360    5.7265630   -0.2861620  
C     1.8942320    4.6090460    0.0065390  
H     4.7388780    3.6565260    0.5488880  
H     2.4479090    0.1751310   -0.0382610  
H    -1.7493890    4.4449760   -0.6847490  
H     0.2630650    6.5177990   -0.0901780  
H     2.4190420    5.5387350    0.2123960  
C     5.1094850    0.7374260    0.4236250  
C     6.2499970    0.9243700    1.1590800  
C     7.0626370   -0.2561130    1.0346690  
C     6.3108380   -1.1794540    0.1509770  
N     5.0996720   -0.5546750   -0.1389050  
C     6.7682640   -2.3841570   -0.2632450  
C     8.0778610   -2.8316060    0.2154800  
O     8.5674300   -3.9025960   -0.1056920  
C     8.8712980   -1.8902160    1.1933170  
O     9.9596310   -2.2578000    1.6110440  
C     8.2747140   -0.6047730    1.5505450  
H     6.4685900    1.7859780    1.7735580  
H     6.2097890   -3.0452270   -0.9191150  
H     8.8392060    0.0465720    2.2108020  
H     4.6110200   -0.7450030   -1.0040170  
