60


C     4.4399380   -1.5582420   -1.4330470  
C     5.0148790   -0.5960930   -0.6069570  
C     6.2491410   -1.1845790   -0.1081840  
C     6.3351130   -2.4872240   -0.6572420  
N     5.2220830   -2.6743470   -1.4641460  
C     7.3739590   -3.3788820   -0.3726090  
C     8.3609740   -2.9465650    0.4991550  
O     9.4016710   -3.7661350    0.8101640  
C     8.2916900   -1.6488440    1.0715720  
O     9.3415510   -1.3615160    1.9189360  
C     7.2597240   -0.7755490    0.7843430  
H     5.0559770   -3.4832640   -2.0438450  
H     7.4297620   -4.3747350   -0.7997640  
H     9.9824190   -3.2790130    1.4205560  
H     9.2714640   -0.4452280    2.2258620  
H     7.2498810    0.2184090    1.2175180  
H     3.5510110   -1.4821250   -2.0418310  
C     0.7881540    0.8283770   -0.1978210  
C     1.8936840    0.0161310   -0.2682360  
C     3.0345040    0.8977360   -0.3007970  
C     2.4409770    2.2539340   -0.2317900  
N     1.1364220    2.2138560   -0.1838880  
C     3.2463670    3.4492170   -0.2069420  
C     4.5871450    3.2919260   -0.2194250  
O     5.4664640    4.3058110   -0.1677400  
C     5.2333000    1.9287500   -0.2804150  
O     6.4637250    1.9139520   -0.2720670  
C     4.3944200    0.6959410   -0.3705210  
H     1.9208380   -1.0640470   -0.2569710  
H     2.7769010    4.4254490   -0.1607100  
H     6.3524550    3.8826910   -0.2037500  
C    -1.1256010   -0.8035760   -0.0557850  
C    -0.6085880    0.4614810   -0.1199340  
C    -1.7644140    1.3696100   -0.0785510  
C    -2.9691430    0.5151670   -0.0155050  
N    -2.5154860   -0.7762210   -0.0244860  
C    -4.2759930    0.9610330    0.0576880  
C    -4.4432200    2.4157090    0.2009640  
O    -5.5130400    2.9583710    0.4540040  
C    -3.1866790    3.3403000    0.0312140  
O    -3.3563480    4.5463630    0.0096300  
C    -1.8606080    2.7228610   -0.0779740  
H    -0.9847020    3.3567510   -0.1413520  
H    -0.6109200   -1.7542400   -0.0366680  
H    -3.1055440   -1.5700540    0.1837150  
C    -5.4218820    0.0706640    0.0443060  
C    -5.5345030   -1.2334990   -0.4049070  
C    -6.8959450   -1.6520720   -0.2160450  
C    -7.6003420   -0.4921220    0.3860150  
N    -6.6550110    0.4999940    0.5286530  
C    -8.9188520   -0.4823110    0.7080360  
C    -9.7054850   -1.6860390    0.4530750  
O   -10.8968510   -1.7699590    0.7114750  
C    -8.9784260   -2.9283450   -0.1823630  
O    -9.6235920   -3.9443820   -0.3988150  
C    -7.5538950   -2.8150700   -0.4872070  
H    -4.7829630   -1.8026060   -0.9321210  
H    -9.4185800    0.3761010    1.1458290  
H    -7.0637270   -3.6775510   -0.9292120  
H    -6.8113140    1.4714860    0.7704650  
