64


C    -5.5799930    2.4324020    0.5920930  
C    -6.9417400    2.3960630    0.4672770  
C    -7.2906100    1.0840390    0.0010370  
C    -6.0788560    0.3566730   -0.1349720  
N    -5.0333840    1.2042330    0.2277700  
C    -6.0443720   -0.9839480   -0.5495340  
C    -7.2550180   -1.5930860   -0.8465490  
O    -7.2772840   -2.8959630   -1.2536460  
C    -8.4745880   -0.8767400   -0.7274330  
O    -9.5923840   -1.6182710   -1.0617450  
C    -8.5049700    0.4404910   -0.3067500  
H    -7.6193580    3.2126090    0.6764110  
H    -5.1245720   -1.5541550   -0.6207130  
H    -8.2083120   -3.1337940   -1.4044200  
H   -10.3863870   -1.0760180   -0.9453930  
H    -9.4536190    0.9658840   -0.2134060  
H    -4.9221010    3.2349110    0.8926720  
C    -1.9492510    1.3214700    3.4260900  
C    -3.1382550    1.3741360    2.7474950  
C    -2.8617520    1.0022620    1.3879670  
C    -1.4749970    0.7225160    1.3023000  
N    -0.9461820    0.9064330    2.5669320  
C    -0.8232110    0.3238080    0.1154570  
C    -1.6334510    0.2239740   -1.0173080  
O    -1.0954090   -0.1892040   -2.1950240  
C    -3.0205890    0.5194750   -0.9677650  
O    -3.6602560    0.3999570   -2.1792890  
C    -3.6447830    0.8981120    0.2168670  
H    -4.1001610    1.6380600    3.1629740  
H     0.0414180    0.9198990    2.7713100  
H    -1.8012220   -0.1520850   -2.8642600  
H    -4.6214500    0.4744550   -2.0558800  
H    -1.7293190    1.5313460    4.4633350  
C     1.5467970   -2.6251390    2.3158680  
C     2.7826160   -2.3685280    1.8146950  
C     2.6489100   -1.3073080    0.8342140  
C     1.2160950   -0.9501400    0.8224980  
N     0.6023500   -1.7894410    1.7311240  
C     0.6241700    0.0263160    0.0631410  
C     1.5254430    0.8059100   -0.7851410  
O     1.1776290    1.7805950   -1.4320350  
C     3.0522480    0.4070610   -0.8427620  
O     3.7585960    1.0331720   -1.6152670  
C     3.5705270   -0.6898300    0.0159140  
H     3.7026340   -2.8456610    2.1140860  
H     1.2424950   -3.3399510    3.0687470  
H    -0.3910980   -1.8001110    1.9045420  
C     5.3759350   -2.4388570   -0.0390720  
C     4.9634260   -1.1155560   -0.0866190  
C     6.1760430   -0.3264690   -0.2341920  
C     7.2644180   -1.2334370   -0.2476290  
N     6.7416180   -2.5102650   -0.1325240  
C     8.6012630   -0.8298840   -0.3470110  
C     8.8492860    0.5302290   -0.4365930  
O    10.1297230    0.9873390   -0.5474710  
C     7.7744430    1.4573950   -0.4193990  
O     8.1747550    2.7775110   -0.5180450  
C     6.4583650    1.0512660   -0.3155330  
H     7.2758680   -3.3636400   -0.1857830  
H     9.4288720   -1.5317490   -0.3616270  
H    10.0780400    1.9552330   -0.6346930  
H     7.3985970    3.3348780   -0.6787290  
H     5.6567580    1.7814180   -0.3374910  
H     4.7778630   -3.3374060    0.0034780  
