62


C    -0.5482660    1.1921830   -0.0586610  
C    -1.6520620    0.3390690   -0.0153750  
C    -2.8177670    1.1423910   -0.0923660  
C    -2.3874790    2.4997530   -0.1883830  
N    -1.0193710    2.4998910   -0.1657240  
C    -3.2803440    3.5735640   -0.2946930  
C    -4.6318780    3.2724470   -0.3008110  
O    -5.5524720    4.2700220   -0.3875840  
C    -5.0850110    1.9228990   -0.2117330  
O    -6.4566810    1.8010790   -0.2183310  
C    -4.2115050    0.8454920   -0.1091790  
H    -1.5939570   -0.7333680    0.0708070  
H    -0.4105820    3.3042530   -0.2104810  
H    -2.9566130    4.6066970   -0.3632000  
H    -6.4317820    3.8547020   -0.3366330  
H    -6.6859220    0.8756580   -0.0206130  
C     1.5460820   -2.6472070    0.2896020  
C     2.8449460   -2.2602130    0.2759470  
C     2.8089990   -0.8088050    0.1369620  
C     1.3551250   -0.4827000    0.0931740  
N     0.6316590   -1.5639510    0.1775720  
C     0.8645270    0.8973020   -0.0127610  
C     1.8505630    1.8540380   -0.0672140  
O     1.5867320    3.1842270   -0.1890560  
C     3.2922170    1.5611210   -0.0660690  
O     4.0711730    2.5027550   -0.2482640  
C     3.7718670    0.1482730    0.0853800  
H     3.7248080   -2.8774430    0.3913420  
H     2.4749890    3.6050760   -0.2509580  
H     1.1474710   -3.6498290    0.3882560  
C     6.3661720   -2.4350600   -2.3870750  
C     7.5731690   -2.1031130   -1.8641160  
C     7.3330650   -1.1464120   -0.8034510  
C     5.8626070   -0.9482480   -0.7506420  
N     5.3397650   -1.7514320   -1.7394470  
C     5.2195420   -0.0859390    0.0984380  
C     6.0602020    0.6271160    1.0859040  
O     5.5886380    1.2912620    1.9911140  
C     7.6191760    0.4646840    1.0057950  
O     8.3167420    1.1186280    1.7637240  
C     8.1715590   -0.4745810    0.0294780  
H     8.5365850   -2.4750990   -2.1803770  
H     9.2505740   -0.5897230   -0.0065160  
H     6.1283950   -3.1164810   -3.1930840  
H     4.3528950   -1.8756860   -1.9094420  
C    -4.0510280   -2.2770160    3.1489360  
C    -3.8945960   -1.1306530    2.4149120  
C    -4.5470190   -1.3452500    1.1542570  
C    -5.0912420   -2.6571160    1.1853870  
N    -4.7733730   -3.1999840    2.4132690  
C    -5.8142710   -3.2082790    0.1199740  
C    -5.9892370   -2.4192380   -1.0050720  
O    -6.6721420   -2.9064960   -2.0827410  
C    -5.4621070   -1.1025090   -1.0560410  
O    -5.7124890   -0.4449550   -2.2443950  
C    -4.7439180   -0.5410410    0.0014240  
H    -3.3682330   -0.2404300    2.7268820  
H    -5.0257320   -4.1248760    2.7234980  
H    -6.2256400   -4.2124170    0.1416570  
H    -6.6386580   -2.2211810   -2.7728500  
H    -5.1736590    0.3647770   -2.2686530  
H    -3.7042370   -2.5201990    4.1433830  
