62


C     5.0500000    3.8507480    0.3025300  
C     4.4774180    2.6288260    0.5562860  
C     5.4359060    1.6188880    0.1843090  
C     6.5862570    2.3094630   -0.2819770  
N     6.3145190    3.6613900   -0.2126700  
C     7.7579190    1.6604340   -0.6847270  
C     7.7726520    0.2791880   -0.5847810  
O     8.8835200   -0.4201800   -0.9338680  
C     6.6384560   -0.4459470   -0.1231530  
O     6.8242610   -1.8057120   -0.1205930  
C     5.4435030    0.1900000    0.2302930  
H     3.5064960    2.4761810    1.0057980  
H     6.9656340    4.3949770   -0.4455000  
H     8.6387820    2.1900260   -1.0326970  
H     8.6755910   -1.3557330   -0.7439260  
H     6.4144450   -2.1541520    0.7070410  
H     4.6607200    4.8468500    0.4585610  
C     1.3735080    0.6240730   -1.2416960  
C     0.6888880   -0.2860200   -0.4728610  
C     1.6935120   -0.9112330    0.3983550  
C     2.9900240   -0.2808920    0.0511960  
N     2.7137780    0.6310200   -0.9481370  
C     4.2201530   -0.5610550    0.6003820  
C     4.2240290   -1.6856730    1.5383330  
O     5.2485070   -2.2025820    1.9845420  
C     2.8610540   -2.3209910    1.9918390  
O     2.8851550   -3.1715080    2.8651810  
C     1.6280000   -1.8903860    1.3352230  
H     0.6999550   -2.3434960    1.6574600  
H     0.9743230    1.3035110   -1.9826110  
H     3.3821480    1.3212900   -1.2651660  
C    -2.0982690   -0.5043830   -3.9348190  
C    -0.9596320   -0.4793940   -3.1999850  
C    -1.3960430   -0.5331980   -1.8082350  
C    -2.8730860   -0.6022110   -1.9029680  
N    -3.2784340   -0.5741800   -3.1428800  
C    -3.7195200   -0.6843040   -0.7156140  
C    -3.0750600   -0.7682330    0.4873150  
O    -3.7145110   -0.9365460    1.6639020  
C    -1.6009590   -0.6867500    0.6075020  
O    -1.1237350   -0.7636860    1.7436540  
C    -0.7407760   -0.5263680   -0.6118000  
H     0.0596210   -0.4651540   -3.5586170  
H    -3.0031450   -0.9423380    2.3411440  
H    -2.1997230   -0.4929420   -5.0131540  
C    -5.8205850   -1.4260920   -1.8017570  
C    -7.1580200   -1.2242810   -1.6458460  
C    -7.3322660   -0.2937380   -0.5621480  
C    -6.0422000    0.0308880   -0.0760690  
N    -5.1122500   -0.6852780   -0.8464820  
C    -5.8433850    0.9747130    0.9361330  
C    -6.9680180    1.5710770    1.4911490  
O    -6.8193400    2.4920060    2.4900150  
C    -8.2651220    1.2389620    1.0326450  
O    -9.2834710    1.9122910    1.6805320  
C    -8.4567360    0.3206310    0.0134560  
H    -7.9383120   -1.6808170   -2.2395170  
H    -4.8650860    1.2429170    1.3107150  
H    -7.7109600    2.7850130    2.7446760  
H   -10.1369620    1.6275120    1.3221350  
H    -9.4598390    0.0930540   -0.3421850  
H    -5.2796750   -2.0304750   -2.5109290  
