62


C     3.5717290   -2.0383760   -1.4911270  
C     4.1048910   -3.2329220   -1.0925270  
C     5.0911160   -2.9447830   -0.0896780  
C     5.1060910   -1.5361900    0.0842210  
N     4.1661790   -0.9916250   -0.7884620  
C     5.9420390   -0.8977630    1.0146000  
C     6.7898750   -1.6986140    1.7674710  
O     7.6210330   -1.1283690    2.6851170  
C     6.7962530   -3.1080680    1.5966500  
O     7.6955340   -3.7633740    2.4145120  
C     5.9594750   -3.7331080    0.6898140  
H     3.8329370   -4.2075060   -1.4744390  
H     5.9205800    0.1725740    1.1903060  
H     8.1139810   -1.8478860    3.1161100  
H     7.6228300   -4.7195810    2.2782460  
H     5.9742290   -4.8162140    0.5847010  
H     2.8258580   -1.8160320   -2.2404340  
C     0.3999180    1.3619160   -0.4867580  
C     1.3386720    0.3460330   -0.4631590  
C     2.5924620    0.9098040   -0.8445650  
C     2.3745430    2.2909260   -1.0948960  
N     1.0415320    2.5451340   -0.8459920  
C     3.3952040    3.1660560   -1.4821250  
C     4.6674110    2.6329910   -1.6174350  
O     5.7013800    3.4308060   -1.9929810  
C     4.9181550    1.2508790   -1.3837800  
O     6.2210850    0.8763850   -1.6038690  
C     3.8997310    0.3877970   -0.9962950  
H     1.1566810   -0.6719860   -0.1488430  
H     0.5624770    3.3927510   -1.1100230  
H     3.2322520    4.2232380   -1.6619270  
H     6.5035950    2.8783310   -2.0003070  
H     6.3953160    0.0084010   -1.1999220  
C    -1.8304060    0.2340620   -0.3955140  
C    -1.0182850    1.3115970   -0.2035020  
C    -1.8604050    2.3731780    0.3453270  
C    -3.2326480    1.8237380    0.4415920  
N    -3.1548930    0.4851950   -0.0165380  
C    -4.2907400    2.5270830    0.9066950  
C    -4.0742270    3.9137790    1.3415460  
O    -4.9820210    4.6161890    1.7536770  
C    -2.6253570    4.4988330    1.2784270  
O    -2.4185770    5.6409850    1.6538190  
C    -1.5632020    3.6307850    0.7598010  
H    -5.2844150    2.1068420    0.9714390  
H    -0.5550750    4.0312820    0.7523730  
H    -1.5713360   -0.7269680   -0.8123330  
C    -4.1531550   -0.4552160   -0.1163950  
C    -4.0285220   -1.7726210   -0.5168200  
C    -5.3515470   -2.2990090   -0.4507250  
C    -6.1939660   -1.1422560    0.0220820  
N    -5.4719980   -0.0687390    0.2130850  
C    -7.6069450   -1.2621300    0.2193330  
C    -8.1621530   -2.4729920   -0.0369520  
O    -9.4576550   -2.7495200    0.0967570  
C    -7.3414620   -3.6674320   -0.5149690  
O    -7.9769580   -4.7088060   -0.7096630  
C    -5.9149720   -3.5155150   -0.7069090  
H    -3.1393450   -2.3112790   -0.8070260  
H    -8.1911500   -0.4144550    0.5591300  
H    -9.5372970   -3.6999020   -0.1628350  
H    -5.3558670   -4.3805090   -1.0483690  
