60


C    -1.5158650   -4.1811310   -0.3059560  
C    -1.7618480   -2.8090930   -0.2288730  
C    -3.2037780   -2.6664730   -0.1095700  
C    -3.7532830   -3.9682150   -0.1171880  
N    -2.6929130   -4.8609260   -0.2385230  
C    -5.1244790   -4.2218420   -0.0166510  
C    -5.9640710   -3.1220630    0.0944880  
O    -7.3105000   -3.3033530    0.1939470  
C    -5.4293790   -1.8070780    0.1050670  
O    -6.3822900   -0.8156350    0.2269390  
C    -4.0712240   -1.5663520    0.0044370  
H    -2.7824630   -5.8654560   -0.2806020  
H    -5.5452490   -5.2219040   -0.0264810  
H    -7.7182520   -2.4207190    0.2330840  
H    -5.9529800    0.0494760    0.1438950  
H    -3.6670570   -0.5595880    0.0117040  
H    -0.5768740   -4.7064940   -0.4059880  
C    -0.7735350   -1.7783110   -0.2571970  
C     0.6057760   -1.8744340   -0.3550880  
C     1.1056630   -0.5454220   -0.3253200  
C    -0.1258420    0.3038130   -0.1972770  
N    -1.2090620   -0.4188300   -0.1651660  
C    -0.0758970    1.7515850   -0.1195310  
C     1.1769450    2.2878350   -0.1210720  
O     1.4178930    3.5909070    0.0136090  
C     2.4452390    1.4615090   -0.2356640  
O     3.4923570    2.1176870   -0.2198170  
C     2.3794160    0.0014140   -0.3685120  
H     1.1894390   -2.7807400   -0.4142130  
H     2.3985380    3.6768490   -0.0531870  
C     3.6641770   -1.9362860   -1.3365430  
C     3.5798790   -0.7821800   -0.5968760  
C     4.9613600   -0.6054950   -0.0737220  
C     5.7057440   -1.7745640   -0.6194160  
N     4.9382420   -2.5311420   -1.3631070  
C     7.0959040   -1.9999170   -0.3350160  
C     7.7281600   -1.1203720    0.4794270  
O     9.0198270   -1.2101650    0.8371600  
C     7.0050530    0.0548450    1.0656400  
O     7.6378280    0.8080450    1.8054860  
C     5.5781150    0.2728060    0.7401570  
H     7.6006980   -2.8596220   -0.7616140  
H     9.1788630   -0.4390210    1.4250960  
H     5.1095040    1.1544690    1.1579330  
H     2.8698990   -2.3891850   -1.9159960  
C    -3.6538560    1.9237560    2.5491510  
C    -2.4678380    1.6062800    1.9740510  
C    -2.2978270    2.4658800    0.8192530  
C    -3.5018010    3.3321950    0.7772620  
N    -4.3114220    2.9196630    1.8222210  
C    -3.7149110    4.3318820   -0.1163870  
C    -2.7006410    4.5670330   -1.1322230  
O    -2.7768660    5.4578010   -1.9646480  
C    -1.4496180    3.6146280   -1.1653600  
O    -0.6645660    3.7287200   -2.0886310  
C    -1.2880330    2.5908400   -0.0961990  
H    -1.7884390    0.8321740    2.2929280  
H    -4.5934900    4.9697390   -0.1037840  
H    -4.1243420    1.5034350    3.4283180  
H    -5.0874060    3.4607350    2.1728340  
