62


C     5.6247120   -1.6574060   -2.5308030  
C     6.9873080   -1.7268430   -2.5285390  
C     7.4386870   -1.2376120   -1.2536580  
C     6.2863240   -0.8779170   -0.5117920  
N     5.1714190   -1.1291390   -1.3187660  
C     6.3578120   -0.4197510    0.8094520  
C     7.6175240   -0.2818400    1.3746090  
O     7.7372010    0.1682130    2.6565750  
C     8.7829400   -0.6110240    0.6351950  
O     9.9592230   -0.4189060    1.3316930  
C     8.7060820   -1.0899870   -0.6605070  
H     7.6048800   -2.0728220   -3.3461340  
H     5.4824050   -0.1833560    1.4028690  
H     8.6860370    0.1857520    2.8701150  
H    10.7108640   -0.6797610    0.7792190  
H     9.6104650   -1.3559700   -1.2041110  
H     4.9072000   -1.8982340   -3.3016220  
C     2.7971810   -1.8217300   -1.2254080  
C     3.8252290   -0.9671850   -0.9874950  
C     3.1928310    0.2553040   -0.4501110  
C     1.7449010   -0.0820880   -0.4069960  
N     1.5326780   -1.2814870   -0.8713450  
C     0.7328130    0.8626780    0.0785760  
C     1.2182190    2.0947840    0.4389450  
O     0.4521830    3.0871020    0.9456390  
C     2.6516670    2.4685040    0.3453330  
O     2.9808980    3.6035640    0.7038310  
C     3.6418650    1.4798310   -0.1307570  
H     1.0827110    3.8234630    1.1172650  
H     4.6814650    1.7885070   -0.1706680  
H     2.8474510   -2.8199490   -1.6412830  
C    -1.1166920   -0.8285850    0.3369880  
C    -0.6635770    0.4507360    0.1498740  
C    -1.9020370    1.2454100    0.0036640  
C    -3.0075750    0.2390730    0.1255100  
N    -2.5193770   -0.9551640    0.3523190  
C    -4.4151360    0.5780780    0.0093080  
C    -4.6784080    1.9178500   -0.1149760  
O    -5.9085890    2.4406840   -0.1360100  
C    -3.5980980    2.9468890   -0.2527330  
O    -3.9419850    4.1218630   -0.3874020  
C    -2.1806230    2.5446190   -0.2040010  
H    -5.7743710    3.4079030   -0.2555090  
H    -1.4379810    3.3271070   -0.2818090  
H    -0.5127010   -1.7151020    0.4633440  
C    -5.3202330   -2.8727940    2.7043660  
C    -6.5298180   -3.2101550    2.1594600  
C    -6.7441060   -2.3314460    1.0435550  
C    -5.6233220   -1.4624210    0.9793470  
N    -4.7850890   -1.7905710    2.0265590  
C    -5.4946690   -0.4366050    0.0124620  
C    -6.5050800   -0.3906470   -0.9595020  
O    -6.4185180    0.4859560   -1.9991880  
C    -7.6242780   -1.2593010   -0.9056780  
O    -8.5328410   -1.0548770   -1.9314890  
C    -7.7695400   -2.2056010    0.0881030  
H    -7.1956980   -3.9877360    2.5084310  
H    -3.7927570   -1.5929680    1.9665060  
H    -7.2279290    0.3771430   -2.5282990  
H    -9.2547680   -1.6951760   -1.8520780  
H    -8.6452380   -2.8515140    0.1141260  
H    -4.7874500   -3.3084580    3.5383150  
