62


C    -5.8451490    0.8739290   -2.1680420  
C    -7.2002840    0.7276830   -2.0653360  
C    -7.4682550    0.1192060   -0.7925650  
C    -6.2156790   -0.0791470   -0.1555940  
N    -5.2241260    0.3871270   -1.0178540  
C    -6.1014890   -0.6286370    1.1315740  
C    -7.2737050   -1.0032680    1.7740570  
O    -7.2163630   -1.5413540    3.0254990  
C    -8.5332930   -0.8252960    1.1444160  
O    -9.6020830   -1.2484710    1.9092020  
C    -8.6413860   -0.2672910   -0.1168460  
H    -7.9264990    1.0135120   -2.8139130  
H    -5.1526120   -0.7367520    1.6459690  
H    -8.1301920   -1.7277730    3.3024380  
H   -10.4291280   -1.0869710    1.4315500  
H    -9.6189970   -0.1281090   -0.5741920  
H    -5.2383510    1.2618760   -2.9731650  
C    -2.1091990    3.5394340   -1.1227940  
C    -3.3076130    2.8774810   -1.1367270  
C    -3.0243550    1.4924620   -0.8841540  
C    -1.6228800    1.3739920   -0.7106260  
N    -1.0909940    2.6421350   -0.8457070  
C    -0.9691430    0.1467740   -0.4521280  
C    -1.7946090   -0.9806270   -0.3756430  
O    -1.2527460   -2.1875300   -0.0775820  
C    -3.1973410   -0.8917820   -0.5646890  
O    -3.8411750   -2.1031790   -0.4962970  
C    -3.8219640    0.3276610   -0.8122600  
H    -4.2798370    3.3189230   -1.3008250  
H    -0.1053880    2.8465860   -0.9070930  
H    -1.9718750   -2.8441340   -0.1064440  
H    -4.8017710   -1.9733300   -0.4140530  
H    -1.8887720    4.5866260   -1.2735190  
C     1.7044160    2.1224170    2.3788850  
C     2.9051880    1.6099850    1.9753600  
C     2.6534660    0.7291890    0.8669200  
C     1.1940350    0.7616090    0.6537710  
N     0.6822930    1.6603740    1.5789970  
C     0.4865880    0.0349970   -0.2646100  
C     1.2953840   -0.8523100   -1.1247430  
O     0.8459580   -1.4397330   -2.0895830  
C     2.8257890   -1.0178030   -0.8176920  
O     3.3974940   -1.9445980   -1.3809970  
C     3.4905420   -0.0774990    0.1041460  
H     3.8550880    1.7956150    2.4489650  
H     1.4916530    2.7970280    3.1977230  
H    -0.3047760    1.7937830    1.7421130  
C     4.9367720   -0.0587870    0.2069430  
C     5.7792350    0.9180710    0.7065000  
C     7.1311060    0.4756160    0.5276420  
C     7.0448340   -0.8539680   -0.1279570  
N     5.7039910   -1.1190870   -0.2805390  
C     8.1219360   -1.6035230   -0.4779590  
C     9.4547480   -1.0810410   -0.1952540  
O    10.4809160   -1.6842240   -0.4738720  
C     9.5696880    0.3254820    0.5012700  
O    10.6805610    0.7756120    0.7459990  
C     8.3375030    1.0386180    0.8282210  
H     5.4848280    1.8806500    1.0931940  
H     8.0408810   -2.5734050   -0.9586880  
H     8.4284470    2.0093460    1.3066220  
H     5.2793500   -1.8812770   -0.7944410  
