60


C    -2.4075440   -2.2990300    2.4648560  
C    -2.9949740   -1.1778130    1.9281910  
C    -3.7052780   -1.5885660    0.7440970  
C    -3.5178030   -2.9918150    0.6300460  
N    -2.7123830   -3.3895150    1.6791440  
C    -4.1133420   -3.7649850   -0.3719410  
C    -4.9418660   -3.1017280   -1.2616680  
O    -5.5769550   -3.7876190   -2.2468780  
C    -5.1501790   -1.6958910   -1.1793800  
O    -5.9755750   -1.2078120   -2.1606790  
C    -4.5158390   -0.9057600   -0.2151790  
H    -2.9650050   -0.1871680    2.3587230  
H    -2.4261580   -4.3384480    1.8634260  
H    -3.9764970   -4.8384030   -0.4522540  
H    -6.1268200   -3.1284210   -2.7136410  
H    -6.5606590   -0.5328740   -1.7388160  
H    -1.7986810   -2.4113940    3.3507490  
C    -1.3830540    2.1612600   -0.0357740  
C    -2.1673150    3.2894530   -0.0243930  
C    -3.5429720    2.8761390   -0.0622690  
C    -3.5300800    1.3939000   -0.1015270  
N    -2.2045530    1.0280300   -0.0515730  
C    -4.6293910    0.5734640   -0.2001800  
C    -5.9055940    1.2809530   -0.3365400  
O    -6.9655450    0.7258990   -0.6284940  
C    -5.9660800    2.8403440   -0.1307900  
O    -7.0646360    3.3711380   -0.0808610  
C    -4.7127790    3.5757140   -0.0488920  
H    -1.8104430    4.3060260    0.0556920  
H    -4.7566730    4.6574190    0.0250310  
H    -1.8933480    0.0798280   -0.2030000  
C     0.9713910    2.9458030   -0.4808180  
C     0.0538710    2.0467350   -0.0108180  
C     0.8694630    0.9436080    0.5379680  
C     2.2687550    1.3778110    0.2867340  
N     2.3112360    2.5453790   -0.2979160  
C     3.4048610    0.5643650    0.6855650  
C     3.1340330   -0.5893100    1.3711630  
O     4.0842360   -1.4070890    1.8520580  
C     1.7400070   -1.0276760    1.6491810  
O     1.5803240   -2.0704420    2.2859570  
C     0.5988840   -0.1964730    1.1994850  
H     3.5987650   -2.1428520    2.2882510  
H    -0.3948950   -0.5558450    1.4568000  
H     0.7711500    3.8853110   -0.9810830  
C     5.1869970    2.2922670    0.5172300  
C     6.4767920    2.3962760    0.1202990  
C     6.8955420    1.0991530   -0.3605510  
C     5.7242790    0.2026500   -0.2068810  
N     4.7052540    0.9801380    0.3599030  
C     5.7026190   -1.0887900   -0.6161910  
C     6.9193830   -1.6545890   -1.2042440  
O     6.9828000   -2.8094250   -1.5942200  
C     8.1832260   -0.7335230   -1.3342210  
O     9.2092430   -1.1957200   -1.8069470  
C     8.0660410    0.6570690   -0.8897850  
H     7.0821650    3.2906730    0.1519320  
H     4.8419930   -1.7376050   -0.5225950  
H     8.9302790    1.3020450   -1.0159720  
H     4.5245120    3.0459630    0.9137460  
