60


C     4.0172030   -2.1015120   -1.4301960  
C     4.3866200   -1.0105870   -0.6581550  
C     5.7864760   -1.1977160   -0.3256160  
C     6.1931000   -2.4104180   -0.9328680  
N     5.0909000   -2.9310790   -1.5928490  
C     7.4879840   -2.9263080   -0.8159840  
C     8.3971090   -2.2027710   -0.0600350  
O     9.6711490   -2.6577540    0.0862020  
C     8.0049530   -0.9941140    0.5762640  
O     9.0123790   -0.4024000    1.3071280  
C     6.7220010   -0.4899540    0.4564510  
H     5.0880640   -3.7791680   -2.1394180  
H     7.7962290   -3.8573380   -1.2800460  
H    10.1419930   -2.0311900    0.6628000  
H     8.6712550    0.3758220    1.7725030  
H     6.4433800    0.4176810    0.9862620  
H     3.0682590   -2.3172640   -1.8997570  
C     3.5171330    0.0815520   -0.3062600  
C     2.1452850    0.1295750   -0.1964320  
C     1.7554660    1.4712280    0.1143220  
C     3.0122390    2.2487420    0.1780460  
N     4.0474310    1.3458520   -0.0089670  
C     3.0961540    3.5894930    0.3684890  
C     1.8571550    4.3296480    0.5374960  
O     1.8136040    5.5396690    0.6993310  
C     0.5007650    3.5306720    0.5139320  
O    -0.5273750    4.1734290    0.6714600  
C     0.5185440    2.0665460    0.3123850  
H     1.4864850   -0.7181390   -0.3014340  
H     4.0351820    4.1334730    0.3993090  
H     4.9572560    1.6318140   -0.3423470  
C    -0.8814250    0.0364200    0.8690020  
C    -0.7159470    1.2965420    0.3594420  
C    -2.0617460    1.6327570   -0.1748880  
C    -2.8827940    0.4221420    0.1114340  
N    -2.1824620   -0.4910080    0.7319510  
C    -4.2773100    0.3119320   -0.2774630  
C    -4.8025500    1.3800850   -0.9446710  
O    -6.0787620    1.4505040   -1.3455970  
C    -3.9970230    2.6028030   -1.2604500  
O    -4.5580240    3.5143810   -1.8678000  
C    -2.5845910    2.6825040   -0.8339220  
H    -6.1574960    2.3130210   -1.8108210  
H    -2.0512650    3.5997710   -1.0489480  
H    -0.1364810   -0.5590150    1.3823940  
C    -5.4052450   -1.9119440    3.4147570  
C    -4.8906230   -1.0194220    2.5326060  
C    -5.2774320   -1.4493760    1.2053590  
C    -6.0775960   -2.6861650    1.3927120  
N    -6.1090730   -2.9160050    2.7526810  
C    -6.6578130   -3.3989830    0.3926340  
C    -6.4824010   -2.9297970   -0.9721460  
O    -6.9742080   -3.4857060   -1.9430930  
C    -5.6081320   -1.6431860   -1.2091960  
O    -5.3854280   -1.3012220   -2.3568750  
C    -5.0585430   -0.9170540   -0.0351440  
H    -4.2850970   -0.1593620    2.7704970  
H    -7.2536540   -4.2907720    0.5613120  
H    -5.3301180   -1.9320400    4.4939410  
H    -6.6103500   -3.6688300    3.1965630  
