60


C     4.3678180    0.1447310   -0.2412190  
C     5.6200980   -0.1431600   -0.7602730  
C     5.8856850   -1.5186110   -0.5103970  
C     4.7557620   -2.0448220    0.1771490  
N     3.8316800   -1.0281260    0.2959500  
C     4.6852340   -3.3749270    0.6064370  
C     5.7681580   -4.1922020    0.3243930  
O     5.7541990   -5.4923780    0.7166610  
C     6.9025170   -3.6878190   -0.3797890  
O     7.8837640   -4.6334580   -0.5819380  
C     6.9716100   -2.3762510   -0.7979830  
H     6.2465020    0.5539670   -1.2997070  
H     3.0510390   -1.0428180    0.9358770  
H     3.8286140   -3.7827110    1.1326550  
H     6.5861280   -5.8993670    0.4169750  
H     8.6170430   -4.2469560   -1.0835580  
H     7.8461820   -2.0097420   -1.3306650  
C     3.6265920    1.3721900   -0.2422430  
C     4.0498680    2.6658660   -0.4117910  
C     2.9039400    3.5300370   -0.3580230  
C     1.7392830    2.6479110   -0.1324440  
N     2.2337500    1.3490710    0.0082450  
C     0.4396650    3.0542060   -0.0941670  
C     0.1970670    4.5140750   -0.2197220  
O    -0.9114000    4.9998830   -0.0892810  
C     1.4239230    5.4666060   -0.4522990  
O     1.2119540    6.6630730   -0.5898660  
C     2.7565810    4.8804820   -0.4890890  
H     5.0771350    2.9816830   -0.5258250  
H     3.5974270    5.5461970   -0.6572770  
H     1.6706980    0.5727060   -0.3212910  
C    -0.5617240    0.2909410    3.1793750  
C    -1.7553850   -0.1790140    2.7310990  
C    -2.0273720    0.4603240    1.4591770  
C    -0.8708510    1.3433980    1.1956940  
N    -0.0159130    1.1878980    2.2708770  
C    -0.7069040    2.1511680    0.1031950  
C    -1.7600260    2.0721340   -0.9214230  
O    -1.6745360    2.6174660   -2.0071090  
C    -3.0308250    1.1883530   -0.6405730  
O    -3.9339050    1.2157380   -1.4584030  
C    -3.0937960    0.3710090    0.5952560  
H    -2.3746170   -0.9138220    3.2223350  
H    -0.0262960    0.0504200    4.0883830  
H     0.8200520    1.7349500    2.4072230  
C    -4.9554260   -0.4131910    2.0917980  
C    -4.2991650   -0.4041100    0.8911680  
C    -5.0396430   -1.3226810    0.0173450  
C    -6.1613760   -1.8558320    0.8291240  
N    -6.0453290   -1.2656730    2.0747100  
C    -7.0858300   -2.7469680    0.3908510  
C    -6.9710230   -3.2472670   -0.9749450  
O    -7.7494040   -4.0543210   -1.4595180  
C    -5.7734610   -2.7232390   -1.8466390  
O    -5.6349080   -3.1524760   -2.9802730  
C    -4.8544100   -1.7375910   -1.2605550  
H    -7.8998430   -3.1144960    1.0082370  
H    -4.0613390   -1.3585530   -1.8939650  
H    -4.7333790    0.1618010    2.9809600  
H    -6.7202970   -1.3581400    2.8180670  
