60


C    -4.8048080   -0.2168610    0.0369060  
C    -5.4432370   -1.4140710    0.3643790  
C    -6.8213560   -1.2590000    0.0730620  
C    -6.9973540    0.0616190   -0.4395300  
N    -5.7688520    0.6649210   -0.4509050  
C    -8.2476580    0.5558510   -0.8328940  
C    -9.3356790   -0.2925410   -0.7076040  
O   -10.5753820    0.1333360   -1.0737290  
C    -9.1794860   -1.6166730   -0.1971010  
O   -10.3639490   -2.3257530   -0.1398560  
C    -7.9506470   -2.1033280    0.1895290  
H    -4.9422900   -2.2786480    0.7691660  
H    -5.5542470    1.6034070   -0.7550870  
H    -8.3899600    1.5584640   -1.2221260  
H   -11.1943400   -0.5985690   -0.9053610  
H   -10.1968570   -3.2053680    0.2297690  
H    -7.8516420   -3.1153660    0.5765670  
C    -1.3415650   -2.4779080    1.5205380  
C    -0.3348990   -1.5916560    1.3437620  
C    -0.9624580   -0.4127990    0.7586460  
C    -2.4073720   -0.7765410    0.6590860  
N    -2.6133590   -1.9822450    1.1051280  
C    -3.4147690    0.1569290    0.1375240  
C    -2.9206780    1.3843050   -0.2390000  
O    -3.7019580    2.3685600   -0.7647230  
C    -1.5030030    1.7626870   -0.1710460  
O    -1.1724840    2.8629720   -0.6303100  
C    -0.4988700    0.8062640    0.3906490  
H     0.7105940   -1.7091010    1.5894380  
H    -3.0730330    3.1005940   -0.9600100  
H    -1.2897150   -3.4773730    1.9351060  
C     3.3077950   -0.7298740   -1.3303250  
C     2.0123340   -0.5633230   -0.9666850  
C     1.9448750    0.6141020   -0.1286680  
C     3.3309740    1.1304820   -0.0332850  
N     4.1275050    0.2681000   -0.7873560  
C     3.6982200    2.2425130    0.6510070  
C     2.6633960    3.0021820    1.3426330  
O     2.8911060    4.0320920    1.9569710  
C     1.1922150    2.4617460    1.2953690  
O     0.3427430    3.0137820    1.9699920  
C     0.8989770    1.2556530    0.4789710  
H     1.1833520   -1.1931580   -1.2513280  
H     4.7196290    2.6040540    0.6968570  
H     3.7548490   -1.4887340   -1.9586430  
C     6.1918450    1.3883760   -1.5754800  
C     5.5182710    0.3633560   -0.9775940  
C     6.5021170   -0.6210060   -0.5520710  
C     7.8162960   -0.0735460   -0.9633570  
N     7.5538110    1.1467440   -1.5665710  
C     9.0018530   -0.6969230   -0.7555390  
C     8.9939940   -1.9949870   -0.0794480  
O    10.0104190   -2.6309610    0.1453580  
C     7.6088530   -2.5880430    0.3721910  
O     7.5821710   -3.6672860    0.9393020  
C     6.3944810   -1.8134810    0.0878290  
H     9.9576490   -0.2842800   -1.0633210  
H     5.4436740   -2.2275120    0.4088600  
H     5.7952210    2.2949880   -2.0124430  
H     8.2560880    1.7789940   -1.9182990  
