60


C    -4.0366690    2.7540930   -2.2001510  
C    -3.9449310    1.4344910   -1.8405130  
C    -4.7264670    1.2582620   -0.6483240  
C    -5.2841290    2.5279180   -0.3394950  
N    -4.8351040    3.4201510   -1.2905330  
C    -6.1448960    2.7490090    0.7407330  
C    -6.4760960    1.6502510    1.5162250  
O    -7.3199350    1.7886630    2.5739880  
C    -5.9518810    0.3628110    1.2277060  
O    -6.3520440   -0.6123190    2.1183600  
C    -5.0524050    0.1410850    0.1750530  
H    -3.3809090    0.6792370   -2.3662820  
H    -5.1044370    4.3896670   -1.3485900  
H    -6.5639440    3.7228900    0.9725040  
H    -7.4122070    0.8953630    2.9564130  
H    -6.6696850   -1.3848070    1.6062320  
H    -3.5969350    3.2808640   -3.0352860  
C    -0.8611970   -1.1528080   -0.3442040  
C    -1.0005230   -2.5055110   -0.4885120  
C    -2.4210310   -2.7539440   -0.3960470  
C    -3.0331600   -1.3985340   -0.2037390  
N    -2.1173140   -0.4800420   -0.1656390  
C    -4.4766010   -1.2001570   -0.0509270  
C    -5.2048410   -2.3537730   -0.0593040  
O    -6.5547550   -2.3797230    0.1003090  
C    -4.6301080   -3.7168880   -0.2536480  
O    -5.4150960   -4.6697320   -0.2661070  
C    -3.1805000   -3.8715200   -0.4276800  
H    -0.2266130   -3.2469570   -0.6302390  
H    -6.7970380   -3.3335740    0.0266860  
H    -2.7938540   -4.8771490   -0.5594940  
C     0.3096820   -0.3202550   -0.3542290  
C     1.6503260   -0.6290860   -0.4683740  
C     2.3820980    0.5988970   -0.3968440  
C     1.3777940    1.6791030   -0.2322520  
N     0.1528400    1.0545030   -0.2253420  
C     1.6695100    2.9996580   -0.0960530  
C     3.0647770    3.4037120   -0.1193990  
O     3.4418810    4.5541240    0.0392430  
C     4.1610770    2.2998250   -0.3624650  
O     5.3213670    2.6412700   -0.5052500  
C     3.7284580    0.8855700   -0.4458030  
H     2.0638030   -1.6223960   -0.5591490  
H     0.9117030    3.7640710    0.0396570  
H    -0.7576620    1.4825440   -0.1204910  
C     4.5976650   -1.0169000   -1.7852980  
C     5.6579080   -1.8596520   -1.8155120  
C     6.5154190   -1.5180550   -0.7017360  
C     5.8621780   -0.3808930   -0.0097020  
N     4.6837330   -0.1080130   -0.7204960  
C     6.3393460    0.1892250    1.1218870  
C     7.5923510   -0.3207720    1.6843800  
O     8.0853020    0.1280800    2.7065560  
C     8.3176760   -1.5002230    0.9439710  
O     9.3679950   -1.9293580    1.3943670  
C     7.6843990   -2.0486710   -0.2573960  
H     5.8404890   -2.6317460   -2.5491800  
H     5.8589770    1.0178790    1.6275670  
H     8.1731280   -2.8835360   -0.7504410  
H     3.7570020   -0.9441800   -2.4616710  
