60


C     7.9932470   -1.3192540   -0.4297990  
C     6.9111650   -0.4707060   -0.3685380  
C     5.7460570   -1.2716440   -0.1390710  
C     6.1931750   -2.6133620   -0.0785570  
N     7.5614340   -2.6109300   -0.2494550  
C     5.3380480   -3.7095280    0.1018860  
C     3.9853190   -3.4525860    0.2143470  
O     3.1053340   -4.4759590    0.3808500  
C     3.4802960   -2.1235130    0.1618460  
O     2.1395830   -2.0668980    0.2919290  
C     4.3403170   -0.9969820    0.0057720  
H     6.9689000    0.5965070   -0.5081810  
H     8.1464630   -3.4319470   -0.2600530  
H     5.6970840   -4.7330490    0.1448280  
H     2.2183510   -4.0731220    0.4281090  
H     1.8621500   -1.1027300    0.2077260  
H     9.0391100   -1.1006830   -0.5910090  
C     3.8017560    0.3334530    0.0174900  
C     4.4108470    1.5755910    0.0177010  
C     3.3721000    2.5460710    0.0341070  
C     2.0992520    1.7462460    0.0479310  
N     2.3633580    0.4725570    0.0434530  
C     0.7928510    2.3653130    0.0531950  
C     0.7943630    3.7315270    0.0580390  
O    -0.3066470    4.4698720    0.1033560  
C     2.0667980    4.5727640    0.0533140  
O     1.8877250    5.7965990    0.0658070  
C     3.3473450    3.9128870    0.0390140  
H     5.4647560    1.7957700    0.0386360  
H     0.0231370    5.4041150    0.0924410  
H     4.2397330    4.5297360    0.0303680  
C    -1.0527590   -0.8569830    2.5722300  
C    -0.1951190    0.0902810    2.1279890  
C    -0.8186590    0.6343050    0.9253380  
C    -2.1052570   -0.1231550    0.8142250  
N    -2.2289770   -0.9974160    1.7682920  
C    -3.0571820    0.1199480   -0.2546020  
C    -2.6953560    1.0421550   -1.1842000  
O    -3.4543150    1.3739210   -2.2395490  
C    -1.3970930    1.7984170   -1.1160600  
O    -1.1549170    2.5712140   -2.0390310  
C    -0.4573960    1.5798940    0.0240920  
H     0.7564540    0.3817360    2.5470490  
H    -2.9299140    2.0427890   -2.7333590  
H    -0.9468230   -1.4958780    3.4409330  
C    -6.5001010    0.1326600    2.4684220  
C    -7.3246270   -0.7792860    1.9052370  
C    -6.6247230   -1.2311420    0.7062180  
C    -5.3360850   -0.4644350    0.7267380  
N    -5.2776180    0.3383860    1.7462770  
C    -4.3349690   -0.6199520   -0.3157600  
C    -4.6476750   -1.4610700   -1.3378940  
O    -3.8355820   -1.7087290   -2.3762700  
C    -5.9401640   -2.2311660   -1.3859850  
O    -6.1197460   -2.9770820   -2.3476930  
C    -6.9242870   -2.0734760   -0.3005420  
H    -8.2977160   -1.1062590    2.2443280  
H    -4.3233010   -2.3527700   -2.9365260  
H    -7.8461540   -2.6417620   -0.3789670  
H    -6.6600040    0.7062210    3.3737640  
