60


C     4.4101820   -2.6485630   -2.4765960  
C     5.6269730   -2.7174840   -1.8505020  
C     5.5893480   -1.7919550   -0.7533880  
C     4.3058310   -1.1863960   -0.7640100  
N     3.6127310   -1.7225090   -1.8287120  
C     3.9148020   -0.1855910    0.1553970  
C     4.8633560    0.1697520    1.1191130  
O     4.5398120    1.0767640    2.0807750  
C     6.1456150   -0.4352100    1.1461540  
O     6.9520010    0.0261530    2.1705180  
C     6.5191880   -1.3983260    0.2286860  
H     6.4573510   -3.3468540   -2.1397540  
H     2.6540380   -1.5087580   -2.0568030  
H     5.3405700    1.2338690    2.6108540  
H     7.8354870   -0.3614860    2.0865130  
H     7.5114670   -1.8433190    0.2701570  
H     4.0371840   -3.1816340   -3.3397720  
C    -0.3400800   -1.6157680    0.0906270  
C     1.0324710   -1.5815830    0.1702680  
C     1.3971130   -0.1928500    0.0916290  
C     0.0872210    0.5224540   -0.0252700  
N    -0.9127870   -0.3097180   -0.0430350  
C    -0.0050890    1.9662160   -0.1172120  
C     1.1779600    2.6342910   -0.1310380  
O     1.2793910    3.9641130   -0.2184900  
C     2.5229460    1.9392370   -0.0571600  
O     3.5074730    2.6653240   -0.1723290  
C     2.5946390    0.4676210    0.0982150  
H     1.7139730   -2.4102850    0.3001100  
H     2.2487050    4.1409360   -0.2410840  
C    -3.3204430    2.2062320    2.7581270  
C    -4.2416080    2.9301810    2.0837820  
C    -3.6147240    3.2402950    0.8021360  
C    -2.2718950    2.5781140    0.8841280  
N    -2.1024720    1.9891920    2.0297710  
C    -1.3133550    2.6486430   -0.2073700  
C    -1.6817190    3.3847790   -1.2903160  
O    -0.9122360    3.5515560   -2.3770160  
C    -3.0186560    4.0697510   -1.3887910  
O    -3.2556970    4.7018900   -2.4172950  
C    -3.9794740    3.9575900   -0.2773560  
H    -5.2292600    3.2292580    2.4056960  
H    -1.4425890    4.1179270   -2.9811420  
H    -4.9312890    4.4679150   -0.3886320  
H    -3.4003220    1.7876220    3.7542960  
C    -0.8514460   -4.0667560    0.2613750  
C    -1.2271110   -2.7507800    0.1349820  
C    -2.6942220   -2.7526490    0.0633660  
C    -3.1127520   -4.1715900    0.1562770  
N    -1.9433640   -4.9058890    0.2725240  
C    -4.3948140   -4.6127820    0.1298580  
C    -5.4601780   -3.6223680    0.0006380  
O    -6.6448700   -3.9173750   -0.0330870  
C    -5.0443120   -2.1096500   -0.0976040  
O    -5.9185860   -1.2651100   -0.2053610  
C    -3.6158760   -1.7642920   -0.0564280  
H    -4.6691870   -5.6608880    0.2011170  
H    -3.3259170   -0.7228270   -0.1186800  
H     0.1451060   -4.4792820    0.3475910  
H    -1.9017390   -5.9096140    0.3636780  
