60


C     4.0490580   -1.1522550    2.6782590  
C     2.7998140   -1.1399240    2.1107930  
C     2.8074970   -2.0919370    1.0364120  
C     4.1070460   -2.6663250    1.0134810  
N     4.8409100   -2.0694660    2.0176540  
C     4.4890720   -3.6690210    0.1171140  
C     3.5223550   -4.1244750   -0.7649380  
O     3.8189300   -5.1076790   -1.6565280  
C     2.2089820   -3.5846350   -0.7607790  
O     1.3857990   -4.1222320   -1.7295180  
C     1.8303070   -2.5502460    0.1048920  
H     1.9749450   -0.5175400    2.4223250  
H     5.8022060   -2.2782520    2.2366980  
H     5.4845080   -4.1009130    0.1019760  
H     2.9948630   -5.2676040   -2.1550220  
H     0.5349710   -4.3648960   -1.3086990  
H     4.4425990   -0.5819180    3.5077040  
C     0.5552030    1.6229160   -0.2850510  
C    -0.8352240    1.4841490   -0.2940920  
C    -1.0959800    0.1077040   -0.1494820  
C     0.2686820   -0.5230300   -0.0656050  
N     1.2137110    0.3656650   -0.1396790  
C     0.4758810   -1.9642160    0.0381820  
C    -0.6728500   -2.6929240   -0.0278890  
O    -0.6854620   -4.0499220   -0.0150880  
C    -2.0500050   -2.1164020   -0.1138900  
O    -2.9678690   -2.9571240   -0.1792550  
C    -2.2557350   -0.6654810   -0.0953400  
H    -1.5534750    2.2753920   -0.4406120  
H    -1.6434150   -4.2876450   -0.0681180  
C     0.9538690    4.1044270   -0.5926450  
C     1.3507720    2.7829110   -0.3996540  
C     2.8258720    2.8666320   -0.3344920  
C     3.1098950    4.3097880   -0.5130050  
N     1.9920920    5.0095640   -0.6636230  
C     4.4353410    4.8340280   -0.5119030  
C     5.4548560    3.9501500   -0.3304780  
O     6.7448590    4.2925120   -0.3033040  
C     5.2019750    2.4756870   -0.1324620  
O     6.1833550    1.7553310    0.0375410  
C     3.8134790    1.9678130   -0.1474960  
H     4.6070110    5.8956980   -0.6489350  
H     7.2378920    3.4532940   -0.1564380  
H     3.6415290    0.9067200   -0.0057990  
H    -0.0638970    4.4651400   -0.6915660  
C    -3.5953110   -0.1292430   -0.0284300  
C    -4.0120390    1.1581640    0.2744740  
C    -5.4423690    1.1822460    0.2533850  
C    -5.8741660   -0.1968920   -0.0826690  
N    -4.7207550   -0.9278100   -0.2479920  
C    -7.1705760   -0.5864420   -0.1873230  
C    -8.2170540    0.4057910    0.0389640  
O    -9.4090200    0.1469270   -0.0337220  
C    -7.7826990    1.8751180    0.3933070  
O    -8.6455380    2.7199120    0.5849960  
C    -6.3537760    2.1738810    0.4809570  
H    -3.3767120    1.9854040    0.5458270  
H    -7.4695760   -1.6009910   -0.4315000  
H    -6.0646700    3.1907930    0.7290360  
H    -4.6439420   -1.9278980   -0.3779650  
