64


C     2.0562820   -0.5672260    0.0896030  
C     3.3568240   -0.1561010   -0.0923780  
C     3.2948410    1.2768890   -0.3058570  
C     1.9322450    1.6604790   -0.2325170  
N     1.1827470    0.5140310    0.0129500  
C     1.5126610    2.9864010   -0.3857750  
C     2.4855160    3.9412890   -0.6354270  
O     2.1299020    5.2480970   -0.7940270  
C     3.8539080    3.5735070   -0.7363270  
O     4.6995470    4.6325650   -1.0026490  
C     4.2673700    2.2639370   -0.5786020  
H     0.4705150    3.2794310   -0.3477430  
H     2.9394850    5.7437190   -1.0064160  
H     5.5966000    4.2996770   -1.1542060  
H     5.3181600    2.0014230   -0.6752950  
H     1.6688870   -1.5647820    0.2418560  
C    -0.9768480   -1.0461130    3.4007080  
C    -2.2480500   -0.8959810    2.9503450  
C    -2.1833080   -0.2658440    1.6442820  
C    -0.7476310   -0.0775320    1.3679110  
N    -0.0705520   -0.5433860    2.4689510  
C    -0.2160220    0.4389910    0.2129260  
C    -1.1465470    0.8183240   -0.8372470  
O    -0.8104230    1.2197490   -1.9409500  
C    -2.6922990    0.6964590   -0.5346300  
O    -3.4525700    1.1021770   -1.3958420  
C    -3.1642220    0.1262360    0.7579670  
H    -3.1446790   -1.2174550    3.4566420  
H    -0.6158710   -1.4828550    4.3218750  
H     0.9354880   -0.5770760    2.5391910  
C    -5.1212000    0.3337240    2.3176380  
C    -4.5885720    0.0714080    1.0624120  
C    -5.7209110   -0.2580340    0.2105970  
C    -6.8819870   -0.1911840    1.0190920  
N    -6.4807660    0.1781440    2.2924520  
C    -8.1676680   -0.4781080    0.5461650  
C    -8.2876240   -0.8443840   -0.7846280  
O    -9.5138750   -1.1261720   -1.3088140  
C    -7.1367140   -0.9246380   -1.6123680  
O    -7.4120820   -1.3004780   -2.9131000  
C    -5.8708810   -0.6442030   -1.1358550  
H    -7.1014210    0.3737260    3.0627990  
H    -9.0521420   -0.4203110    1.1722270  
H    -9.3815000   -1.3262240   -2.2519960  
H    -6.6167290   -1.1881940   -3.4551110  
H    -5.0154070   -0.6853780   -1.8011300  
H    -4.6206540    0.6757580    3.2116660  
C     4.3553240   -4.0280660   -2.1546780  
C     3.7344990   -2.8809020   -1.7347560  
C     4.6235430   -2.2292480   -0.8126170  
C     5.7861440   -3.0390430   -0.7189850  
N     5.5914530   -4.1306560   -1.5415150  
C     6.8877130   -2.7012660    0.0769690  
C     6.8075020   -1.5190500    0.7945560  
O     7.8452220   -1.1382530    1.5995900  
C     5.6541050   -0.6972790    0.7210360  
O     5.7260730    0.4249190    1.5286690  
C     4.5515100   -1.0211900   -0.0691960  
H     2.7649510   -2.5291500   -2.0569400  
H     6.2574590   -4.8718430   -1.6907140  
H     7.7783720   -3.3171920    0.1491100  
H     7.5802410   -0.3021820    2.0207060  
H     4.9046030    0.9358910    1.4356200  
H     4.0220970   -4.7882420   -2.8471860  
