64


C     5.3671860    1.4444020   -1.8684630  
C     6.6295020    1.1629100   -2.3159220  
C     7.2121060    0.2379970   -1.3849920  
C     6.2420760   -0.0079280   -0.3796240  
N     5.1129040    0.7442170   -0.6897650  
C     6.4646260   -0.8893740    0.6848190  
C     7.6943960   -1.5251170    0.7413100  
O     7.9673160   -2.3920020    1.7625180  
C     8.6812410   -1.2859080   -0.2513620  
O     9.8549910   -1.9931500   -0.0563520  
C     8.4555260   -0.4203820   -1.3050050  
H     7.0971780    1.5794280   -3.1979630  
H     5.7252240   -1.0738340    1.4550160  
H     8.8743940   -2.7154580    1.6272200  
H    10.4923260   -1.7516620   -0.7443030  
H     9.2245050   -0.2562000   -2.0578110  
H     4.6164090    2.1167290   -2.2597760  
C     1.2220950   -0.5654310   -2.1132720  
C     0.4931440   -0.2748550   -0.9808950  
C     1.4334330    0.2731030   -0.0270310  
C     2.7027970    0.2851280   -0.6540600  
N     2.5484890   -0.2315280   -1.9207500  
C     3.8684880    0.7386670   -0.0094760  
C     3.7406330    1.1808380    1.3060810  
O     4.8295020    1.6420340    1.9802680  
C     2.4760480    1.1443110    1.9518410  
O     2.5150540    1.6028140    3.2562500  
C     1.3327330    0.7057540    1.3107100  
H     3.2963580   -0.3507880   -2.5869060  
H     4.5358740    1.8568200    2.8829640  
H     1.6518980    1.4633440    3.6728970  
H     0.3792190    0.6840670    1.8329650  
H     0.8853030   -0.9676490   -3.0582310  
C    -1.6334370   -1.6580750   -1.0608100  
C    -0.9409830   -0.5005920   -0.7883830  
C    -1.9220610    0.4450990   -0.3028320  
C    -3.1809870   -0.2068330   -0.3047420  
N    -2.9768290   -1.4813170   -0.7867710  
C    -4.3834160    0.4407800    0.0647320  
C    -4.2678390    1.7744850    0.4720130  
O    -5.3672610    2.4391520    0.9199000  
C    -3.0143910    2.4349420    0.4754600  
O    -3.0810610    3.7470010    0.9077250  
C    -1.8520660    1.7959640    0.0875780  
H    -3.6802240   -2.2028730   -0.8269460  
H    -5.1028090    3.3633620    1.0728220  
H    -2.2313020    4.1833190    0.7470930  
H    -0.9018070    2.3246720    0.0874970  
H    -1.2641160   -2.6103200   -1.4143540  
C    -6.1136290   -3.3685810    1.6770380  
C    -5.2465280   -2.3589670    1.4159410  
C    -5.9903320   -1.4277890    0.5707530  
C    -7.3318680   -2.0655700    0.4337750  
N    -7.3979240   -3.1978870    1.0795730  
C    -8.3957400   -1.4479930   -0.3156130  
C    -8.1361620   -0.2609420   -0.9076540  
O    -9.0258800    0.4260110   -1.6438980  
C    -6.7793620    0.3917500   -0.8295930  
O    -6.6101150    1.3982210   -1.5084820  
C    -5.6930540   -0.2284900    0.0018900  
H    -4.2338350   -2.2383660    1.7733850  
H    -9.3619770   -1.9343670   -0.3904420  
H    -8.5337210    1.2070540   -1.9804070  
H    -5.9408030   -4.2521440    2.2805820  
