62


C    -3.1465580   -2.7065340   -0.0355220  
C    -3.8746700   -1.5280050   -0.0389390  
C    -5.2633660   -1.9022670    0.1504360  
C    -5.2971870   -3.3143660    0.2509800  
N    -3.9927840   -3.7674060    0.1350530  
C    -6.4775840   -4.0373630    0.4538630  
C    -7.6559340   -3.3163900    0.5665460  
O    -8.8337310   -3.9685230    0.7643310  
C    -7.6426050   -1.8971740    0.4912760  
O    -8.8869840   -1.3242380    0.6416200  
C    -6.4715740   -1.1886900    0.2896980  
H    -3.7106420   -4.7358270    0.1513240  
H    -6.5002240   -5.1191480    0.5341280  
H    -9.5313030   -3.2951040    0.8463390  
H    -8.8060490   -0.3592930    0.6729630  
H    -6.4901570   -0.1017530    0.2749750  
H    -2.0852250   -2.8553020   -0.1730610  
C    -3.3146230   -0.2110110   -0.2164670  
C    -2.0553150    0.2661790    0.0592160  
C    -1.9979520    1.6503540   -0.3278180  
C    -3.3378450    1.9764830   -0.8707480  
N    -4.1032480    0.8286320   -0.7343390  
C    -3.6985340    3.1819790   -1.3744150  
C    -2.7131370    4.2565760   -1.3531060  
O    -2.9534580    5.3861490   -1.7512850  
C    -1.2786970    3.9426880   -0.7893460  
O    -0.4320110    4.8174630   -0.8574230  
C    -1.0006690    2.5924520   -0.2513520  
H    -1.2760750   -0.2797250    0.5704440  
H    -4.6899640    3.3980150   -1.7611160  
H    -4.9353820    0.6558280   -1.2795390  
C     2.0143570   -0.2947910   -1.6433180  
C     3.0180700   -0.0218860   -0.7136470  
C     2.4886180    1.0179760    0.1540590  
C     1.1836450    1.3115360   -0.2980990  
N     0.9341290    0.4932180   -1.3934650  
C     0.3484790    2.2909250    0.2739480  
C     0.8910410    2.9859400    1.3575090  
O     0.1419470    3.9178110    2.0016860  
C     2.2005720    2.7033770    1.8257840  
O     2.5768820    3.4726710    2.9079100  
C     3.0027920    1.7377030    1.2465660  
H     0.0734880    0.4974320   -1.9208490  
H     0.7145270    4.3434540    2.6635450  
H     3.5055060    3.2948140    3.1196740  
H     4.0030050    1.5262180    1.6104130  
H     2.0091720   -1.0007060   -2.4615050  
C     4.2972070   -0.6593870   -0.6604430  
C     4.8287480   -1.6360940   -1.4808400  
C     6.1324710   -1.9139310   -0.9773600  
C     6.2744580   -0.9929320    0.2083040  
N     5.2089740   -0.2688570    0.3866080  
C     7.4722610   -0.9691720    1.0047840  
C     8.4716710   -1.8089990    0.6469630  
O     9.6434530   -1.9069850    1.2826430  
C     8.3600310   -2.7511490   -0.5443680  
O     9.3465860   -3.4655130   -0.7586870  
C     7.1450190   -2.7578320   -1.3319980  
H     4.3625110   -2.1002370   -2.3390340  
H     7.5538800   -0.2988830    1.8532420  
H    10.1370320   -2.5972810    0.7771160  
H     7.0957580   -3.4394590   -2.1752810  
