62


C    -4.3909740    0.7595200   -2.4540220  
C    -5.5734490    0.4359160   -1.8413020  
C    -5.2534440   -0.4279940   -0.7417790  
C    -3.8404630   -0.5853860   -0.7313620  
N    -3.3465810    0.1456010   -1.7909680  
C    -3.1514980   -1.3960580    0.2032740  
C    -3.9702260   -2.0648570    1.1129420  
O    -3.4036130   -2.9136460    2.0486470  
C    -5.3771810   -1.9220300    1.1223150  
O    -6.0000850   -2.6636880    2.1103890  
C    -6.0283830   -1.1085630    0.2167270  
H    -6.5584500    0.7645400   -2.1423140  
H    -2.3695730    0.2241100   -2.0282020  
H    -4.1336010   -3.2657090    2.5907420  
H    -6.9564910   -2.5152570    2.0762400  
H    -7.1117420   -1.0120170    0.2359900  
H    -4.1993300    1.3789040   -3.3188790  
C     0.1746250    1.6530550    0.0260670  
C    -1.0555880    0.9945280    0.1447540  
C    -0.8154360   -0.3996520    0.1108180  
C     0.5993150   -0.5683730   -0.0056680  
N     1.1607470    0.6766060   -0.0635200  
C     1.2308250   -1.8276630   -0.0428090  
C     0.3736400   -2.9217440    0.0775660  
O     0.8803830   -4.1704280    0.1229080  
C    -1.0457820   -2.7791070    0.1978190  
O    -1.7005980   -3.9829320    0.2868180  
C    -1.6750840   -1.5414960    0.1836510  
H    -2.0079240    1.4737880    0.3034970  
H     2.1458150    0.9037620   -0.0889260  
H     0.1120120   -4.7697810    0.2054100  
H    -2.3977170   -3.8982410    0.9755950  
C     4.7398640   -0.4417680    2.3195060  
C     3.4855160   -0.7064860    1.8719370  
C     3.6157510   -1.4693740    0.6457830  
C     5.0730230   -1.6370340    0.4214060  
N     5.6959120   -0.9777870    1.4635590  
C     5.6288170   -2.3306410   -0.6053280  
C     4.7370320   -2.9562750   -1.5699300  
O     5.1304100   -3.6336210   -2.5076270  
C     3.1881850   -2.7390230   -1.3998270  
O     2.4471610   -3.1538030   -2.2719770  
C     2.6877100   -2.0002940   -0.2093810  
H     2.5619010   -0.4112420    2.3458780  
H     6.6996330   -2.4563220   -0.7325700  
H     5.0524490    0.0988430    3.2030980  
H     6.6925700   -0.9477680    1.6097190  
C    -2.2281830    5.4263860   -0.4468230  
C    -1.8937480    4.1078460   -0.4579770  
C    -0.4706390    4.0670220   -0.1485300  
C    -0.1083890    5.4870950    0.0074620  
N    -1.1374690    6.2832150   -0.1541270  
C     1.2386300    5.9144560    0.2924420  
C     2.1976110    4.9671600    0.3866680  
O     3.5037940    5.2330810    0.6111320  
C     1.8816890    3.5199570    0.2228330  
O     2.8406210    2.7383450    0.2713710  
C     0.4602900    3.0638980    0.0159250  
H    -2.5390920    3.2757670   -0.6972770  
H     1.4598440    6.9707910    0.3997780  
H     3.9513780    4.3615160    0.5961510  
H    -3.1988590    5.8662960   -0.6427730  
