64


C     2.5605230   -1.4172070   -0.2793090  
C     3.4471130   -0.5395510    0.3483710  
C     4.7428490   -1.1261660    0.2966030  
C     4.6062450   -2.3747770   -0.3765870  
N     3.2854590   -2.5159270   -0.7177570  
C     5.6903000   -3.2327480   -0.6007280  
C     6.9319520   -2.8280700   -0.1377890  
O     8.0221900   -3.6247180   -0.3266520  
C     7.0878200   -1.5836040    0.5373890  
O     8.3878040   -1.3273770    0.9328680  
C     6.0204300   -0.7372510    0.7568570  
H     3.1890330    0.3713050    0.8697650  
H     2.8196100   -3.3328540   -1.0937620  
H     5.5900620   -4.1848790   -1.1109180  
H     8.7835140   -3.1720520    0.0755620  
H     8.4174210   -0.4908310    1.4198870  
H     6.1650050    0.2084320    1.2759830  
C    -0.1998700    2.0108610   -0.1192410  
C    -1.3848250    1.3169390   -0.2759800  
C    -1.0695520   -0.0666360   -0.4698130  
C     0.3940000   -0.1722040   -0.3918970  
N     0.8553320    1.1047710   -0.1808520  
C     1.1273600   -1.3376770   -0.4831110  
C     0.3422580   -2.5366100   -0.8292480  
O     0.8452300   -3.6250780   -1.0834720  
C    -1.2333160   -2.4605730   -0.8957150  
O    -1.8374080   -3.4929610   -1.1406640  
C    -1.8726520   -1.1639570   -0.6933490  
H    -2.3836900    1.7058740   -0.1594950  
H     1.8258390    1.3761310   -0.1433460  
C    -2.7880510    5.4800520   -1.0180740  
C    -1.9662900    6.4527600   -0.5171090  
C    -0.7860260    5.7949440   -0.0342290  
C    -0.9583200    4.4038520   -0.2584100  
N    -2.1923900    4.2428090   -0.8482900  
C     0.0252670    3.4351860    0.0762920  
C     1.2208520    3.9508880    0.6060870  
O     2.2558220    3.1147370    0.9312040  
C     1.3966090    5.3350360    0.8389500  
O     2.6276540    5.6460730    1.3846870  
C     0.4125710    6.2567730    0.5393590  
H    -2.1709770    7.5140020   -0.4955750  
H    -2.5233840    3.3807990   -1.2527240  
H     2.9697910    3.6713640    1.2914430  
H     2.6863520    6.5995810    1.5435310  
H     0.5715910    7.3162840    0.7278550  
H    -3.7627120    5.5559810   -1.4786430  
C    -3.8992020   -0.1870070   -1.7445130  
C    -5.2561790   -0.2835580   -1.6163250  
C    -5.5164810   -1.2372700   -0.5736150  
C    -4.2598670   -1.6987790   -0.1062340  
N    -3.2703430   -1.0385070   -0.8341840  
C    -4.1397720   -2.6207570    0.9398650  
C    -5.3089870   -3.0971040    1.5111650  
O    -5.2473240   -4.0038750    2.5311400  
C    -6.5756410   -2.6529420    1.0494200  
O    -7.6472180   -3.2162080    1.7194670  
C    -6.6911740   -1.7344100    0.0226620  
H    -5.9894420    0.2460410   -2.2098900  
H    -3.1839280   -2.9872240    1.2935920  
H    -6.1626790   -4.2329540    2.7661290  
H    -8.4721880   -2.9344020    1.2978050  
H    -7.6720990   -1.3999180   -0.3102130  
H    -3.2971740    0.3819510   -2.4384900  
