62


C    -0.7125810    5.8074710   -2.2858250  
C    -0.6157750    4.5278720   -1.7994800  
C     0.3394420    4.5520170   -0.7303370  
C     0.7999950    5.8904230   -0.6211500  
N     0.1359580    6.6319260   -1.5761670  
C     1.7690830    6.2926630    0.3042110  
C     2.2920470    5.3216120    1.1438760  
O     3.2258640    5.6643050    2.0764650  
C     1.8599480    3.9758080    1.0562600  
O     2.4551370    3.1433870    1.9826080  
C     0.8872110    3.5611710    0.1338680  
H    -1.1507050    3.6687690   -2.1756320  
H     0.2652840    7.6179970   -1.7403530  
H     2.1131510    7.3181900    0.3908830  
H     3.4188590    4.8647930    2.5963040  
H     1.9886960    2.2866810    1.9763780  
H    -1.3206100    6.2031090   -3.0869650  
C     0.4391820    2.1762010    0.0914370  
C    -0.7976420    1.6407810   -0.1314690  
C    -0.7201620    0.2040560   -0.0233080  
C     0.6847210   -0.0981850    0.2837950  
N     1.3451200    1.1271310    0.4238270  
C     1.2463410   -1.3422570    0.3958850  
C     0.3030630   -2.4629420    0.3062360  
O     0.6294210   -3.6286710    0.4658310  
C    -1.2224780   -2.1689930    0.0356460  
O    -1.9603050   -3.1387380   -0.0281500  
C    -1.6843270   -0.7765450   -0.1567940  
H    -1.7028870    2.2106600   -0.2730390  
H     2.3143740    1.1828660    0.1210150  
C     3.4540780   -0.9036810    1.5583680  
C     2.6721430   -1.5741940    0.6591030  
C     3.5598340   -2.5396210   -0.0041120  
C     4.9040110   -2.3559240    0.5963620  
N     4.7677900   -1.3506010    1.5327370  
C     6.0132810   -3.0593800    0.2522720  
C     5.8977600   -4.0635210   -0.7980550  
O     6.8370180   -4.7451350   -1.1807860  
C     4.4906640   -4.2596030   -1.4695950  
O     4.3736730   -5.0728600   -2.3715470  
C     3.3617480   -3.4485390   -0.9909830  
H     6.9833730   -2.9060230    0.7152010  
H     2.3927180   -3.6284330   -1.4405940  
H     3.1689830   -0.1297110    2.2583120  
H     5.5036880   -1.0251300    2.1397640  
C    -3.4332780    0.4616940   -1.4755760  
C    -3.0636100   -0.5018360   -0.5476730  
C    -4.3034910   -1.1101590   -0.0917640  
C    -5.3620210   -0.4550080   -0.7677260  
N    -4.7965100    0.4903740   -1.6065580  
C    -6.7128600   -0.7555400   -0.5575320  
C    -7.0066290   -1.7489970    0.3624080  
O    -8.3024400   -2.0966170    0.6038260  
C    -5.9620560   -2.4152760    1.0560100  
O    -6.4074610   -3.3810520    1.9387430  
C    -4.6317390   -2.1083740    0.8466920  
H    -5.3049830    1.0634740   -2.2620230  
H    -7.5173190   -0.2513140   -1.0831100  
H    -8.2857560   -2.8281050    1.2455900  
H    -5.6538490   -3.9080020    2.2442260  
H    -3.8549340   -2.6564760    1.3683130  
H    -2.8072560    1.0887180   -2.0933820  
