62


C     4.4322980    0.3372770   -2.2787560  
C     5.4274860   -0.5234740   -2.6371400  
C     5.8615670   -1.1962180   -1.4427330  
C     5.0922200   -0.6846020   -0.3687210  
N     4.2092720    0.2639240   -0.8988440  
C     5.2248350   -1.1616700    0.9398310  
C     6.1684710   -2.1510400    1.1699380  
O     6.3405290   -2.6427800    2.4319630  
C     6.9582950   -2.6621870    0.1080490  
O     7.8517560   -3.6439090    0.4938070  
C     6.8139960   -2.1999040   -1.1872150  
H     5.8233620   -0.6531990   -3.6354060  
H     4.6490610   -0.7755880    1.7714030  
H     7.0586400   -3.2971550    2.3901730  
H     8.4019530   -3.8933790   -0.2631570  
H     7.4187840   -2.6137170   -1.9918840  
H     3.8739730    1.0495820   -2.8682210  
C    -0.0347470    0.8577970   -1.7456070  
C     1.2483110    0.4214760   -1.7559090  
C     1.9371390    1.0800420   -0.6679520  
C     0.9401570    1.9489140   -0.0079760  
N    -0.2486680    1.7898620   -0.7207590  
C     1.1715630    2.6939830    1.1042110  
C     2.5023390    2.6593840    1.6859200  
O     2.8063710    3.2427730    2.7156420  
C     3.6183240    1.8222060    0.9574850  
O     4.7628030    1.8904730    1.3652220  
C     3.2285020    1.0006160   -0.2166070  
H     1.6742900   -0.2970800   -2.4393610  
H     0.4172300    3.3061030    1.5823910  
H    -0.8592120    0.5896930   -2.3906070  
C    -4.1262390   -0.0425240    0.0228000  
C    -4.8805630    1.0975840    0.2271870  
C    -4.0022080    2.2099670    0.0905720  
C    -2.6685840    1.5998880   -0.2179190  
N    -2.7455030    0.3037650   -0.2476720  
C    -1.4881650    2.4047800   -0.4417800  
C    -1.6501550    3.7563920   -0.3569890  
O    -0.6713130    4.6358200   -0.5468820  
C    -2.9844020    4.3992640   -0.0142680  
O    -2.9739480    5.6344220    0.0360140  
C    -4.1449050    3.5640470    0.1988370  
H    -5.9213090    1.1589190    0.4974630  
H    -1.1011930    5.5158920   -0.4007540  
H    -5.0842790    4.0529290    0.4337990  
C    -8.0658700   -2.2495740    0.2522510  
C    -7.1123690   -1.2614030    0.1521820  
C    -5.8301180   -1.8986020    0.1448100  
C    -6.0770810   -3.2898270    0.2338520  
N    -7.4419410   -3.4718670    0.3070990  
C    -5.0655070   -4.2591940    0.2179530  
C    -3.7604140   -3.8200080    0.0945570  
O    -2.7396410   -4.7174280    0.0627000  
C    -3.4555230   -2.4348170    0.0007020  
O    -2.1310060   -2.1944730   -0.1094340  
C    -4.4710920   -1.4357250    0.0474340  
H    -7.3338800   -0.2104780    0.0599780  
H    -7.9059960   -4.3646250    0.3732860  
H    -5.2701450   -5.3228190    0.2889240  
H    -1.9157270   -4.2020550   -0.0147060  
H    -2.0042240   -1.2050760   -0.2046970  
H    -9.1432120   -2.1740100    0.2863690  
