60


C     6.6539940    3.0846870   -0.7406360  
C     7.7936050    2.4106980   -0.3908940  
C     7.4112240    1.0563100   -0.1090630  
C     6.0090640    0.9679380   -0.3116860  
N     5.5753150    2.2194340   -0.6899150  
C     5.2731260   -0.2187130   -0.0758660  
C     6.0117050   -1.3368510    0.3317790  
O     5.3870910   -2.5342150    0.4873870  
C     7.4137650   -1.2617320    0.5200250  
O     7.9816260   -2.4592000    0.9090310  
C     8.1140920   -0.0885230    0.3133080  
H     8.7892150    2.8282860   -0.3345220  
H     4.6246650    2.4570880   -0.9277930  
H     6.0453170   -3.1615420    0.8350510  
H     8.9234750   -2.3296700    1.0939850  
H     9.1905680   -0.0558340    0.4686480  
H     6.5117030    4.1169830   -1.0269670  
C     2.3582910    0.7446970   -3.3384060  
C     3.5166040    0.5756420   -2.6555660  
C     3.1204030    0.0996750   -1.3329330  
C     1.6392320    0.0387210   -1.4098390  
N     1.1985940    0.4110660   -2.5787980  
C     0.8276670   -0.4140700   -0.2889610  
C     1.4957540   -0.8343370    0.8224150  
O     0.8892500   -1.3192540    1.9195610  
C     2.9835120   -0.7340910    0.9426110  
O     3.4654700   -1.0090850    2.0372700  
C     3.8141000   -0.2865080   -0.2280190  
H     4.5271950    0.7328110   -3.0044100  
H     1.6150370   -1.4612120    2.5688520  
H     2.2259960    1.0796530   -4.3599560  
C    -1.2934670   -0.8454530   -1.5112150  
C    -2.6277880   -0.6900690   -1.3355780  
C    -2.8340670   -0.0795960   -0.0421510  
C    -1.4842010    0.1186220    0.5368170  
N    -0.5744080   -0.4005210   -0.3919640  
C    -1.2393270    0.7606060    1.7058880  
C    -2.3765950    1.2516210    2.4765410  
O    -2.2517170    1.8659150    3.5246740  
C    -3.8196310    0.9621000    1.9395370  
O    -4.7731600    1.2208390    2.6516450  
C    -3.9688670    0.3315560    0.6038970  
H    -3.3965900   -0.9594600   -2.0436570  
H    -0.2468710    0.9337230    2.0999220  
H    -0.7496860   -1.2351970   -2.3576190  
C    -6.3927930   -3.1979970   -0.6537590  
C    -5.3993730   -2.3862610   -0.2093510  
C    -5.8896470   -1.0238910   -0.2782350  
C    -7.2754050   -1.1143220   -0.8002710  
N    -7.5092450   -2.4571520   -1.0282400  
C    -8.1140450   -0.0604470   -0.9762070  
C    -7.6259620    1.2684740   -0.6389900  
O    -8.3069560    2.2783090   -0.7327880  
C    -6.1405780    1.4066150   -0.1456000  
O    -5.6769720    2.5227640   -0.0002810  
C    -5.3287810    0.1771450    0.0633050  
H    -4.4255880   -2.6971180    0.1366910  
H    -9.1328180   -0.1610100   -1.3377200  
H    -6.4087050   -4.2761430   -0.7441000  
H    -8.3954430   -2.8432040   -1.3133810  
