66


C     1.6772140   -0.2678690    0.7066350  
C     2.8872920    0.3278460    0.4423020  
C     2.6027130    1.7048180    0.0823790  
C     1.2009180    1.8812980    0.1425870  
N     0.6590320    0.6632350    0.5384920  
C     0.5667820    3.0955180   -0.1331510  
C     1.3759770    4.1684840   -0.4751090  
O     0.8159340    5.3795450   -0.7563610  
C     2.7878420    4.0218490   -0.5251280  
O     3.4563870    5.1825380   -0.8635270  
C     3.4049030    2.8145360   -0.2511790  
H    -0.5094510    3.2169600   -0.0870220  
H     1.5429450    5.9941090   -0.9566360  
H     4.4121300    5.0306570   -0.8221720  
H     4.4893560    2.7336620   -0.2712930  
H     1.4377980   -1.2849830    0.9788780  
C    -1.3858450    0.5464750    1.8806420  
C    -2.6793780    0.1600430    1.6698440  
C    -2.7981590   -0.2470400    0.2895390  
C    -1.5186560   -0.0961180   -0.2985040  
N    -0.6760600    0.4013150    0.6910860  
C    -1.2246410   -0.4386350   -1.6200940  
C    -2.2662770   -0.9746680   -2.3599730  
O    -2.0652370   -1.3588680   -3.6486130  
C    -3.5660110   -1.1372490   -1.8043200  
O    -4.4847900   -1.6578080   -2.6903020  
C    -3.8714870   -0.7572760   -0.4957690  
H    -3.4592690    0.1413950    2.4173060  
H    -0.2383310   -0.3222790   -2.0544410  
H    -2.9214860   -1.7212050   -3.9478330  
H    -5.0009340   -2.3446420   -2.2142940  
H    -0.8800730    0.9094970    2.7632840  
C     4.1900950   -0.3143050    0.5203880  
C     4.6710790   -1.2736810    1.3851150  
C     6.0172520   -1.5777290    0.9972970  
C     6.3186420   -0.7629870   -0.1262080  
N     5.2063400    0.0205350   -0.3756120  
C     7.5540250   -0.8058860   -0.7817380  
C     8.5100990   -1.6833660   -0.2915180  
O     9.7323070   -1.7679260   -0.8978410  
C     8.2329770   -2.4946120    0.8392370  
O     9.2869340   -3.3099550    1.2142400  
C     7.0105700   -2.4503420    1.4849510  
H     4.1318860   -1.6768830    2.2316520  
H     5.0377490    0.5151850   -1.2388230  
H     7.7859670   -0.1894490   -1.6445130  
H    10.2461670   -2.4346830   -0.4107300  
H     9.0184210   -3.8527890    1.9699080  
H     6.8224960   -3.0845860    2.3493850  
C    -6.3456670    2.2997160    1.5252240  
C    -7.4682450    1.5400940    1.7311020  
C    -7.1964260    0.2369500    1.1960800  
C    -5.8723280    0.2661480    0.6796290  
N    -5.3875260    1.5406500    0.8851720  
C    -5.2530910   -0.8366190    0.0446350  
C    -6.0537270   -1.9729440   -0.0624520  
O    -5.5621120   -3.1012200   -0.6970750  
C    -7.3733670   -2.0265640    0.4445220  
O    -7.9945960   -3.2475040    0.2416800  
C    -7.9531020   -0.9446100    1.0764540  
H    -8.3852850    1.8710190    2.1987190  
H    -4.4484340    1.8350390    0.6647240  
H    -6.2624250   -3.7776830   -0.6535020  
H    -8.8856250   -3.2245820    0.6201700  
H    -8.9710090   -1.0031760    1.4561240  
H    -6.1455350    3.3312390    1.7790480  
