62


C     5.5579330   -0.8787060   -2.8333870  
C     6.9221030   -0.8784930   -2.8516150  
C     7.3685370   -0.7603410   -1.4894270  
C     6.2115040   -0.6897810   -0.6747230  
N     5.0979340   -0.7497710   -1.5197020  
C     6.2804810   -0.6336530    0.7225960  
C     7.5404390   -0.6045220    1.3032490  
O     7.6573430   -0.5424950    2.6608080  
C     8.7090760   -0.6459950    0.4998190  
O     9.8850280   -0.6077290    1.2217530  
C     8.6359810   -0.7297710   -0.8793680  
H     7.5433020   -0.9395790   -3.7347460  
H     5.4035770   -0.6234330    1.3592120  
H     8.6073440   -0.5382120    2.8698130  
H    10.6400520   -0.6518510    0.6165790  
H     9.5438470   -0.7809790   -1.4771080  
H     4.8414260   -0.9184950   -3.6408430  
C     2.7607330   -1.5551310   -1.6353610  
C     3.7510320   -0.7574710   -1.1555290  
C     3.0702540    0.2244760   -0.2842870  
C     1.6441270   -0.1846860   -0.3511990  
N     1.4766600   -1.2099830   -1.1382480  
C     0.6135000    0.5341630    0.3868570  
C     1.0170390    1.6167630    1.1203100  
O     0.1864740    2.3530090    1.8850220  
C     2.4284010    2.0743480    1.1400560  
O     2.7102630    3.0581480    1.8291570  
C     3.4592570    1.3196530    0.3898390  
H     0.7568700    3.0520540    2.2753930  
H     4.4821770    1.6765720    0.4514610  
H     2.8546900   -2.3838580   -2.3254580  
C    -1.1467340   -1.2089320    0.4025820  
C    -2.5028980   -1.2715730    0.2807030  
C    -2.9860880    0.0683180    0.0696950  
C    -1.8506280    0.9163420    0.0712960  
N    -0.7223250    0.1167480    0.2999740  
C    -1.9270440    2.2787110   -0.2220980  
C    -3.1830170    2.7898260   -0.5185230  
O    -3.3235930    4.1079410   -0.8241550  
C    -4.3391140    1.9709070   -0.5183910  
O    -5.4983910    2.6487420   -0.8098200  
C    -4.2780740    0.6087700   -0.1923420  
H    -3.0920130   -2.1755930    0.3239040  
H    -1.0646650    2.9312010   -0.2401820  
H    -4.2699150    4.2262740   -1.0354720  
H    -6.0162180    2.0762590   -1.4230640  
H    -0.4209200   -1.9921280    0.5509060  
C    -5.7235950   -2.1814500    2.9362100  
C    -5.0589370   -1.2283720    2.2325330  
C    -5.7264840   -1.0824810    0.9582180  
C    -6.8580110   -2.0431500    0.9811030  
N    -6.7851350   -2.6929470    2.1960080  
C    -7.7495300   -2.2253030   -0.0279780  
C    -7.6058700   -1.3885950   -1.2034420  
O    -8.3137420   -1.4761490   -2.1947670  
C    -6.4913660   -0.2751540   -1.1878890  
O    -6.5453840    0.5595930   -2.0894520  
C    -5.4790860   -0.2540200   -0.1161380  
H    -4.1943250   -0.6745710    2.5620620  
H    -8.5398680   -2.9686560   -0.0088060  
H    -5.5330950   -2.5561810    3.9331290  
H    -7.4597390   -3.3638130    2.5284140  
