62


C    -3.2372860    1.4236860   -1.5776990  
C    -4.5109350    1.9024020   -1.4946680  
C    -5.2161680    1.0793910   -0.5492490  
C    -4.3100160    0.0901010   -0.0941900  
N    -3.0877330    0.3113110   -0.7417770  
C    -4.6581470   -0.8482740    0.8832710  
C    -5.9507550   -0.8065070    1.3829490  
O    -6.3393540   -1.7091590    2.3305870  
C    -6.8760520    0.1652780    0.9226190  
O    -8.1218390    0.0789940    1.5137680  
C    -6.5232630    1.1042510   -0.0294810  
H    -4.9124920    2.7361920   -2.0546760  
H    -3.9756390   -1.6063890    1.2456290  
H    -7.2691370   -1.5205100    2.5441630  
H    -8.7032960    0.7584690    1.1419610  
H    -7.2410710    1.8526740   -0.3596120  
H    -2.4072550    1.7322050   -2.1956460  
C     1.1017210    1.5799490   -0.0477700  
C    -0.2674500    1.6122030   -0.2004450  
C    -0.6778950    0.2437880   -0.3767990  
C     0.5945520   -0.5286650   -0.3169100  
N     1.6222920    0.2439050   -0.1322060  
C     0.6366020   -1.9747070   -0.4600120  
C    -0.5517980   -2.5928640   -0.6762850  
O    -0.6892250   -3.9190160   -0.8204780  
C    -1.8596730   -1.8474070   -0.7580240  
O    -2.8627270   -2.5163790   -1.0028440  
C    -1.8777720   -0.3781110   -0.5719700  
H    -0.9265740    2.4601160   -0.0810740  
H    -1.6487540   -4.0601870   -0.9850440  
C     3.3564320   -2.4922250    2.9375830  
C     4.3811600   -3.1876470    2.3939110  
C     3.9927900   -3.4055420    1.0030840  
C     2.6638580   -2.7219100    0.8862680  
N     2.2909530   -2.2099980    2.0199400  
C     1.9174760   -2.7045680   -0.3608950  
C     2.4566160   -3.3925770   -1.4022360  
O     1.8881440   -3.4797010   -2.6151030  
C     3.7797410   -4.1017460   -1.3033270  
O     4.1891910   -4.6819100   -2.3083440  
C     4.5307650   -4.0727390   -0.0352560  
H     5.2887080   -3.5315060    2.8703890  
H     2.5075910   -4.0241870   -3.1499160  
H     5.4772210   -4.6042530   -0.0066660  
H     3.2560720   -2.1414690    3.9579620  
C     0.8439560    5.6848390   -1.6064900  
C     1.9964820    6.1710110   -1.0473280  
C     2.5843370    5.0968540   -0.2994950  
C     1.7301550    3.9749790   -0.4332140  
N     0.6738060    4.3664950   -1.2256220  
C     2.0080670    2.7003950    0.1303780  
C     3.2095320    2.6087950    0.8621240  
O     3.5509470    1.4639360    1.4972200  
C     4.0628260    3.7354250    1.0082590  
O     5.1878170    3.4744830    1.7699370  
C     3.7704240    4.9626380    0.4487990  
H     2.3842250    7.1745740   -1.1555550  
H    -0.0276120    3.7348160   -1.5805940  
H     4.4009840    1.6281850    1.9433430  
H     5.7154900    4.2816560    1.8571930  
H     4.4468050    5.8047730    0.5819440  
H     0.1142000    6.1699000   -2.2390900  
