60


C     6.0187120   -0.4839880   -1.4365670  
C     6.3463440   -1.7791950   -1.6896960  
C     5.4015130   -2.6129950   -0.9914670  
C     4.5006940   -1.7566630   -0.3157770  
N     4.8848400   -0.4355000   -0.6092160  
C     3.4894530   -2.2447090    0.5195610  
C     3.3596690   -3.6230620    0.6334500  
O     2.3869460   -4.1399760    1.4321950  
C     4.2352670   -4.4943610   -0.0631080  
O     3.9785660   -5.8306040    0.1511340  
C     5.2541610   -4.0046690   -0.8616200  
H     7.1622660   -2.1121490   -2.3164310  
H     2.8308730   -1.6080410    1.0970280  
H     2.4484250   -5.1095670    1.3795380  
H     4.5976320   -6.3718870   -0.3610360  
H     5.9327840   -4.6859860   -1.3701460  
H     6.4476850    0.4370460   -1.8009260  
C     4.2923150    0.7404300   -0.2013740  
C     4.8588460    1.9727250   -0.0128060  
C     3.8015650    2.8859490    0.3187470  
C     2.5527140    2.0945670    0.3176200  
N     2.9193600    0.7799950    0.0584230  
C     1.2883100    2.5944880    0.4939420  
C     1.2110470    4.0520870    0.7574940  
O     0.1528040    4.6338880    0.9320380  
C     2.5376270    4.8955400    0.8396470  
O     2.4393400    6.0904270    1.0814380  
C     3.7998060    4.2222240    0.5981550  
H     5.9130630    2.2023810   -0.0539440  
H     4.7073610    4.8170600    0.6177720  
H     2.2662560    0.1120750   -0.3337800  
C    -0.0419300    0.4756450    0.9235410  
C     0.0914300    1.7595890    0.4686090  
C    -1.2412660    2.0634160   -0.1097470  
C    -2.0263270    0.8130590    0.1010440  
N    -1.3162900   -0.0968180    0.7131550  
C    -3.4009460    0.6681050   -0.3449410  
C    -3.9403610    1.7432460   -0.9891590  
O    -5.2022730    1.7841550   -1.4334050  
C    -3.1694270    3.0066050   -1.2282910  
O    -3.7402560    3.9208600   -1.8201580  
C    -1.7757380    3.1195710   -0.7480200  
H    -5.2995510    2.6599230   -1.8689840  
H    -1.2684300    4.0621930   -0.9107970  
H     0.6992590   -0.1104370    1.4547590  
C    -4.5700320   -1.7610360    3.2045280  
C    -4.0616520   -0.8093760    2.3819840  
C    -4.3833240   -1.1931850    1.0242570  
C    -5.1391120   -2.4674750    1.1274920  
N    -5.2088590   -2.7600730    2.4741320  
C    -5.6543870   -3.1557970    0.0764310  
C    -5.4505090   -2.6183910   -1.2594570  
O    -5.8857560   -3.1483650   -2.2707410  
C    -4.6217570   -1.2894760   -1.4076570  
O    -4.3755990   -0.8853800   -2.5301970  
C    -4.1421920   -0.5981750   -0.1836080  
H    -3.5007950    0.0618440    2.6809380  
H    -6.2189050   -4.0770120    0.1832170  
H    -4.5312400   -1.8269620    4.2837980  
H    -5.6932960   -3.5519120    2.8658460  
