64


C     3.6863330   -1.2970740   -2.1756290  
C     4.8902590   -1.9415580   -2.0910090  
C     5.4380980   -1.6483300   -0.7970610  
C     4.5020380   -0.8140830   -0.1306960  
N     3.4305150   -0.6040210   -0.9954360  
C     4.7023710   -0.3482900    1.1786540  
C     5.8769630   -0.7200520    1.8173500  
O     6.1198200   -0.2950900    3.0909840  
C     6.8285110   -1.5439550    1.1610280  
O     7.9457240   -1.8233120    1.9253050  
C     6.6207600   -2.0114560   -0.1240630  
H     5.3401230   -2.5494950   -2.8641650  
H     3.9707820    0.2528490    1.7079040  
H     6.9767420   -0.6680500    3.3607440  
H     8.5386830   -2.4075460    1.4302340  
H     7.3607800   -2.6503780   -0.6024490  
H     2.9727740   -1.2421470   -2.9849790  
C    -0.9303790   -1.5249990   -0.9885570  
C     0.4452480   -1.6252590   -1.0535640  
C     0.9828450   -0.3202760   -0.8167070  
C    -0.1131520    0.5541070   -0.6064710  
N    -1.2614750   -0.2052470   -0.7014510  
C     0.0118220    1.9322160   -0.3335970  
C     1.3198330    2.4146810   -0.2599330  
O     1.5492400    3.7197590    0.0387270  
C     2.4393960    1.5671350   -0.4829610  
O     3.6507010    2.2167520   -0.4151900  
C     2.2904590    0.2117850   -0.7563850  
H     1.0042080   -2.5399150   -1.1922250  
H    -2.1934570    0.1811110   -0.7323350  
H     2.5148870    3.8447000    0.0431150  
H     4.3735560    1.5695600   -0.3519970  
C    -1.9300740   -3.6075190   -1.9955510  
C    -1.9534150   -2.5473230   -1.1354200  
C    -3.1811440   -2.6829570   -0.3505730  
C    -3.8583770   -3.9106310   -0.8392230  
N    -3.0391330   -4.4285840   -1.8210470  
C    -5.0432660   -4.3750670   -0.3657600  
C    -5.6973360   -3.6415350    0.7131740  
O    -6.7688810   -3.9758760    1.1955090  
C    -4.9721690   -2.3675820    1.2817290  
O    -5.4715180   -1.7683250    2.2209210  
C    -3.7088420   -1.9496490    0.6636770  
H    -5.5262350   -5.2712840   -0.7430960  
H    -3.2306860   -1.0607670    1.0620520  
H    -1.1878180   -3.8501540   -2.7440240  
H    -3.2531330   -5.2392000   -2.3804170  
C    -3.2871590    1.6528150    2.6048650  
C    -4.0219910    2.7209880    2.1649910  
C    -3.3115820    3.2993270    1.0584980  
C    -2.1385980    2.5245890    0.8662620  
N    -2.1562330    1.5167150    1.8137200  
C    -1.1800370    2.7935100   -0.1354220  
C    -1.4470800    3.8900000   -0.9581880  
O    -0.6005270    4.1967520   -1.9809810  
C    -2.6124410    4.6790800   -0.7728400  
O    -2.7237590    5.7214510   -1.6772950  
C    -3.5416700    4.3997400    0.2104850  
H    -4.9674670    3.0509170    2.5729080  
H    -1.3814950    0.8990480    2.0024420  
H    -0.9439580    5.0043590   -2.4007330  
H    -3.5103850    6.2455960   -1.4669550  
H    -4.4296600    5.0188320    0.3230600  
H    -3.4877080    0.9487390    3.3999410  
