60


C     4.1775680   -0.0160380    0.1308270  
C     3.8666540   -1.1794730   -0.5767360  
C     5.0021580   -2.0250080   -0.5339970  
C     6.0064930   -1.3427260    0.2171210  
N     5.4828630   -0.1385720    0.6040980  
C     7.2707470   -1.8940320    0.4586100  
C     7.5268170   -3.1514210   -0.0643140  
O     8.7370650   -3.7367370    0.1381050  
C     6.5348600   -3.8500970   -0.8184300  
O     6.9569490   -5.0870290   -1.2631190  
C     5.2916650   -3.3082020   -1.0560130  
H     2.9198990   -1.3650230   -1.0573700  
H     5.9435240    0.5791460    1.1448240  
H     8.0393210   -1.3819830    1.0277570  
H     8.7189660   -4.6038170   -0.3037790  
H     6.2480090   -5.5103010   -1.7696780  
H     4.5492880   -3.8555050   -1.6330670  
C     0.0628450    0.9259400   -1.0094540  
C    -0.1237270    2.1823610   -0.4934960  
C     1.1763360    2.4905190    0.1443680  
C     2.0062960    1.2809530   -0.0966320  
N     1.3407530    0.3863920   -0.7793330  
C     3.3862470    1.1632710    0.3915650  
C     3.8410050    2.2466170    1.1102380  
O     5.0890090    2.3143000    1.6497220  
C     3.0370380    3.4436050    1.3755440  
O     3.5421700    4.3582410    2.0430420  
C     1.6586150    3.5321070    0.8463700  
H     5.1137050    3.1937040    2.0931550  
H     1.1140340    4.4490550    1.0334760  
H    -0.6372120    0.3520620   -1.6052820  
C    -4.3113240    0.9381840   -0.2011230  
C    -4.9134260    2.1583130   -0.3490620  
C    -3.8784400    3.1419950   -0.5376340  
C    -2.5985670    2.4084170   -0.4920440  
N    -2.9212120    1.0639840   -0.3552140  
C    -1.3480380    2.9735650   -0.5386030  
C    -1.3253710    4.4497420   -0.6883580  
O    -0.2931910    5.0965660   -0.7340140  
C    -2.6848570    5.2372250   -0.8153480  
O    -2.6344820    6.4476810   -0.9670090  
C    -3.9319590    4.4921960   -0.7210110  
H    -5.9780360    2.3421580   -0.3710400  
H    -4.8647620    5.0443380   -0.7733860  
H    -2.2639790    0.4153830    0.0637170  
C    -4.9041450   -0.3596340    0.0168240  
C    -6.1132820   -0.6773060    0.5733010  
C    -6.2357740   -2.1135020    0.5759270  
C    -4.9899280   -2.6341530   -0.0369540  
N    -4.1885180   -1.5276190   -0.3007810  
C    -4.7413740   -3.9446560   -0.2698310  
C    -5.7498040   -4.9252090    0.1362500  
O    -5.6114870   -6.1256400   -0.0321020  
C    -7.0592430   -4.3985400    0.8291370  
O    -7.9048470   -5.2026860    1.1870360  
C    -7.2166910   -2.9521160    1.0080970  
H    -6.8212900    0.0247920    0.9898050  
H    -3.8279180   -4.3098900   -0.7290310  
H    -8.1327260   -2.5972820    1.4703480  
H    -3.4838520   -1.5410910   -1.0259480  
