60


C     5.8352400   -1.3599440   -1.2678770  
C     7.0626940   -0.7683380   -1.2982650  
C     6.9572860    0.4863910   -0.6026440  
C     5.6152720    0.6220980   -0.1753100  
N     4.9242860   -0.5284330   -0.5913770  
C     5.1785540    1.7109130    0.5853070  
C     6.1092210    2.6940940    0.8889610  
O     5.7269970    3.7775610    1.6164750  
C     7.4556680    2.5822440    0.4510210  
O     8.2546930    3.6365500    0.8332170  
C     7.8868970    1.4925000   -0.2837490  
H     7.9422180   -1.1655140   -1.7869940  
H     4.1551990    1.8355410    0.9149060  
H     6.4980450    4.3650730    1.6991670  
H     9.1385980    3.5373760    0.4492180  
H     8.9252900    1.4129080   -0.5979010  
H     5.4808950   -2.2631110   -1.7434300  
C     3.2629950   -4.2132570    0.8743420  
C     1.9324070   -3.9179320    0.7433910  
C     1.8280180   -2.5810880    0.2345160  
C     3.2119650   -2.1095380    0.0812120  
N     4.0371460   -3.1595740    0.4523700  
C     3.5931530   -0.8634930   -0.3440450  
C     2.4986390    0.0766500   -0.6634230  
O     2.6805310    1.1673340   -1.1653150  
C     1.0201370   -0.3646670   -0.3603390  
O     0.1834430    0.5318730   -0.3984590  
C     0.7276290   -1.7691890   -0.0490980  
H     1.1211720   -4.5655560    1.0312180  
H     3.7278640   -5.1143470    1.2517010  
H     5.0413420   -3.0882440    0.5291030  
C    -0.6409700   -2.2340220   -0.0138260  
C    -1.1704340   -3.5087190   -0.0277380  
C    -2.5983930   -3.3986640    0.0080780  
C    -2.9042380   -1.9497840    0.0219390  
N    -1.7013960   -1.3131540   -0.0006110  
C    -4.1765360   -1.4062110    0.0542010  
C    -5.2788230   -2.3758280    0.1971940  
O    -6.4457460   -2.0546600    0.3950420  
C    -4.9734530   -3.9140760    0.0990710  
O    -5.9174340   -4.6899760    0.1049240  
C    -3.5863750   -4.3407880    0.0217740  
H    -0.6252340   -4.4342620   -0.1166430  
H    -3.3830360   -5.4063950   -0.0153840  
H    -1.5306340   -0.3168080    0.0522960  
C    -4.4403240    0.0201610   -0.0152410  
C    -3.6345540    1.0647850   -0.4310250  
C    -4.3935950    2.2790580   -0.3263750  
C    -5.7310250    1.8860250    0.1839060  
N    -5.6866870    0.5235730    0.3626620  
C    -6.7499690    2.7559810    0.4074340  
C    -6.5265990    4.1717440    0.1363110  
O    -7.3826520    5.0277350    0.3085000  
C    -5.1141930    4.6114950   -0.4016950  
O    -4.9129880    5.7959780   -0.6317780  
C    -4.0981990    3.5812850   -0.6045260  
H    -2.6411730    1.0027660   -0.8484880  
H    -7.7228470    2.4496610    0.7789960  
H    -3.1277930    3.8946320   -0.9778390  
H    -6.4566720   -0.0990770    0.5770210  
