64


C     4.5803950   -0.4913280   -0.5638830  
C     5.3523530   -1.0259850   -1.5751500  
C     6.6557360   -1.2808890   -1.0410870  
C     6.6321580   -0.8760730    0.3201270  
N     5.3697940   -0.3790390    0.5787480  
C     7.7442050   -0.9884500    1.1628230  
C     8.9061720   -1.5156390    0.6206990  
O    10.0194250   -1.6509080    1.3984190  
C     8.9528780   -1.9161130   -0.7420710  
O    10.1813270   -2.4161450   -1.1327120  
C     7.8531780   -1.8038590   -1.5714410  
H     5.0298890   -1.1711860   -2.5974860  
H     5.0103380   -0.1673580    1.4969110  
H     7.7299580   -0.6804810    2.2033270  
H    10.7200250   -2.0228490    0.8354210  
H    10.1520920   -2.6456470   -2.0731520  
H     7.9137320   -2.1188100   -2.6114560  
C     2.1770800   -0.6667720   -1.2889330  
C     3.1837580   -0.0902890   -0.5648920  
C     2.5743150    1.0131720    0.1768800  
C     1.1351570    1.0109400   -0.1762420  
N     0.9636910   -0.0315830   -1.0669940  
C     0.1983910    1.8899920    0.2887610  
C     0.6727530    2.9047350    1.2556040  
O    -0.0756800    3.6714010    1.8342560  
C     2.2100470    2.9718860    1.5820160  
O     2.6150590    3.8628540    2.3119250  
C     3.0938530    1.9588340    1.0050160  
H     4.1523410    2.0272690    1.2339230  
H     2.2303380   -1.5187930   -1.9532120  
H     0.0936360   -0.2397070   -1.5323350  
C    -2.8164500   -1.3182420    0.7716600  
C    -3.8906440   -0.6795120    0.1917860  
C    -3.4007380    0.6196980   -0.2319460  
C    -2.0276650    0.6890090    0.1139480  
N    -1.6949740   -0.5137300    0.7070870  
C    -1.2261860    1.8315720   -0.1012990  
C    -1.8635710    2.9256050   -0.6920440  
O    -1.1479360    4.0427520   -0.9819660  
C    -3.2406770    2.8765880   -1.0333770  
O    -3.7075890    4.0417930   -1.6079080  
C    -4.0114290    1.7508470   -0.8145610  
H    -0.8233120   -0.6940360    1.1815930  
H    -1.7760220    4.7204460   -1.2878730  
H    -4.6723540    4.0012540   -1.6868210  
H    -5.0659060    1.7425430   -1.0780720  
H    -2.7625090   -2.3076960    1.2025120  
C    -6.6954680   -2.6720330    3.0895110  
C    -5.6241460   -2.0372750    2.5173360  
C    -5.9409990   -1.8329840    1.1306330  
C    -7.2397460   -2.3680430    0.9222990  
N    -7.6712720   -2.8769470    2.1308630  
C    -7.8915430   -2.3266980   -0.3162900  
C    -7.2113410   -1.7326040   -1.3666300  
O    -7.7878660   -1.6722320   -2.6048250  
C    -5.9126520   -1.1943760   -1.1822020  
O    -5.3662430   -0.6621780   -2.3383040  
C    -5.2531610   -1.2268840    0.0458250  
H    -4.7207580   -1.7339240    3.0265570  
H    -8.5651830   -3.3132590    2.2915870  
H    -8.8835690   -2.7358530   -0.4782680  
H    -7.1362700   -1.2602140   -3.1982260  
H    -4.4460180   -0.4072090   -2.1597980  
H    -6.8511840   -2.9970550    4.1086100  
