64


C     2.9860920   -1.9770450   -2.1627090  
C     4.0514160   -2.8090840   -2.3656910  
C     4.9071270   -2.6935570   -1.2183770  
C     4.2944960   -1.7662950   -0.3357560  
N     3.1130430   -1.3306350   -0.9331130  
C     4.8470530   -1.4311320    0.9111780  
C     6.0506020   -2.0296810    1.2593640  
O     6.6279240   -1.7386690    2.4592730  
C     6.6831790   -2.9482810    0.3814010  
O     7.8723500   -3.4540270    0.8680260  
C     6.1253240   -3.2881380   -0.8380490  
H     4.2131380   -3.4298830   -3.2362860  
H     4.3559610   -0.7692770    1.6167780  
H     7.4434370   -2.2652670    2.5236230  
H     8.2317590   -4.1003880    0.2425220  
H     6.6222270   -4.0050150   -1.4888120  
H     2.1374640   -1.7542640   -2.7930170  
C    -1.2723660   -1.4072270   -0.1448780  
C     0.0389890   -1.7623290   -0.4612650  
C     0.8446080   -0.6142340   -0.2660110  
C    -0.0183930    0.4329290    0.1806060  
N    -1.2832170   -0.0735800    0.2404240  
C     0.4462440    1.7229230    0.5010830  
C     1.8127270    1.9512770    0.3561450  
O     2.3344650    3.1620240    0.6597920  
C     2.6855200    0.9327790   -0.1358730  
O     3.9833200    1.3550880   -0.2776510  
C     2.2270720   -0.3405690   -0.4373640  
H     0.3677720   -2.7384420   -0.7875680  
H    -2.1313110    0.4073400    0.5107650  
H     3.2943520    3.1105380    0.4968450  
H     4.5829540    0.5913840   -0.3503960  
C    -1.2371410    2.5990120    2.1116880  
C    -2.0362150    3.7009030    2.2379670  
C    -1.7450580    4.5673150    1.1300990  
C    -0.7447350    3.9305480    0.3531440  
N    -0.4390890    2.7198250    0.9721020  
C    -0.2373720    4.4862490   -0.8267570  
C    -0.7417790    5.7149210   -1.2225870  
O    -0.2778450    6.3050270   -2.3644110  
C    -1.7377750    6.3721680   -0.4533790  
O    -2.1370240    7.5889430   -0.9769200  
C    -2.2413430    5.8163360    0.7076630  
H    -2.7440720    3.8812460    3.0356460  
H     0.5282140    4.0023790   -1.4215270  
H    -0.7497650    7.1498290   -2.4614130  
H    -2.8095160    7.9811020   -0.4008820  
H    -3.0094740    6.3343100    1.2789650  
H    -1.1280730    1.7335470    2.7501170  
C    -2.4939620   -2.1436310   -0.1532110  
C    -2.7521920   -3.4531780   -0.4867390  
C    -4.1606150   -3.6285700   -0.3012460  
C    -4.6475140   -2.2824590    0.1672550  
N    -3.6735700   -1.4231520    0.2515280  
C    -6.0337250   -2.0445220    0.4678360  
C    -6.8896130   -3.0822230    0.3132290  
O    -8.2035610   -3.0202030    0.5513100  
C    -6.4307240   -4.4530620   -0.1575040  
O    -7.3094800   -5.3152740   -0.2578260  
C    -5.0255230   -4.6698100   -0.4554710  
H    -2.0460900   -4.2008840   -0.8194480  
H    -6.3621380   -1.0670610    0.8029880  
H    -8.5355090   -3.9265670    0.3463560  
H    -4.7291430   -5.6591020   -0.7893490  
