62


C     5.7430270    0.4019470   -3.4588170  
C     6.8094070   -0.4395910   -3.2719310  
C     6.7381730   -0.9117050   -1.9190670  
C     5.5874890   -0.3192540   -1.3310850  
N     5.0117760    0.4844540   -2.2921260  
C     5.1958410   -0.5279130    0.0129380  
C     6.0446570   -1.3570960    0.7448170  
O     5.7773440   -1.6059420    2.0808520  
C     7.1944680   -1.9590330    0.1819390  
O     7.8986540   -2.7502740    1.0748170  
C     7.5501220   -1.7551100   -1.1364500  
H     7.5632450   -0.6868680   -4.0066370  
H     4.1450370    0.9858160   -2.1689530  
H     6.4722310   -2.2102820    2.3997150  
H     8.6600940   -3.1452170    0.6255070  
H     8.4410390   -2.2231340   -1.5500310  
H     5.4402530    0.9598640   -4.3338110  
C     0.9468950   -0.3045780   -1.4013260  
C     2.2661090   -0.6110340   -1.2436640  
C     2.7444940    0.1017590   -0.0844010  
C     1.6455410    0.8351280    0.4276760  
N     0.5466530    0.5898900   -0.4067120  
C     1.7133720    1.5655190    1.6168010  
C     2.9246810    1.5514890    2.2921200  
O     3.0575810    2.2282000    3.4666250  
C     4.0477000    0.8461120    1.7897870  
O     5.1787490    0.9686140    2.5682910  
C     3.9962120    0.1321610    0.5884650  
H     2.8311380   -1.2923080   -1.8633050  
H     0.8764500    2.1165830    2.0243680  
H     3.9728740    2.0572040    3.7605830  
H     5.5848680    0.0777400    2.6449100  
H     0.2305360   -0.6473120   -2.1304700  
C    -3.2283310   -1.4645850   -0.5459220  
C    -4.1368870   -0.4618250   -0.3310470  
C    -3.2937390    0.7534660   -0.2079470  
C    -1.9043310    0.2464330   -0.3647550  
N    -1.8847570   -1.0427340   -0.5743070  
C    -0.7454610    1.1235630   -0.2832400  
C    -0.9903460    2.4516130   -0.0692800  
O    -0.0298470    3.3913960   -0.0117760  
C    -2.3697970    2.9727270    0.1193800  
O    -2.5044390    4.1827080    0.3140450  
C    -3.5288360    2.0553580    0.0331720  
H    -0.5100610    4.2322000    0.1611360  
H    -4.5136180    2.4934840    0.1339890  
H    -3.4436320   -2.5097070   -0.7303630  
C    -6.6631130   -3.6395790    1.4541080  
C    -5.6226360   -2.8496920    1.0762640  
C    -6.1704270   -1.7143620    0.3678440  
C    -7.6386780   -1.9058730    0.3726460  
N    -7.8684160   -3.1012260    1.0236550  
C    -8.5475500   -1.0470510   -0.1625540  
C    -8.0499510    0.1700500   -0.7732310  
O    -8.7683850    1.0243640   -1.2699120  
C    -6.4931450    0.4139720   -0.7888610  
O    -6.0925170    1.4511370   -1.2899300  
C    -5.5797570   -0.6110220   -0.2158550  
H    -4.5814680   -3.0290580    1.2936420  
H    -9.6187680   -1.2210700   -0.1451380  
H    -6.6536560   -4.5665710    2.0116750  
H    -8.7816680   -3.4776430    1.2243850  
