60


C     0.4812370    4.7286800   -0.3203370  
C    -0.6825320    5.1322280    0.2495070  
C    -1.2559610    3.9917720    0.9202780  
C    -0.3784650    2.8981730    0.7271980  
N     0.7059000    3.3686380   -0.0531570  
C    -0.6502330    1.6316640    1.2559600  
C    -1.8272130    1.4851080    1.9762750  
O    -2.1611100    0.2538490    2.5073940  
C    -2.7145240    2.5658140    2.1767900  
O    -3.8304370    2.2474240    2.9178740  
C    -2.4357200    3.8208420    1.6595390  
H    -1.0951270    6.1309490    0.2060110  
H     0.0288060    0.8021680    1.1230290  
H    -2.9247790    0.4024960    3.0946150  
H    -4.3816330    3.0338440    3.0472010  
H    -3.1216660    4.6500100    1.8163800  
H     1.2011530    5.2870530   -0.8972870  
C     1.7934700    2.6793490   -0.5310230  
C     2.7889740    3.1356560   -1.3704950  
C     3.6604090    2.0215190   -1.5505330  
C     3.0423840    0.9198970   -0.7246100  
N     1.9504500    1.3261850   -0.1371200  
C     3.6289580   -0.3999340   -0.6192300  
C     4.7744340   -0.5891750   -1.3411290  
O     5.4214410   -1.7440460   -1.4088850  
C     5.4176120    0.5015910   -2.1926580  
O     6.4454120    0.1712980   -2.7904220  
C     4.8085270    1.8127400   -2.2537070  
H     2.8994420    4.1116130   -1.8177820  
H     6.2040510   -1.5630830   -1.9858100  
H     5.2951300    2.5707770   -2.8583750  
C    -0.4668530   -2.0370570   -0.1086650  
C     0.6743080   -1.4916380   -0.6244880  
C     1.7558210   -1.8015410    0.2761970  
C     1.1733690   -2.6496060    1.3427390  
N    -0.1868040   -2.6961610    1.0964230  
C     1.8845940   -3.2399380    2.3359800  
C     3.3172340   -2.9836370    2.3943010  
O     4.0601680   -3.5061290    3.2103710  
C     3.9298240   -1.9498620    1.3787250  
O     5.0865730   -1.6022050    1.5338140  
C     3.0685200   -1.4114860    0.2938660  
H     0.7255860   -0.8497460   -1.4894280  
H     1.4423870   -3.8821710    3.0910850  
H    -0.8184020   -3.3561020    1.5264900  
C    -1.8314410   -1.9053910   -0.5753410  
C    -2.3274920   -1.9638520   -1.8473600  
C    -3.7510800   -1.7424590   -1.7693890  
C    -4.0507620   -1.5321490   -0.3311050  
N    -2.8595770   -1.7120850    0.3637510  
C    -5.2764550   -1.2130780    0.1516410  
C    -6.3893580   -1.1025950   -0.7894990  
O    -7.5244840   -0.8117020   -0.4449990  
C    -6.1040040   -1.3824580   -2.3108390  
O    -7.0275350   -1.3157560   -3.1074430  
C    -4.7311290   -1.6966510   -2.7125480  
H    -1.7604010   -2.1916990   -2.7385800  
H    -5.4767990   -1.0432400    1.2049780  
H    -4.5394220   -1.8594700   -3.7687950  
H    -2.6670430   -1.1864510    1.2191270  
