62


C    -3.2408270   -1.2230890    0.9494870  
C    -4.1289500   -0.2642790    0.4656990  
C    -5.3297500   -0.9908510    0.0785780  
C    -5.0931420   -2.3592800    0.3620980  
N    -3.8199620   -2.4556510    0.9017320  
C    -6.0124740   -3.3759400    0.0908740  
C    -7.2137930   -3.0089530   -0.4973900  
O    -8.1515640   -3.9563920   -0.7845500  
C    -7.4684250   -1.6496840   -0.8066400  
O    -8.6999920   -1.4334920   -1.3968840  
C    -6.5517330   -0.6499590   -0.5356780  
H    -3.3742050   -3.3127100    1.1914660  
H    -5.8179240   -4.4200220    0.3139430  
H    -8.9107620   -3.4958740   -1.1822830  
H    -8.8273140   -0.4829240   -1.5326950  
H    -6.7842200    0.3822630   -0.7704640  
H    -2.2335960   -1.0907130    1.3117250  
C    -0.2312180    1.6841590    0.0768760  
C    -0.5779310    3.0060010    0.0889950  
C    -2.0209850    3.0283100    0.2206350  
C    -2.4162370    1.5899080    0.2696310  
N    -1.3751090    0.8197120    0.1688130  
C    -3.8158840    1.1562020    0.3979360  
C    -4.7257990    2.1821460    0.4780780  
O    -6.0548690    1.9935840    0.6632220  
C    -4.3589800    3.6139320    0.4201020  
O    -5.2619270    4.4560950    0.5186690  
C    -2.9442230    4.0072750    0.2770200  
H     0.0794720    3.8635620    0.0630360  
H    -6.4226380    2.9054720    0.7077090  
H    -2.7239830    5.0695800    0.2282670  
C     3.4578960    2.7159650   -2.1853530  
C     2.1894960    2.7399790   -1.7100790  
C     2.1177620    1.6404130   -0.7574680  
C     3.4874770    1.0463250   -0.7853970  
N     4.2582520    1.6779250   -1.6228000  
C     3.8509640   -0.1298390    0.0065660  
C     2.8167280   -0.6744530    0.7091480  
O     2.9571110   -1.7897540    1.4839680  
C     1.4433470   -0.1119410    0.7754960  
O     0.6483320   -0.6740870    1.5329040  
C     1.1059790    1.1166600   -0.0097440  
H     1.3808510    3.3939960   -2.0011700  
H     2.0737700   -1.9073480    1.9057520  
H     3.9063980    3.3660140   -2.9269380  
C     7.9465770    1.6722600    0.5979790  
C     6.5937420    1.4872650    0.4924350  
C     6.3727930    0.1050310    0.1744700  
C     7.6537790   -0.5064240    0.1123040  
N     8.5920490    0.4725170    0.3624310  
C     7.8446980   -1.8692550   -0.1383110  
C     6.7083910   -2.6434350   -0.3032570  
O     6.8167830   -3.9814030   -0.5358470  
C     5.4119150   -2.0715750   -0.2266460  
O     4.3918810   -2.9772010   -0.4433210  
C     5.2123060   -0.6990260   -0.0202200  
H     5.8441390    2.2550980    0.6057100  
H     9.5876890    0.3244160    0.4050040  
H     8.8267680   -2.3286320   -0.1891470  
H     5.8989980   -4.3070850   -0.6032240  
H     3.7304870   -2.8655360    0.2715830  
H     8.5124130    2.5670410    0.8158490  
