64


C    -0.2369490    1.8320950    0.1513870  
C    -1.2134550    0.8596760    0.2577010  
C    -2.4403720    1.5068230    0.6026630  
C    -2.1641140    2.8980830    0.6891670  
N    -0.8277780    3.0788520    0.3726880  
C    -3.1367090    3.8475260    1.0117160  
C    -4.4212190    3.3773760    1.2446570  
O    -5.4129540    4.2507270    1.5827250  
C    -4.7231690    1.9945360    1.1465660  
O    -6.0440430    1.6986900    1.4246630  
C    -3.7634230    1.0366910    0.8242830  
H    -1.0722810   -0.1902740    0.0455280  
H    -0.2978250    3.8934620    0.6480460  
H    -2.9286880    4.9098860    1.0852910  
H    -6.2138890    3.7204830    1.7404220  
H    -6.1503710    0.7326610    1.4550820  
C     1.1609160    1.7185430   -0.1735130  
C     2.0319810    0.6548280   -0.0142250  
C     3.3118710    1.0526360   -0.5030840  
C     3.1776330    2.4002440   -0.9404090  
N     1.8708660    2.7952680   -0.7005870  
C     4.2336100    3.1419700   -1.4629470  
C     5.4729570    2.5153420   -1.5075430  
O     6.5566850    3.1799040   -1.9840750  
C     5.6530080    1.1813070   -1.0533800  
O     6.9463810    0.7338290   -1.1763020  
C     4.5866060    0.4104390   -0.5747410  
H     1.7709820   -0.2879370    0.4397910  
H     1.4263790    3.5635810   -1.1821340  
H     4.1310150    4.1697190   -1.7957920  
H     7.3018760    2.5546350   -1.8789300  
H     7.1841230    0.2894970   -0.3164480  
C    -3.4403730   -1.4241740    1.3830920  
C    -4.1121600   -0.3941920    0.7579330  
C    -5.2137940   -1.0112280    0.0428450  
C    -5.1457380   -2.4075840    0.2864830  
N    -4.0553920   -2.6257580    1.1040880  
C    -6.0521240   -3.3194460   -0.2685830  
C    -7.0463040   -2.8136660   -1.0910760  
O    -7.9573350   -3.6573270   -1.6552920  
C    -7.1235590   -1.4202900   -1.3589370  
O    -8.1606290   -1.0734420   -2.2030360  
C    -6.2275760   -0.5220520   -0.8104570  
H    -3.7548150   -3.5250730    1.4462910  
H    -5.9998900   -4.3877960   -0.0851180  
H    -8.5497240   -3.1156220   -2.2049020  
H    -8.1301990   -0.1213490   -2.3792610  
H    -6.3004170    0.5382190   -1.0396030  
H    -2.5742200   -1.3815640    2.0277860  
C     7.6808870   -1.5528990    1.9039910  
C     7.1692230   -2.7951140    2.0625970  
C     5.9464510   -2.8120030    1.2712870  
C     5.8480360   -1.4333560    0.7004460  
N     6.8796410   -0.7165820    1.0717480  
C     4.7497190   -0.9989150   -0.1484350  
C     3.8701170   -1.9952690   -0.4931250  
O     2.8349830   -1.8196110   -1.3316450  
C     3.9551260   -3.3923530    0.0374160  
O     3.0976600   -4.1998200   -0.3360350  
C     5.0399430   -3.7594630    0.9593690  
H     7.5739680   -3.6161510    2.6375470  
H     2.4039540   -2.7031320   -1.3864550  
H     5.0670840   -4.7827540    1.3209490  
H     8.5933080   -1.1432210    2.3194670  
