64


C     3.7226890   -1.2225210   -1.6995760  
C     4.4742800   -0.4607570   -0.8270920  
C     5.4314360   -1.3648250   -0.2261170  
C     5.2023090   -2.6495860   -0.7801130  
N     4.1581900   -2.5302480   -1.6760610  
C     5.9411860   -3.7809370   -0.4102200  
C     6.9320350   -3.6115510    0.5429350  
O     7.6870470   -4.6780400    0.9415050  
C     7.1724080   -2.3333810    1.1131610  
O     8.1920090   -2.3236320    2.0496240  
C     6.4408630   -1.2208380    0.7459010  
H     3.7814660   -3.2781760   -2.2364590  
H     5.7656700   -4.7642080   -0.8348940  
H     8.3173630   -4.3476310    1.6045980  
H     8.3114560   -1.4210840    2.3799280  
H     6.6549550   -0.2498840    1.1828930  
H     2.9254920   -0.9195510   -2.3640040  
C     0.7528100    1.7611180   -0.0274860  
C     1.3254590    3.0327920    0.0803470  
C     2.7194520    2.8924120   -0.1108430  
C     2.9777210    1.5076290   -0.3413510  
N     1.7777170    0.8540340   -0.2917020  
C     4.2679670    0.9746500   -0.5656080  
C     5.3055780    1.9080000   -0.5397730  
O     6.5905010    1.5088390   -0.7613700  
C     5.0669970    3.2957560   -0.3010340  
O     6.2234980    4.0553470   -0.3134000  
C     3.8045530    3.8000060   -0.0955720  
H     0.7645710    3.9320290    0.2789500  
H     1.6411100   -0.1453820   -0.3499560  
H     7.1415830    2.3116300   -0.7551160  
H     5.9920990    4.9939490   -0.2528570  
H     3.6468320    4.8612950    0.0827380  
C    -2.8251130    4.1016990    0.8839390  
C    -3.7932830    3.1484810    0.8283160  
C    -3.1054860    1.9145630    0.4883330  
C    -1.6929660    2.3114020    0.3858330  
N    -1.5381440    3.5956140    0.6055110  
C    -0.6212740    1.3503870    0.0849190  
C    -1.0378470    0.0438770   -0.0545350  
O    -0.1699550   -0.9876320   -0.2945050  
C    -2.4210200   -0.3867450    0.0573680  
O    -2.6390460   -1.6168640   -0.0400160  
C    -3.5199890    0.6199710    0.2634400  
H    -4.8419510    3.2716450    1.0528290  
H    -0.7451940   -1.7848140   -0.3037800  
H    -2.9340940    5.1527900    1.1227830  
C    -4.8885160    0.1827420    0.1942060  
C    -6.0696010    0.9265820    0.0634380  
C    -7.1495390    0.0184380    0.0106490  
C    -6.5934070   -1.2959490    0.1080150  
N    -5.2401010   -1.1635460    0.2174090  
C    -7.3872540   -2.4511310    0.0819780  
C    -8.7544810   -2.2795560   -0.0452940  
O    -9.5746240   -3.3615150   -0.0779390  
C    -9.3285700   -0.9717510   -0.1450760  
O   -10.7022480   -0.9891980   -0.2649010  
C    -8.5526710    0.1632960   -0.1199030  
H    -6.1286880    1.9991970   -0.0358080  
H    -4.5295310   -1.8866510    0.2161510  
H    -6.9738010   -3.4511580    0.1549580  
H   -10.4869380   -3.0353520   -0.1721570  
H   -11.0366890   -0.0823580   -0.3313240  
H    -9.0071610    1.1486600   -0.1966470  
