64


C    -0.9085440   -1.5100490   -0.9073830  
C     0.4620640   -1.6301260   -0.9136980  
C     0.9957160   -0.3196440   -0.6808300  
C    -0.1080700    0.5571850   -0.5126070  
N    -1.2557480   -0.1938630   -0.6746860  
C     0.0132300    1.9403560   -0.2547660  
C     1.3276150    2.4029600   -0.2032030  
O     1.5666310    3.7493080   -0.0051040  
C     2.4471850    1.5574070   -0.3715620  
O     3.6489440    2.2384380   -0.3218620  
C     2.3183200    0.1879930   -0.6016190  
H     1.0093950   -2.5543090   -1.0260560  
H    -2.1955820    0.1720650   -0.6310050  
H     2.5347500    3.8622100    0.0275230  
H     4.3912790    1.6150550   -0.2815660  
C    -1.7750050   -3.4761810   -2.1177470  
C    -2.8512560   -4.3137450   -2.0529160  
C    -3.6912840   -3.8466690   -0.9847720  
C    -3.0619160   -2.7061820   -0.4249300  
N    -1.8813890   -2.4852800   -1.1408850  
C    -3.5978740   -2.0112850    0.6662370  
C    -4.8007080   -2.4648070    1.1858240  
O    -5.3677880   -1.8164720    2.2484500  
C    -5.4517520   -3.5957950    0.6305090  
O    -6.6410430   -3.9211890    1.2554780  
C    -4.9122620   -4.2871550   -0.4390630  
H    -3.0353940   -5.1596460   -2.7010930  
H    -3.1244940   -1.1450170    1.1120080  
H    -6.1863620   -2.2931980    2.4696100  
H    -7.0163940   -4.7134700    0.8438380  
H    -5.4227680   -5.1579610   -0.8459110  
H    -0.9313830   -3.4620030   -2.7919770  
C    -3.6786260    1.5874280    2.2884220  
C    -2.4286770    1.4221270    1.7475950  
C    -2.2415410    2.4644560    0.7721390  
C    -3.4224100    3.2536470    0.7889850  
N    -4.2814300    2.6867040    1.7093480  
C    -3.5849390    4.4010880    0.0041490  
C    -2.5167530    4.7653340   -0.7990710  
O    -2.5889120    5.8837530   -1.5730630  
C    -1.3277360    3.9874930   -0.8479180  
O    -0.3810210    4.4692050   -1.7292550  
C    -1.1746470    2.8171110   -0.1020920  
H    -1.7123480    0.6657730    2.0346030  
H    -5.1990950    3.0350000    1.9378720  
H    -4.4837690    5.0089520    0.0226700  
H    -1.7240890    5.9436980   -2.0222460  
H     0.4907490    4.4271200   -1.2803670  
H    -4.1992570    0.9965130    3.0284210  
C     3.6983400   -1.5423950   -1.8414160  
C     3.4948070   -0.6758130   -0.8044770  
C     4.6717790   -0.7941670    0.0542460  
C     5.5691120   -1.7881570   -0.5887870  
N     4.9110000   -2.2085320   -1.7273770  
C     6.7748690   -2.1675830   -0.0967030  
C     7.2362390   -1.5697980    1.1543740  
O     8.3121010   -1.8403710    1.6639840  
C     6.2925480   -0.5362720    1.8704160  
O     6.6486390   -0.0428370    2.9279320  
C     5.0123200   -0.2035590    1.2339610  
H     7.4147560   -2.8982430   -0.5820760  
H     4.3591710    0.4900830    1.7551530  
H     3.0516880   -1.7359500   -2.6868620  
H     5.2708390   -2.8797710   -2.3876160  
