60


C    -5.3287040   -0.5906830    2.3377760  
C    -6.5728270   -1.0864600    2.6050890  
C    -7.3662640   -0.9152130    1.4194540  
C    -6.5443510   -0.2905070    0.4494230  
N    -5.2860940   -0.0955230    1.0273980  
C    -6.9911500   -0.0109140   -0.8467120  
C    -8.2991260   -0.3481170   -1.1581910  
O    -8.7859230   -0.0882750   -2.4043440  
C    -9.1415770   -0.9630930   -0.1935240  
O   -10.4126220   -1.2375800   -0.6569430  
C    -8.6917030   -1.2498610    1.0813740  
H    -6.8983320   -1.5024510    3.5491110  
H    -6.3764390    0.4784180   -1.5918510  
H    -9.7190500   -0.3628020   -2.4148110  
H   -10.9562420   -1.5804540    0.0677090  
H    -9.3479200   -1.7307270    1.8039760  
H    -4.4695710   -0.4675700    2.9824100  
C    -1.3671100   -1.8555870    0.7260570  
C    -0.6900770   -0.8349510    0.1107790  
C    -1.6703470    0.2257510   -0.1219030  
C    -2.9496770   -0.2736340    0.4227910  
N    -2.6967620   -1.5381200    0.9193770  
C    -4.1303230    0.4132890    0.4099360  
C    -4.1245530    1.7589060   -0.2001260  
O    -5.0994840    2.4870970   -0.2108120  
C    -2.7862250    2.2640370   -0.8600720  
O    -2.8015630    3.3337350   -1.4465520  
C    -1.5905790    1.4304030   -0.7504960  
H    -0.6767900    1.8030250   -1.2003780  
H    -0.9802900   -2.8072150    1.0658080  
H    -3.3901870   -2.1197800    1.3667360  
C     1.4198830   -1.8922090   -0.8055850  
C     0.7157410   -0.8600200   -0.2622830  
C     1.7305560    0.1945340   -0.0432550  
C     2.9953100   -0.4132180   -0.5360090  
N     2.8047750   -1.6249700   -0.9735850  
C     4.2578620    0.3082500   -0.4907210  
C     4.2341820    1.5761510    0.0205340  
O     5.3125680    2.3756080    0.0831470  
C     2.9863840    2.1791770    0.5646570  
O     3.0504500    3.3237160    1.0147470  
C     1.7164290    1.4189540    0.5126310  
H     4.9945740    3.2059870    0.5038240  
H     0.8332630    1.9072230    0.9117060  
H     1.0352080   -2.8533950   -1.1245920  
C     5.5233750   -1.0497220   -2.1428350  
C     6.7674460   -1.5526670   -2.3201600  
C     7.5605670   -1.1764670   -1.1719000  
C     6.6642760   -0.3893370   -0.2897500  
N     5.4285590   -0.3203590   -0.9449760  
C     7.0279320    0.0852500    0.9263520  
C     8.3971010   -0.1534240    1.3869970  
O     8.8033120    0.2381170    2.4698890  
C     9.3731320   -0.9472870    0.4480470  
O    10.5223940   -1.1400320    0.8129620  
C     8.8488960   -1.4370680   -0.8277290  
H     7.1042530   -2.1364560   -3.1646330  
H     6.3689040    0.6455860    1.5760810  
H     9.5158050   -2.0166600   -1.4587870  
H     4.6495330   -1.1345950   -2.7704250  
