64


C    -4.8461750   -0.1470340    0.1240730  
C    -5.4788040   -1.3791190    0.3037730  
C    -6.8787440   -1.1716070    0.1454220  
C    -7.0627770    0.2141380   -0.1304270  
N    -5.8233560    0.8022670   -0.1312060  
C    -8.3265050    0.7779070   -0.3475770  
C    -9.4220000   -0.0681630   -0.2896350  
O   -10.6755410    0.4260390   -0.4946440  
C    -9.2570260   -1.4568390   -0.0174790  
O   -10.4461740   -2.1605280    0.0062930  
C    -8.0125160   -2.0122150    0.1985430  
H    -4.9909230   -2.3364000    0.4234450  
H    -5.5772050    1.7529660   -0.3799800  
H    -8.4709710    1.8322180   -0.5582590  
H   -11.2962920   -0.3192030   -0.4192570  
H   -10.2646650   -3.0969380    0.1742820  
H    -7.9121820   -3.0762060    0.4045900  
C    -1.3934360   -2.1229290    1.9735500  
C    -0.4028070   -1.2940060    1.5541660  
C    -1.0183600   -0.2504200    0.7570370  
C    -2.4581760   -0.5534830    0.7369820  
N    -2.6212060   -1.7275040    1.4505260  
C    -3.4426180    0.2130180    0.1504920  
C    -2.9694930    1.4911390   -0.4065560  
O    -3.7177870    2.3917620   -0.7710370  
C    -1.4235740    1.7420370   -0.5646780  
O    -1.0824810    2.6604840   -1.2880270  
C    -0.4774510    0.8474130    0.1289600  
H     0.6476950   -1.3764380    1.7888270  
H    -1.3366490   -2.9968500    2.6089570  
H    -3.5183350   -2.0037640    1.8252520  
C     2.8851630   -1.5928750   -1.4150000  
C     3.8899770   -0.6886430   -1.1651150  
C     3.2879670    0.4688230   -0.5551030  
C     1.9018450    0.1983250   -0.4564510  
N     1.6863040   -1.0546360   -0.9956180  
C     0.9693300    1.1242150    0.0646720  
C     1.4967840    2.3433400    0.4988570  
O     0.6759180    3.2644500    1.0696000  
C     2.8856390    2.6238300    0.4025740  
O     3.2295940    3.8721710    0.8819890  
C     3.7828140    1.7121820   -0.1172610  
H     0.7859480   -1.5011540   -1.0702500  
H     1.2074020    4.0615190    1.2401020  
H     4.1827550    4.0085010    0.7759340  
H     4.8427790    1.9443560   -0.1817010  
H     2.9384400   -2.5784270   -1.8539660  
C     5.7474610   -1.0669250   -2.7792670  
C     7.1091640   -1.1968470   -2.7414030  
C     7.5077700   -1.0591200   -1.3689960  
C     6.3251580   -0.8490000   -0.6127890  
N     5.2509270   -0.8546400   -1.4968480  
C     6.3362800   -0.6949980    0.7799390  
C     7.5658760   -0.7381190    1.4187690  
O     7.6348060   -0.5886460    2.7768410  
C     8.7601440   -0.9372890    0.6780680  
O     9.9058480   -0.9536230    1.4554890  
C     8.7445620   -1.0990380   -0.6951140  
H     7.7549510   -1.3631480   -3.5929770  
H     5.4312680   -0.5486500    1.3587060  
H     8.5725920   -0.6626500    3.0235250  
H    10.6740280   -1.1183700    0.8892970  
H     9.6732620   -1.2567850   -1.2408560  
H     5.0611100   -1.0860550   -3.6138330  
