60


C    -6.1530150   -1.0118590    2.8096110  
C    -5.0692840   -0.5074170    2.1376600  
C    -4.9560810   -1.2319940    0.9030960  
C    -6.0286020   -2.1670790    0.8823770  
N    -6.7289280   -2.0185080    2.0612410  
C    -6.2745980   -3.0245130   -0.1914140  
C    -5.4351410   -2.9152090   -1.2913020  
O    -5.6291540   -3.7108720   -2.3755020  
C    -4.3702880   -1.9793420   -1.3166160  
O    -3.6233970   -2.0227120   -2.4756060  
C    -4.0805530   -1.1527070   -0.2231220  
H    -4.4254300    0.2837200    2.4916960  
H    -7.5573090   -2.5344450    2.3130550  
H    -7.0924990   -3.7376890   -0.2040240  
H    -4.9496430   -3.4437220   -3.0240120  
H    -3.5058010   -1.0967480   -2.7744750  
H    -6.5636220   -0.7367060    3.7707500  
C    -0.8391210   -0.2614600    2.7189580  
C    -1.8645390   -0.8721690    2.0831910  
C    -2.0412110   -0.1322580    0.8342990  
C    -0.9825460    0.9115300    0.8888030  
N    -0.2977960    0.8493690    1.9936110  
C    -0.7948520    1.8842260   -0.1758940  
C    -1.6413620    1.7841420   -1.2341970  
O    -1.5776960    2.5871790   -2.3105730  
C    -2.6730530    0.7048300   -1.3340700  
O    -3.2920170    0.6506340   -2.4065170  
C    -2.9227390   -0.2364790   -0.2012850  
H    -2.4429360   -1.7241270    2.4070490  
H    -2.2648590    2.2572620   -2.9281960  
H    -0.3978330   -0.5147960    3.6752220  
C     3.5877990    1.5335760    0.0353800  
C     3.9683120    2.8429930    0.1349110  
C     2.7397400    3.6010830    0.0940820  
C     1.6609100    2.5627750   -0.0189770  
N     2.1635320    1.3666740   -0.0698480  
C     0.2555740    2.9185890   -0.0943990  
C    -0.0270290    4.2508610   -0.1030350  
O    -1.2658610    4.7461540   -0.1710780  
C     1.0404190    5.3155140    0.0006280  
O     0.6630850    6.4866070   -0.0013670  
C     2.4492520    4.9218690    0.1021560  
H     4.9689520    3.2427400    0.2200190  
H    -1.1564150    5.7242540   -0.1487580  
H     3.1881800    5.7141500    0.1679890  
C     4.3831400    0.3341130    0.0254890  
C     5.7455870    0.1501880    0.0872050  
C     5.9942600   -1.2646820    0.0467470  
C     4.6609140   -1.9198910   -0.0437650  
N     3.7393640   -0.8989510   -0.0570610  
C     4.4734720   -3.2638500   -0.0982860  
C     5.6455300   -4.1322930   -0.0687960  
O     5.5751170   -5.3514800   -0.1124000  
C     7.0656320   -3.4609700    0.0232430  
O     8.0585410   -4.1727940    0.0477400  
C     7.1421300   -1.9998450    0.0773000  
H     6.4920120    0.9286580    0.1517720  
H     3.4934620   -3.7259650   -0.1632970  
H     8.1272050   -1.5476970    0.1425420  
H     2.7324700   -0.9743440   -0.0903840  
