60


C    -2.7833710   -1.5311460    0.1384530  
C    -3.6921170   -0.4883390   -0.0515630  
C    -4.9940960   -1.0454200   -0.0102970  
C    -4.8485160   -2.4477070    0.2126050  
N    -3.5077960   -2.7123690    0.2991780  
C    -5.9465700   -3.3118920    0.3082670  
C    -7.2081140   -2.7542160    0.1747290  
O    -8.3126250   -3.5449990    0.2566390  
C    -7.3732040   -1.3539220   -0.0503420  
O    -8.6953910   -0.9681260   -0.1597220  
C    -6.2942900   -0.5037160   -0.1426870  
H    -3.4176120    0.5415060   -0.2174770  
H    -3.0733430   -3.6149550    0.4229540  
H    -5.8457930   -4.3789420    0.4764180  
H    -9.0885250   -2.9711930    0.1299050  
H    -8.7404400   -0.0176700   -0.3415850  
H    -6.4373030    0.5606810   -0.3160290  
C    -0.0030560    1.8391820   -0.0971880  
C     1.2110010    1.1805930   -0.0457840  
C     0.9013510   -0.2159040    0.0707210  
C    -0.5934640   -0.2605060    0.0732740  
N    -1.1029350    0.9310520   -0.0166830  
C    -1.3408940   -1.5160420    0.1591760  
C    -0.5538270   -2.6409110    0.2479300  
O    -1.0691450   -3.8914720    0.3677210  
C     0.9226560   -2.6390920    0.2504250  
O     1.4846860   -3.7302760    0.4037140  
C     1.6648400   -1.3528890    0.1282230  
H     2.1957260    1.5944780   -0.2089330  
H    -0.2742600   -4.4729400    0.4307040  
C     2.3041750    5.2385360    1.4106920  
C     1.5096460    6.2581520    0.9996780  
C     0.3840400    5.6700120    0.3033540  
C     0.5991460    4.2081560    0.3273810  
N     1.7891330    4.0136120    0.9879210  
C    -0.2639440    3.2588790   -0.1820120  
C    -1.4879440    3.7868690   -0.8441320  
O    -2.2858670    3.0932970   -1.4436690  
C    -1.7457910    5.3400840   -0.8302330  
O    -2.7931700    5.7599550   -1.2948210  
C    -0.7242030    6.2186770   -0.2646170  
H     1.6761450    7.3126240    1.1643360  
H    -0.9068870    7.2887740   -0.2838250  
H     3.2282220    5.2660400    1.9725000  
H     2.0957740    3.1058520    1.3078210  
C     3.1167200   -1.3588760    0.1063700  
C     3.9668890   -0.4578340    0.6945610  
C     5.3021960   -0.9091020    0.3738750  
C     5.0805300   -2.1304660   -0.4644710  
N     3.8165890   -2.3943280   -0.6121280  
C     6.1856890   -2.8749460   -1.0136070  
C     7.4378470   -2.4467170   -0.7282470  
O     8.5571890   -3.0440950   -1.1627410  
C     7.6915270   -1.2288080    0.1270400  
O     8.8642410   -0.9138600    0.3308650  
C     6.5503220   -0.4763640    0.6664340  
H     3.7037800    0.3741720    1.3317630  
H     5.9991510   -3.7519600   -1.6230940  
H     9.2962650   -2.5098210   -0.7952960  
H     6.7737810    0.3982550    1.2698820  
