62


C     5.9254900    0.8518750   -2.3043800  
C     7.2607370    0.5831180   -2.2242450  
C     7.4557560   -0.3544640   -1.1483580  
C     6.1854510   -0.6322370   -0.5910020  
N     5.2612190    0.1175660   -1.3166440  
C     5.9893690   -1.5087620    0.4793030  
C     7.1163580   -2.1242260    1.0041690  
O     6.9906190   -2.9892760    2.0487470  
C     8.4041110   -1.8620900    0.4628520  
O     9.4200970   -2.5517000    1.0929450  
C     8.5843950   -0.9927100   -0.5971810  
H     8.0275820    1.0051890   -2.8593330  
H     5.0129570   -1.7133710    0.9041670  
H     7.8837120   -3.2995580    2.2784380  
H    10.2727530   -2.3042220    0.7056740  
H     9.5798590   -0.8077210   -0.9955270  
H     5.3609150    1.4973170   -2.9613100  
C     2.9846740   -0.7027500   -1.7246460  
C     1.7227290   -0.3816180   -1.3454010  
C     1.8045270    0.7371290   -0.4310480  
C     3.2431680    1.0605130   -0.3016160  
N     3.9132960    0.1348000   -1.0962990  
C     3.7668120    2.0531410    0.4570440  
C     2.8270720    2.8945230    1.1800780  
O     3.1604250    3.7961080    1.9308710  
C     1.2875300    2.6516040    0.9550930  
O     0.5303460    3.5129770    1.3976330  
C     0.8263800    1.4564000    0.2237160  
H     0.8159670   -0.8684070   -1.6676960  
H     4.8311110    2.2301130    0.5627980  
H     3.3449400   -1.4654090   -2.4014810  
C    -1.1945530   -2.4433490    1.1084310  
C    -0.2775790   -1.4361870    0.9558660  
C    -0.9867580   -0.2844380    0.4718670  
C    -2.3457770   -0.6623490    0.3522280  
N    -2.4384170   -1.9853950    0.7232720  
C    -3.3922430    0.2299520    0.0029490  
C    -2.9895870    1.5647450   -0.2031020  
O    -3.8736480    2.5060750   -0.5833090  
C    -1.6279360    1.9628150   -0.0924440  
O    -1.4295090    3.2920170   -0.3836420  
C    -0.5994090    1.0630410    0.1958630  
H     0.7775620   -1.5065790    1.1741840  
H    -3.3153720   -2.4644110    0.8656570  
H    -3.3601340    3.3383670   -0.6338730  
H    -0.8091830    3.6434200    0.2977430  
H    -1.0649280   -3.4593750    1.4530370  
C    -4.7670410   -0.2158870   -0.1023860  
C    -5.2234440   -1.4602110   -0.4796940  
C    -6.6583720   -1.4024680   -0.3846740  
C    -6.9328790   -0.0118250    0.1083240  
N    -5.8402640    0.6744530    0.2627830  
C    -8.2761270    0.4445130    0.3620020  
C    -9.2880550   -0.4189080    0.1136640  
O   -10.5863840   -0.1362620    0.2918930  
C    -9.0425120   -1.8211280   -0.4026980  
O   -10.0376070   -2.5247200   -0.5934330  
C    -7.6715540   -2.2689630   -0.6372480  
H    -4.6448440   -2.2800360   -0.8830260  
H    -8.4482130    1.4506130    0.7276540  
H   -11.0612570   -0.9568640    0.0257590  
H    -7.5333740   -3.2835750   -0.9982470  
