64


C     5.4371700    2.0733370    0.4228800  
C     4.1170960    1.6815350    0.2036810  
C     4.1745690    0.2919180   -0.2205990  
C     5.5379810   -0.0807540   -0.2349210  
N     6.2731890    1.0297110    0.1643780  
C     5.9815900   -1.3553270   -0.6034120  
C     5.0137300   -2.2772580   -0.9717140  
O     5.3748800   -3.5381680   -1.3398330  
C     3.6368000   -1.9228430   -0.9729450  
O     2.8006050   -2.9348050   -1.3729510  
C     3.2106230   -0.6582470   -0.6039220  
H     7.2775200    1.0563930    0.2583730  
H     7.0290420   -1.6388350   -0.6105790  
H     4.5506860   -4.0179340   -1.5373450  
H     1.8665410   -2.6497800   -1.2999490  
H     2.1596750   -0.3921960   -0.6062380  
H     5.8247750    3.0248550    0.7576050  
C     2.9684510    2.5193650    0.3713880  
C     2.8935660    3.8627030    0.6645800  
C     1.5040530    4.1840890    0.7192610  
C     0.8039230    2.8807940    0.4314470  
N     1.6593370    1.9254560    0.2246380  
C    -0.6541150    2.7639920    0.3951230  
C    -1.3248790    3.9266940    0.6480110  
O    -2.6662810    4.0271790    0.7025100  
C    -0.6479280    5.2470640    0.9214030  
O    -1.3976340    6.2108070    1.1325720  
C     0.7996690    5.3247910    0.9458800  
H     3.7125740    4.5543530    0.8064710  
H    -2.8186530    4.9799730    0.9173580  
H     1.2525610    6.2892510    1.1519890  
C    -0.8130620    0.2550010    0.5641380  
C    -1.2981880    1.4718010    0.1334080  
C    -2.5184750    1.1848610   -0.6004700  
C    -2.7114590   -0.2165810   -0.5622720  
N    -1.6463820   -0.7750830    0.1498550  
C    -3.7816840   -0.8647250   -1.1883090  
C    -4.6831560   -0.0747460   -1.8843870  
O    -5.7522080   -0.6467890   -2.5115040  
C    -4.5007330    1.3304210   -1.9520530  
O    -5.4722190    1.9849290   -2.6874910  
C    -3.4397660    1.9621520   -1.3306060  
H    -3.9226360   -1.9388340   -1.1398180  
H    -6.2599110    0.0736730   -2.9232330  
H    -5.3244700    2.9406460   -2.6325380  
H    -3.3362260    3.0405180   -1.3842570  
H     0.0686330    0.0360770    1.1456370  
C    -3.4760980   -3.2129300    3.4127680  
C    -3.1411690   -2.1728650    2.5862310  
C    -2.2229070   -2.6948170    1.6165540  
C    -2.0359030   -4.0742450    1.9071570  
N    -2.8134010   -4.3590330    3.0101320  
C    -1.2022210   -4.9062110    1.1525230  
C    -0.5293230   -4.3441830    0.0762370  
O     0.2841810   -5.1322340   -0.6869550  
C    -0.6902860   -2.9710230   -0.2239000  
O     0.0277850   -2.4963870   -1.3134460  
C    -1.5208890   -2.1455940    0.5255830  
H    -3.5035190   -1.1574230    2.6541380  
H    -2.8922030   -5.2627830    3.4491510  
H    -1.0696680   -5.9610980    1.3695770  
H     0.5939880   -4.6154910   -1.4481200  
H    -0.2933820   -1.5974910   -1.5128470  
H    -4.1392840   -3.2365040    4.2659240  
