60


C    -4.5254560    1.1656640   -0.8974660  
C    -4.3849860   -0.1745440   -0.5585680  
C    -5.5897750   -0.5269770    0.1732780  
C    -6.3902350    0.6405570    0.2453040  
N    -5.7174840    1.6467730   -0.4238440  
C    -7.6229610    0.6884160    0.9069070  
C    -8.0638660   -0.4764640    1.5140050  
O    -9.2611760   -0.4977160    2.1658640  
C    -7.2768370   -1.6568880    1.4574330  
O    -7.8467220   -2.7378290    2.1041460  
C    -6.0595390   -1.6951990    0.8065870  
H    -6.0533880    2.5886180   -0.5539110  
H    -8.2310280    1.5859440    0.9545270  
H    -9.3937850   -1.4070330    2.4863510  
H    -7.3381380   -3.5367740    1.8992840  
H    -5.4958070   -2.6197240    0.7514480  
H    -3.8816800    1.7988940   -1.4914460  
C    -0.1368640    0.9065050   -0.6829040  
C     0.3774390   -0.3029860   -1.1265500  
C    -0.7121710   -1.2231770   -1.2649610  
C    -1.9312800   -0.4833270   -0.8825910  
N    -1.5113750    0.7858460   -0.5462970  
C    -3.2103200   -0.9863870   -0.8759860  
C    -3.3261420   -2.4115850   -1.2640320  
O    -4.3904580   -3.0080220   -1.3016740  
C    -2.0317320   -3.2203810   -1.6658120  
O    -2.1634390   -4.4010770   -1.9608200  
C    -0.7541720   -2.5344460   -1.6546930  
H     1.3955810   -0.5099370   -1.4203590  
H     0.1319950   -3.0920040   -1.9412320  
H    -2.0889490    1.5593930   -0.2441860  
C     4.0940600    1.8418370    0.1487910  
C     3.9952000    3.2097410    0.2141190  
C     2.6140410    3.5543290    0.0217790  
C     1.8883100    2.2773710   -0.1852220  
N     2.8288920    1.2963000   -0.1127730  
C     0.5255510    2.1657200   -0.3996710  
C    -0.2439520    3.4171300   -0.2956800  
O    -1.4703090    3.4620300   -0.3030580  
C     0.5201890    4.7819580   -0.1647700  
O    -0.1314130    5.8144750   -0.2033570  
C     1.9655180    4.7550790    0.0104670  
H     4.8041550    3.9037290    0.3899630  
H     2.4805970    5.7025370    0.1330200  
H     2.6694390    0.2981190   -0.0782300  
C     5.1999080    0.9367920    0.2973090  
C     6.5235000    1.1927200    0.5398710  
C     7.1572620   -0.1035860    0.5934990  
C     6.0416050   -1.0772260    0.3572520  
N     4.9045460   -0.4630210    0.1848330  
C     6.2701600   -2.4960340    0.3366920  
C     7.5383310   -2.9298710    0.5383270  
O     7.8980900   -4.2170980    0.5458530  
C     8.6864910   -1.9737220    0.7785130  
O     9.8010110   -2.4654590    0.9509670  
C     8.4278050   -0.5288450    0.7957870  
H     7.0045790    2.1525860    0.6654580  
H     5.4476700   -3.1811740    0.1649590  
H     8.8675370   -4.2198860    0.7140400  
H     9.2740070    0.1279770    0.9714240  
