62


C     3.1813950   -3.9458490    1.7951920  
C     3.0406340   -2.6383700    1.4009630  
C     4.0996940   -2.3595050    0.4749700  
C     4.8637260   -3.5498790    0.3555560  
N     4.2773660   -4.4984080    1.1671640  
C     6.0015320   -3.6516820   -0.4516520  
C     6.3860000   -2.5250650   -1.1613700  
O     7.4764390   -2.5782290   -1.9763870  
C     5.6523850   -1.3169670   -1.0613270  
O     6.1580220   -0.3075660   -1.8500890  
C     4.5096490   -1.2024300   -0.2519710  
H     2.2716960   -1.9619070    1.7427600  
H     4.6029220   -5.4452030    1.2841020  
H     6.5769950   -4.5668020   -0.5471640  
H     7.5458270   -1.7147040   -2.4202510  
H     5.5147950    0.4245990   -1.8977550  
H     2.5825830   -4.5338020    2.4761660  
C     3.7582400    0.0400570   -0.1864940  
C     2.4170720    0.2595370   -0.0230240  
C     2.1686360    1.6786770   -0.0415980  
C     3.4847300    2.3176240   -0.2367960  
N     4.4217540    1.2852120   -0.3939040  
C     3.7015810    3.6519350   -0.2770190  
C     2.5452650    4.5366720   -0.1509270  
O     2.6320510    5.7523670   -0.2141260  
C     1.1305160    3.8881640    0.0696100  
O     0.1877810    4.6296640    0.2835060  
C     1.0121060    2.4096910    0.0709980  
H     1.6604490   -0.5083900    0.0260910  
H     4.6788320    4.0982190   -0.4344370  
H     5.3513500    1.4120930   -0.0060580  
C    -0.4877180   -0.2405780    3.2819540  
C    -1.7775350   -0.3663670    2.8359430  
C    -1.8864240    0.4004520    1.6269930  
C    -0.6075900    0.9644570    1.3805580  
N     0.2234650    0.5552840    2.4033220  
C    -0.3139750    1.7947380    0.2796390  
C    -1.3788170    2.0397410   -0.5924300  
O    -1.1775530    2.8075480   -1.6950750  
C    -2.6581760    1.4797870   -0.3701070  
O    -3.5904400    1.8365380   -1.3348160  
C    -2.9501450    0.6535440    0.7171910  
H    -2.5565900   -0.9450680    3.3101380  
H     1.1781040    0.8567310    2.5207360  
H    -2.0507430    2.9557130   -2.1004200  
H    -4.4743870    1.8413770   -0.9350350  
H    -0.0091540   -0.6536130    4.1586570  
C    -4.9887070   -0.0097130    2.0935940  
C    -4.2886410    0.0907640    0.9258730  
C    -5.1526540   -0.6032950   -0.0601580  
C    -6.3401780   -1.0380140    0.7325440  
N    -6.2361850   -0.6812850    1.9829800  
C    -7.4281490   -1.7626660    0.1302020  
C    -7.3338130   -2.0723160   -1.1853350  
O    -8.2686920   -2.7507130   -1.8720110  
C    -6.1396940   -1.6716770   -2.0037800  
O    -6.1243300   -1.9899770   -3.1918150  
C    -5.0414050   -0.9110400   -1.3673080  
H    -8.2818080   -2.0544860    0.7319560  
H    -7.9200780   -2.8196880   -2.7878400  
H    -4.2056290   -0.6252750   -1.9970700  
H    -4.6934140    0.3749760    3.0620880  
