60


C     5.9303100   -1.5272150   -0.9160880  
C     7.1551360   -0.9303740   -0.8401140  
C     6.9530900    0.4046330   -0.3475560  
C     5.5610490    0.5761430   -0.1501070  
N     4.9359060   -0.6271230   -0.5040800  
C     5.0184690    1.7541370    0.3745050  
C     5.8966560    2.7834170    0.6777690  
O     5.4151080    3.9543530    1.1807580  
C     7.2937040    2.6336090    0.4705670  
O     8.0327840    3.7447680    0.8207910  
C     7.8272750    1.4619730   -0.0330450  
H     8.0960080   -1.3798000   -1.1281910  
H     3.9561300    1.9045360    0.5164650  
H     6.1712000    4.5553620    1.2958280  
H     8.9622820    3.6053000    0.5866200  
H     8.9013100    1.3588080   -0.1733580  
H     5.6450570   -2.4960790   -1.3008120  
C     3.1049840   -3.9751220    1.4698900  
C     1.8022720   -3.7491020    1.1331030  
C     1.7587600   -2.5587370    0.3224730  
C     3.1534740   -2.0993280    0.2226990  
N     3.9268100   -3.0184900    0.9073360  
C     3.5761300   -0.9556840   -0.4014800  
C     2.5385180   -0.1226260   -1.0315500  
O     2.7849360    0.9158860   -1.6161840  
C     1.0399020   -0.6164560   -0.9826100  
O     0.2364990    0.0463970   -1.6095370  
C     0.7031900   -1.8604140   -0.2461950  
H     0.9573420   -4.3383460    1.4505070  
H     3.5276510   -4.7596290    2.0833270  
H     4.9146710   -2.9038610    1.0808560  
C    -0.6703690   -2.3070120   -0.1697710  
C    -1.1623700   -3.5885160   -0.1041420  
C    -2.5928920   -3.4599270   -0.0307510  
C    -2.8393140   -1.9804040   -0.0504470  
N    -1.7229990   -1.3249300   -0.1280290  
C    -4.1839140   -1.4029820    0.0273840  
C    -5.2083180   -2.3233340    0.1065170  
O    -6.5049870   -2.0319670    0.1448790  
C    -4.9689360   -3.8186960    0.1226770  
O    -5.9696770   -4.5374110    0.1960990  
C    -3.6115270   -4.3465810    0.0531050  
H    -0.6123090   -4.5155960   -0.1747840  
H    -6.9544480   -2.9104590    0.1936640  
H    -3.4885540   -5.4248240    0.0795380  
C    -4.3727840    0.0349050   -0.0041380  
C    -3.4569120    1.0033650   -0.3289050  
C    -4.1587040    2.2594000   -0.2089510  
C    -5.5403680    1.8745870    0.2239920  
N    -5.6665880    0.5895560    0.3417590  
C    -6.5589360    2.8677950    0.4657630  
C    -6.2251330    4.1653020    0.2793100  
O    -7.0632110    5.1985270    0.4606220  
C    -4.8403520    4.5824230   -0.1624690  
O    -4.6394310    5.7903890   -0.3019120  
C    -3.8191140    3.5568270   -0.3970090  
H    -2.4282000    0.8553220   -0.6178300  
H    -7.5511040    2.5642530    0.7808590  
H    -6.5281200    5.9964600    0.2471020  
H    -2.8348220    3.8919050   -0.7093860  
