60


C    -4.8499520    1.3780400    1.4818280  
C    -4.6286390    0.5268310    0.4056230  
C    -5.8303850   -0.2778550    0.2770150  
C    -6.7147990    0.1303470    1.3053170  
N    -6.0898470    1.1405120    2.0158150  
C    -7.9728420   -0.4486420    1.5113800  
C    -8.3505310   -1.4672460    0.6521790  
O    -9.5659930   -2.0630400    0.7934020  
C    -7.4769190   -1.8949360   -0.3848100  
O    -7.9940060   -2.9137960   -1.1583950  
C    -6.2349350   -1.3234860   -0.5771510  
H    -6.5146740    1.6773980    2.7564480  
H    -8.6470350   -0.1291180    2.2992060  
H    -9.6484440   -2.7220300    0.0818260  
H    -7.4213410   -3.0611680   -1.9261410  
H    -5.6026640   -1.6481240   -1.3962670  
H    -4.2392790    2.1911820    1.8493050  
C    -0.4629420    0.8209690    1.6816980  
C     0.1520150    0.8126310    0.4600420  
C    -0.8778120    0.6920390   -0.5567610  
C    -2.1507680    0.6430010    0.1787000  
N    -1.8272250    0.7666570    1.5304020  
C    -3.3947360    0.4957020   -0.3765780  
C    -3.4060880    0.3448810   -1.8561820  
O    -4.4284540    0.1669890   -2.4942950  
C    -2.0475630    0.4230180   -2.6590490  
O    -2.0952960    0.3012640   -3.8737260  
C    -0.8123800    0.6113250   -1.9156800  
H     0.1200150    0.6665470   -2.4680360  
H    -0.0138390    0.8759880    2.6647330  
H    -2.4940960    0.5925460    2.2691260  
C     2.3550870   -0.1350050   -0.2042290  
C     3.6394380    0.2809710   -0.3875180  
C     3.6901230    1.7012220   -0.0774250  
C     2.3076580    2.0773620    0.2928310  
N     1.5403420    0.9112150    0.2254310  
C     1.9253590    3.3319550    0.6329800  
C     2.9392760    4.3870720    0.6505850  
O     2.6856190    5.5440720    0.9440290  
C     4.4179430    4.0016900    0.2804710  
O     5.2794490    4.8647770    0.2992260  
C     4.7017610    2.6067350   -0.0779640  
H     0.9053330    3.5915220    0.8946450  
H     5.7254060    2.3478020   -0.3301710  
H     1.9334580   -1.1226750   -0.3328770  
C     5.5362100   -0.2831300   -1.9034270  
C     6.5287050   -1.1993770   -2.0030980  
C     6.3966180   -2.1060060   -0.8814660  
C     5.2263350   -1.6317330   -0.1024450  
N     4.7335060   -0.5129110   -0.7740550  
C     4.7782870   -2.2161640    1.0365460  
C     5.4830660   -3.3934920    1.5386350  
O     5.1508240   -3.9809190    2.5567040  
C     6.7192490   -3.9205500    0.7229560  
O     7.3138920   -4.9092160    1.1212090  
C     7.1081310   -3.1954920   -0.4906820  
H     7.2782840   -1.2490300   -2.7795260  
H     3.9253910   -1.8518120    1.5988290  
H     7.9685280   -3.5621690   -1.0421790  
H     5.2954190    0.5477160   -2.5532230  
