62


C     3.5670310    2.0232130    0.1033100  
C     3.2787530    3.2806350   -0.3609430  
C     1.9178970    3.2500530   -0.8155630  
C     1.4354880    1.9298090   -0.6265520  
N     2.4668190    1.1932770   -0.0780610  
C     0.1152080    1.5305540   -0.9521630  
C    -0.7192130    2.5523770   -1.4442720  
O    -2.0264870    2.2924560   -1.7522380  
C    -0.2407870    3.8648490   -1.6539280  
O    -1.1912410    4.7167830   -2.1798690  
C     1.0620090    4.2232820   -1.3591090  
H     3.9642450    4.1147180   -0.4009830  
H     2.3472810    0.3180220    0.4115970  
H    -2.4306790    3.1377810   -2.0223710  
H    -0.8921290    5.6351400   -2.1059690  
H     1.4069770    5.2400070   -1.5316270  
C    -0.3433300    0.1624820   -0.7627190  
C     0.3762310   -1.0060270   -0.6401740  
C    -0.5477130   -2.0900810   -0.4511410  
C    -1.8964880   -1.4760180   -0.4634220  
N    -1.7094530   -0.1339520   -0.6526280  
C    -3.0587720   -2.1831100   -0.3020900  
C    -2.9599690   -3.6438000   -0.1683330  
O    -3.9429160   -4.3639970   -0.0820620  
C    -1.5300260   -4.3003030   -0.1606510  
O    -1.4597800   -5.5143960   -0.0414970  
C    -0.3695700   -3.4346420   -0.3071850  
H     1.4415430   -1.1243550   -0.7647020  
H     0.6122840   -3.8970320   -0.3019090  
H    -2.4315830    0.5622160   -0.7735710  
C    -5.4398330   -2.0519980   -1.0221810  
C    -6.5406150   -1.2926590   -0.8072780  
C    -6.1830310   -0.2669640    0.1457240  
C    -4.7547950   -0.4994010    0.4839080  
N    -4.3382240   -1.5850480   -0.2832720  
C    -4.0646070    0.2314950    1.3995700  
C    -4.7442110    1.3433200    2.0612470  
O    -4.1952060    2.0567580    2.8877250  
C    -6.2409830    1.6325630    1.6812940  
O    -6.8115700    2.5790970    2.2016320  
C    -6.8893610    0.7449780    0.7150250  
H    -7.5115750   -1.4333550   -1.2595690  
H    -3.0394140    0.0246530    1.6828360  
H    -7.9355250    0.9261760    0.4873250  
H    -5.3126450   -2.9190780   -1.6520290  
C     5.4539930    2.2155490    1.6868840  
C     6.5136930    1.4536770    2.0847610  
C     6.4634270    0.2246220    1.3400930  
C     5.3365190    0.2988220    0.4850330  
N     4.7171810    1.5312400    0.7162040  
C     5.0081280   -0.7192950   -0.4193430  
C     5.8166620   -1.8466200   -0.4357330  
O     5.5339140   -2.8676050   -1.2945440  
C     6.9376540   -1.9471880    0.4290410  
O     7.6392440   -3.1285200    0.2960310  
C     7.2699020   -0.9289620    1.3040330  
H     7.2435210    1.7283150    2.8339730  
H     4.1774090   -0.6504490   -1.1124350  
H     6.2115020   -3.5532200   -1.1631460  
H     8.3919980   -3.1314010    0.9056010  
H     8.1421310   -1.0192380    1.9483190  
H     5.1169840    3.1865960    2.0186840  
