62


C     1.2043860   -1.4445890    0.2744010  
C     0.5267860   -0.2442420    0.0936460  
C     1.5554670    0.7721570   -0.0637840  
C     2.8047750    0.1177770    0.0469160  
N     2.5532670   -1.2304480    0.2409700  
C     4.0544120    0.7683620   -0.0065870  
C     4.0096580    2.1513240   -0.1789450  
O     5.1621650    2.8649810   -0.2815490  
C     2.7659270    2.8297860   -0.2811700  
O     2.8953350    4.1950430   -0.4557410  
C     1.5538290    2.1709120   -0.2257330  
H     3.2690980   -1.9379070    0.3172210  
H     4.9086270    3.7952710   -0.4144500  
H     2.0306850    4.5734940   -0.6748250  
H     0.6252330    2.7184930   -0.3430090  
H     0.8053270   -2.4445800    0.3617320  
C    -2.6487280   -2.3157100    2.3971510  
C    -1.4664340   -1.8154800    1.9581150  
C    -1.7542220   -0.8750950    0.8908510  
C    -3.2229770   -0.8523220    0.7586480  
N    -3.7057280   -1.7473930    1.6900980  
C    -3.9476480   -0.0877490   -0.1251280  
C    -3.1715270    0.8293940   -0.9606820  
O    -3.6743630    1.6809620   -1.6757540  
C    -1.5981580    0.7792400   -0.8894130  
O    -0.9847810    1.5002060   -1.6571120  
C    -0.9246910   -0.1236850    0.0840090  
H    -0.4901260   -2.0491470    2.3530720  
H    -2.8482510   -3.0330810    3.1817140  
H    -4.6790130   -1.9912460    1.7876130  
C    -7.1735940    0.6137150    2.8017430  
C    -8.2512610    0.4079440    2.0030800  
C    -7.7565350    0.0678570    0.6840060  
C    -6.2806100    0.0872690    0.7842710  
N    -5.9846470    0.3718420    2.1141440  
C    -5.4122150   -0.1243810   -0.2483300  
C    -6.0258140   -0.4573480   -1.5593510  
O    -5.3648800   -0.7978790   -2.5227100  
C    -7.5936230   -0.4453350   -1.6907940  
O    -8.0883300   -0.6496490   -2.7887600  
C    -8.3889210   -0.1970580   -0.4917340  
H    -9.2892520    0.4838920    2.2933030  
H    -9.4701630   -0.2026280   -0.5892550  
H    -7.1384100    0.9001740    3.8448770  
H    -5.0832340    0.7246150    2.4032230  
C     5.6966040   -2.3236220   -2.6797960  
C     6.8445180   -2.5974310   -1.9829350  
C     6.8516640   -1.7449410   -0.8265650  
C     5.6635510   -0.9714230   -0.8759600  
N     4.9689360   -1.3575970   -2.0069780  
C     5.3237260    0.0042640    0.0853930  
C     6.2360190    0.1825080    1.1254460  
O     5.9749040    1.0842920    2.1129680  
C     7.4300680   -0.5838970    1.1905640  
O     8.2165840   -0.2893510    2.2914650  
C     7.7454910   -1.5385740    0.2427490  
H     7.5981780   -3.3220530   -2.2596310  
H     4.1492950   -0.8871120   -2.3602620  
H     6.7482740    1.0907990    2.7031170  
H     9.0574880   -0.7644180    2.2208910  
H     8.6672450   -2.1117030    0.3231210  
H     5.3235780   -2.7442870   -3.6030330  
