62


C     4.7341250   -1.9335030   -1.4528030  
C     4.8157870   -0.7115060   -0.8124310  
C     6.1121780   -0.6765590   -0.1724490  
C     6.7579840   -1.9036740   -0.4641160  
N     5.8936870   -2.6492780   -1.2427680  
C     8.0362240   -2.2222730    0.0128580  
C     8.6748410   -1.2788600    0.8008320  
O     9.9231240   -1.5309150    1.2890440  
C     8.0405140   -0.0441010    1.1071900  
O     8.8043330    0.7891830    1.9029930  
C     6.7787570    0.2635980    0.6381320  
H     6.1080220   -3.5423350   -1.6580600  
H     8.5326540   -3.1609010   -0.2112070  
H    10.1961970   -0.7476970    1.7974920  
H     8.3440160    1.6333500    2.0197550  
H     6.3204060    1.2208340    0.8692020  
H     3.9540420   -2.3229130   -2.0927050  
C     0.5740070   -1.1875120    0.1266450  
C     0.1594600    0.1227160   -0.0577990  
C     1.3396880    0.8766390   -0.4360820  
C     2.4186580   -0.0371820   -0.4607460  
N     1.9136990   -1.2808310   -0.1184860  
C     3.7490730    0.3044610   -0.7822430  
C     3.9595930    1.6527330   -1.0808620  
O     5.2085180    2.0923760   -1.4099620  
C     2.8881550    2.5844040   -1.0805290  
O     3.2739770    3.8651560   -1.4248140  
C     1.5891910    2.2212500   -0.7750870  
H     2.4911600   -2.0985020    0.0157060  
H     5.1229620    3.0286320   -1.6630930  
H     2.4906760    4.4095020   -1.5944350  
H     0.7894370    2.9555830   -0.8242530  
H     0.0011400   -2.0462050    0.4460480  
C    -1.1888530    0.5970510    0.1260730  
C    -2.3893840   -0.0657440    0.0221730  
C    -3.4459760    0.8516980    0.3404480  
C    -2.7839430    2.1411910    0.6512850  
N    -1.4263310    1.9402390    0.4564920  
C    -3.4249760    3.2738530    1.0297080  
C    -4.8809000    3.2484290    1.1068510  
O    -5.5477310    4.2243230    1.4147300  
C    -5.6161320    1.9010090    0.7774600  
O    -6.8245690    1.8473640    0.9378820  
C    -4.8154350    0.7313070    0.3574260  
H    -2.5141540   -1.0839850   -0.3144970  
H    -2.9134170    4.2069890    1.2459630  
H    -0.7198550    2.5236870    0.8807730  
C    -4.7847440   -3.4057950    2.0290250  
C    -4.5339790   -2.0959390    1.7788030  
C    -5.3643930   -1.7014230    0.6561770  
C    -6.1350290   -2.9089380    0.2745000  
N    -5.7156890   -3.9138400    1.1262430  
C    -7.0758640   -2.9593160   -0.7047150  
C    -7.3498580   -1.7433200   -1.4537380  
O    -8.1958740   -1.6701060   -2.3326610  
C    -6.4968480   -0.4648420   -1.1237760  
O    -6.6035480    0.5065680   -1.8489290  
C    -5.5358540   -0.5050260    0.0146490  
H    -3.8488790   -1.4593800    2.3173900  
H    -7.6450120   -3.8530610   -0.9415410  
H    -4.3700490   -4.0514160    2.7920290  
H    -6.1391580   -4.8267560    1.1816390  
