60


C     2.1450530   -1.5629150    0.0178030  
C     2.5627340   -2.8991180    0.0356610  
C     3.9731690   -2.9013160    0.0206540  
C     4.3980420   -1.5301490   -0.0079280  
N     3.2755890   -0.7550140   -0.0072170  
C     5.7497640   -1.1632910   -0.0306800  
C     6.6842240   -2.1841150   -0.0237580  
O     8.0063990   -1.8909580   -0.0447300  
C     6.2793720   -3.5600550    0.0056180  
O     7.3423250   -4.4339900    0.0086560  
C     4.9547150   -3.9241750    0.0277110  
H     1.9074510   -3.7589630    0.0589710  
H     3.2073140    0.2536480   -0.0322710  
H     6.0798330   -0.1305020   -0.0524630  
H     8.4978760   -2.7315720   -0.0350910  
H     7.0204060   -5.3477710    0.0293700  
H     4.6658280   -4.9723720    0.0496020  
C     0.8581980   -0.9667120    0.0189210  
C    -0.4045440   -1.5325640    0.0176780  
C    -1.3172150   -0.4445720    0.0084150  
C    -0.4398050    0.7814500    0.0046010  
N     0.8228200    0.4652560    0.0114690  
C    -0.9823450    2.1234070   -0.0046880  
C    -2.3438300    2.2071250   -0.0440050  
O    -3.0100880    3.3555850   -0.0997310  
C    -3.2596910    0.9963700   -0.0419370  
O    -4.4672310    1.2501390   -0.0034190  
C    -2.6922990   -0.3475390   -0.0386390  
H    -0.6513440   -2.5838340    0.0219550  
H    -3.9634400    3.0922080   -0.0835140  
C     2.4326350    3.7694950   -2.4157830  
C     1.4429300    2.9522130   -1.9873130  
C     0.8982670    3.6023100   -0.7983370  
C     1.7180070    4.8473520   -0.6645490  
N     2.6094320    4.9404620   -1.6094950  
C     1.4886600    5.8009960    0.3900160  
C     0.4994200    5.5332220    1.2714000  
O     0.1784110    6.3231150    2.3097060  
C    -0.3320290    4.2806510    1.1803420  
O    -1.1499170    4.0883170    2.0749320  
C    -0.1175140    3.3176710    0.0547040  
H     1.1168200    2.0144390   -2.4108250  
H     2.0991470    6.6945660    0.4573890  
H    -0.5473210    5.8544970    2.7775810  
H     3.0788410    3.6379860   -3.2757900  
C    -3.3787090   -4.0069680    2.4731050  
C    -2.8518930   -2.8454480    2.0150710  
C    -3.6154250   -2.5296410    0.8129220  
C    -4.5970050   -3.6528570    0.7068240  
N    -4.4540960   -4.5109330    1.6777630  
C    -5.5766360   -3.7113920   -0.3468770  
C    -5.5839580   -2.7086140   -1.2540670  
O    -6.4307360   -2.6383440   -2.2942160  
C    -4.5925370   -1.5771410   -1.1978000  
O    -4.6018620   -0.7790830   -2.1295380  
C    -3.6084170   -1.4963250   -0.0705010  
H    -2.0452620   -2.2643230    2.4375270  
H    -6.2751410   -4.5394290   -0.3936400  
H    -6.1689630   -1.8316870   -2.7899430  
H    -3.0846890   -4.5676580    3.3527370  
