64


C     3.4496110   -0.3079360    0.1553640  
C     2.2199240    0.2218310   -0.1508770  
C     2.1893630    1.5850810    0.2960200  
C     3.4579480    1.8538750    0.8650010  
N     4.2426900    0.7117970    0.7245240  
C     3.8095660    3.0893450    1.4093580  
C     2.8595270    4.0981240    1.3423590  
O     3.1356440    5.3334900    1.8424340  
C     1.5938220    3.8757230    0.7428870  
O     0.7638170    4.9780960    0.7721170  
C     1.2183750    2.6240790    0.2335830  
H     1.4359640   -0.3033410   -0.6732770  
H     4.9676660    0.4870960    1.3953170  
H     4.7818040    3.2870320    1.8491970  
H     2.3407640    5.8704770    1.6603420  
H     0.3929720    5.1026980   -0.1274630  
C    -1.8255080   -0.4562390    1.0640270  
C    -2.8337920   -0.1443070    0.1993130  
C    -2.3283700    1.0595090   -0.5047920  
C    -0.9745820    1.2896380    0.0695710  
N    -0.6987790    0.4021900    0.9828220  
C    -0.1264990    2.4114810   -0.3413840  
C    -0.7089610    3.2670520   -1.2306090  
O    -0.0926610    4.3916800   -1.7005590  
C    -2.0644800    3.0803900   -1.8001470  
O    -2.4703610    3.9176350   -2.6132570  
C    -2.8679530    1.9118710   -1.3927030  
H    -0.7454790    4.7830250   -2.3276870  
H    -3.8465880    1.7917260   -1.8414770  
H    -1.7857260   -1.2893640    1.7559380  
C    -5.5167640   -1.6774460    3.3319950  
C    -6.5009130   -2.1707920    2.5164420  
C    -6.0994800   -1.9037230    1.1644990  
C    -4.8440530   -1.2457440    1.2242580  
N    -4.5097610   -1.1326430    2.5570020  
C    -4.1420260   -0.7902430    0.0807020  
C    -4.7707250   -1.0334160   -1.1474520  
O    -4.1654940   -0.6558910   -2.3132730  
C    -6.0210950   -1.6961920   -1.2214680  
O    -6.4825970   -1.8558630   -2.5159230  
C    -6.6876670   -2.1353390   -0.0937290  
H    -7.4066820   -2.6658640    2.8383120  
H    -3.7139790   -0.6186100    2.9030220  
H    -4.7369590   -0.9598520   -3.0408120  
H    -7.2862230   -2.3962120   -2.5102540  
H    -7.6484540   -2.6385290   -0.1805540  
H    -5.4382230   -1.6753090    4.4099460  
C     1.6178650   -4.3975240    0.3202360  
C     1.8280520   -3.0447220    0.3896260  
C     3.1943630   -2.8091180    0.0146190  
C     3.7708370   -4.0755150   -0.2653660  
N     2.7854730   -5.0235500   -0.0769650  
C     5.1104610   -4.2399520   -0.6380520  
C     5.8853190   -3.0948400   -0.7314860  
O     7.1957210   -3.1872750   -1.1063570  
C     5.3368030   -1.8176650   -0.4560660  
O     6.2414010   -0.7815800   -0.6111890  
C     3.9999550   -1.6415550   -0.0847760  
H     1.1031290   -2.3013730    0.6878350  
H     2.9044500   -6.0166860   -0.1978790  
H     5.5505070   -5.2079250   -0.8551590  
H     7.5353090   -2.2765870   -1.1593790  
H     5.7537240    0.0623850   -0.6174970  
H     0.7273580   -4.9760790    0.5221820  
