60


C     2.0582320   -1.1297870   -1.3855480  
C     2.2214130   -2.4702800   -1.2122770  
C     3.3941040   -2.6596900   -0.3976040  
C     3.9271360   -1.3781970   -0.1187820  
N     3.0882620   -0.4312060   -0.7343890  
C     5.0398340   -1.2000610    0.7090650  
C     5.6416710   -2.3362330    1.2320760  
O     6.7351840   -2.2079240    2.0338390  
C     5.1320110   -3.6271240    0.9421030  
O     5.8355470   -4.6542400    1.5314740  
C     4.0161680   -3.7982430    0.1389440  
H     1.5956910   -3.2425820   -1.6391890  
H     5.4670260   -0.2308580    0.9284140  
H     7.0266530   -3.1031150    2.2781100  
H     5.4670740   -5.5062570    1.2542160  
H     3.6248480   -4.7940390   -0.0583390  
H     1.3407420   -0.5826120   -1.9777250  
C    -0.0094100    2.6284780   -0.1132430  
C     0.7065780    1.4408170   -0.1993460  
C     2.0574820    1.7543180   -0.5191110  
C     2.1341570    3.2272430   -0.6101530  
N     0.8596500    3.6877890   -0.3797140  
C     3.2702200    3.9377440   -0.8461680  
C     4.5098140    3.2093070   -1.0279170  
O     5.5980200    3.7382810   -1.1955030  
C     4.4676740    1.6337880   -1.0026800  
O     5.4820720    1.0180510   -1.2709420  
C     3.1760750    0.9597730   -0.6959900  
H     0.3244710    0.4592120    0.0223990  
H     3.2953600    5.0215510   -0.8867600  
H     0.5754580    4.6510770   -0.2588710  
C    -3.6402300   -0.0301540    0.1632740  
C    -2.3636910    0.4313950   -0.1210680  
C    -2.3472250    1.8070230    0.2530320  
C    -3.7258320    2.0553040    0.7630700  
N    -4.4732150    0.9866330    0.7143950  
C    -4.1423360    3.3465540    1.2367760  
C    -3.2566450    4.3662750    1.1530800  
O    -3.5344130    5.6277770    1.5194140  
C    -1.8693870    4.1723820    0.6160040  
O    -1.1679990    5.1899570    0.5353010  
C    -1.3951740    2.8175870    0.2280290  
H    -1.5907580   -0.1207900   -0.6310330  
H    -5.1488810    3.4879010    1.6140140  
H    -2.7235560    6.1470880    1.3303060  
C    -1.8398200   -4.1180580    0.2381210  
C    -1.9800410   -2.7639480    0.3272090  
C    -3.3675410   -2.5037320    0.0179290  
C    -3.9383670   -3.8705820   -0.2230760  
N    -3.0319640   -4.8046660   -0.0998000  
C    -5.3241920   -4.0721270   -0.5255590  
C    -6.1206800   -2.9775100   -0.5804720  
O    -7.4293770   -3.0204480   -0.8567580  
C    -5.5899220   -1.5766430   -0.3764240  
O    -6.3891270   -0.6662210   -0.5536840  
C    -4.1421120   -1.3691900   -0.0420050  
H    -1.2232540   -2.0456470    0.6029150  
H    -5.7049100   -5.0727290   -0.6978890  
H    -7.7249830   -2.0817680   -0.8662970  
H    -0.9391340   -4.6967290    0.4094320  
