64


C    -6.1728060   -1.0949270    2.8930360  
C    -7.3416080   -1.0220560    2.1801200  
C    -6.9898950   -0.6716970    0.8340850  
C    -5.5740100   -0.5514500    0.7910850  
N    -5.1090890   -0.8002510    2.0652200  
C    -4.8521310   -0.1894020   -0.3713730  
C    -5.6416830    0.0641650   -1.4923950  
O    -5.0440540    0.4578860   -2.6783280  
C    -7.0514090   -0.0508250   -1.4745120  
O    -7.6456300    0.2380920   -2.6917430  
C    -7.7355970   -0.4193210   -0.3333850  
H    -8.3372400   -1.1861050    2.5686670  
H    -4.1324540   -0.8606830    2.3113160  
H    -5.7595140    0.5719670   -3.3303340  
H    -8.6058350    0.1390240   -2.6150000  
H    -8.8207920   -0.4972420   -0.3372880  
H    -6.0054440   -1.3285920    3.9351340  
C    -1.5620960   -2.8857090    1.1071320  
C    -2.7740220   -2.3757420    0.7175570  
C    -2.5314950   -1.0615070    0.1796900  
C    -1.1317600   -0.8445870    0.2578380  
N    -0.5690280   -1.9683460    0.8291060  
C    -0.4909130    0.3297920   -0.1955970  
C    -1.3329710    1.2843600   -0.7626840  
O    -0.8164910    2.4397050   -1.2681780  
C    -2.7383190    1.0946250   -0.8480480  
O    -3.4007730    2.1630210   -1.4166440  
C    -3.3735790   -0.0508630   -0.3668130  
H    -3.7240600   -2.8866190    0.7765310  
H     0.4104110   -2.0701690    1.0537010  
H    -1.5849150    2.9274500   -1.6252990  
H    -4.0528920    1.8017240   -2.0565140  
H    -1.3184940   -3.8413510    1.5496890  
C     1.8859780   -0.4585860   -0.4307080  
C     0.9674100    0.4860840   -0.0904320  
C     1.7251300    1.5986210    0.4812350  
C     3.1524760    1.1924020    0.4597400  
N     3.1960190   -0.0665340   -0.1270730  
C     4.1720240    1.9454200    0.9541240  
C     3.8578090    3.2488290    1.5293360  
O     4.7071130    3.9943100    1.9961410  
C     2.3545270    3.7053210    1.5442340  
O     2.0724770    4.7973890    2.0121990  
C     1.3434790    2.7930780    0.9987050  
H     5.2039730    1.6126060    0.9707800  
H     0.3088350    3.1149900    1.0141040  
H     1.7291680   -1.4185330   -0.9017200  
C     7.0181780    0.5660950   -2.1881010  
C     7.5662190   -0.6549370   -1.8963260  
C     6.6011310   -1.3765480   -1.1156080  
C     5.4752060   -0.5233540   -0.9692940  
N     5.7495830    0.6464610   -1.6421880  
C     4.3257720   -0.9125240   -0.2566260  
C     4.3206170   -2.1892210    0.3052690  
O     3.2314250   -2.6247480    1.0146590  
C     5.4326940   -3.0515930    0.1452660  
O     5.2607720   -4.2829000    0.7504650  
C     6.5642980   -2.6650670   -0.5485760  
H     8.5420010   -1.0041940   -2.2038230  
H     5.1635950    1.4674860   -1.6387210  
H     3.4584200   -3.5109600    1.3492820  
H     6.0956910   -4.7735790    0.7336810  
H     7.4027630   -3.3491350   -0.6589840  
H     7.4237410    1.3973190   -2.7470860  
