62


C     4.5504210   -0.2725750    0.2049490  
C     4.1401550   -1.5925510    0.0657370  
C     5.3074760   -2.3921630   -0.1354980  
C     6.4199090   -1.5081640   -0.1127140  
N     5.9315760   -0.2370050    0.0829750  
C     7.7396110   -1.9507980   -0.2703930  
C     7.9404190   -3.3095150   -0.4528590  
O     9.2051710   -3.7955670   -0.6106650  
C     6.8389440   -4.2095350   -0.4782030  
O     7.2051180   -5.5284880   -0.6698380  
C     5.5382510   -3.7712430   -0.3240560  
H     3.1321470   -1.9620620    0.1964020  
H     6.4756940    0.5919460    0.2712090  
H     8.5918790   -1.2795100   -0.2533610  
H     9.1324010   -4.7596030   -0.7183650  
H     6.4154650   -6.0890880   -0.6565970  
H     4.7125420   -4.4799850   -0.3464970  
C     0.4174610    0.5924710   -0.9038230  
C     0.2891660    1.8611890   -0.3378270  
C     1.5939880    2.1731700    0.2306970  
C     2.4205160    1.0470560    0.0048890  
N     1.6716660    0.1141950   -0.6960100  
C     3.7649220    0.9395190    0.4260040  
C     4.2730960    2.0792490    1.0630240  
O     5.5803370    2.1141430    1.4705040  
C     3.4613050    3.2100460    1.3109760  
O     4.1244370    4.2261370    1.9688080  
C     2.1359490    3.2710480    0.9235230  
H     2.0714110   -0.7081750   -1.1266640  
H     5.7229350    2.9760130    1.9013530  
H     3.5314910    4.9840080    2.0812150  
H     1.5496070    4.1641330    1.1026130  
H    -0.3007640    0.0414560   -1.4929420  
C    -4.0319150    0.6928230   -0.2126010  
C    -2.6561190    0.6625060   -0.0882210  
C    -2.2014590    2.0015720   -0.3465960  
C    -3.4498510    2.7566740   -0.5986370  
N    -4.5102640    2.0011570   -0.5347780  
C    -3.4425490    4.1745340   -0.8662660  
C    -2.2500570    4.8086290   -0.8473560  
O    -2.0974550    6.1319660   -1.0459280  
C    -0.9622770    4.0816910   -0.5836580  
O     0.0606630    4.7686010   -0.5678700  
C    -0.9579240    2.5975440   -0.3844810  
H    -2.0464660   -0.1815650    0.2005020  
H    -4.3741460    4.6971520   -1.0523300  
H    -1.1315630    6.2930860   -0.9794390  
C    -4.9470250   -0.3992750   -0.0366560  
C    -4.6496130   -1.7088500    0.2748660  
C    -5.9088260   -2.3945660    0.3410090  
C    -6.9210940   -1.3287590    0.0318190  
N    -6.3635190   -0.1767140   -0.1869470  
C    -8.3325490   -1.6219150   -0.0015060  
C    -8.7158970   -2.8937200    0.2560540  
O    -9.9892480   -3.3146790    0.2609150  
C    -7.7186060   -3.9879270    0.5704460  
O    -8.1756110   -5.1125720    0.7892850  
C    -6.2915980   -3.6716410    0.5997350  
H    -3.6734840   -2.1440560    0.4387700  
H    -9.0447110   -0.8360400   -0.2269450  
H    -9.9375550   -4.2732110    0.4790470  
H    -5.6057730   -4.4814000    0.8294070  
