66


C     0.1788790    2.0815150   -0.8314030  
C    -1.1684390    1.8263200   -0.8621170  
C    -1.3258060    0.4037780   -0.7352060  
C    -0.0285670   -0.1496160   -0.5978700  
N     0.8754970    0.8981530   -0.6447080  
C     0.2318830   -1.5302340   -0.4418600  
C    -0.9102480   -2.3426630   -0.4789910  
O    -0.7878810   -3.7109510   -0.4005130  
C    -2.2105600   -1.8076500   -0.6017730  
O    -3.2010290   -2.7738120   -0.6150420  
C    -2.4637570   -0.4410310   -0.7181470  
H    -1.9522150    2.5671170   -0.9183290  
H     1.8606380    0.7810020   -0.8359840  
H    -1.6883820   -4.0739870   -0.4782230  
H    -4.0521050   -2.3484790   -0.8152670  
C     0.5785500    4.2476720   -1.9537300  
C     1.4190100    5.3161440   -1.8186910  
C     2.2898110    5.0357020   -0.7107850  
C     1.9203520    3.7655870   -0.1997840  
N     0.8672620    3.2892040   -0.9830280  
C     2.5430700    3.1912580    0.9161480  
C     3.5751250    3.9028060    1.5095330  
O     4.2188000    3.3854810    2.5978380  
C     3.9706220    5.1669040    1.0002620  
O     5.0154930    5.7484350    1.6950800  
C     3.3412830    5.7378160   -0.0906300  
H     1.4272210    6.1986920   -2.4437220  
H     2.2388200    2.2385890    1.3345410  
H     4.8827530    4.0398720    2.8751930  
H     5.2024320    6.6227980    1.3229050  
H     3.6531870    6.7138370   -0.4577470  
H    -0.2032790    4.0497190   -2.6722440  
C     1.5857350   -2.0527440   -0.2750800  
C     2.7388110   -1.4294260    0.1843900  
C     3.7965950   -2.3897030    0.1492880  
C     3.2386570   -3.5996510   -0.3456040  
N     1.9087710   -3.3629710   -0.6029940  
C     3.9943090   -4.7684600   -0.5057100  
C     5.3354680   -4.7160800   -0.1600280  
O     6.1193960   -5.8276230   -0.2952590  
C     5.9099410   -3.5147120    0.3357710  
O     7.2577490   -3.6220790    0.6341150  
C     5.1642890   -2.3620400    0.4921500  
H     2.8072020   -0.4286130    0.5863960  
H     1.2100470   -4.0479280   -0.8508020  
H     3.5727810   -5.6947460   -0.8824830  
H     7.0125440   -5.5834620    0.0023780  
H     7.5746310   -2.7777230    0.9869880  
H     5.6270060   -1.4539740    0.8744750  
C    -4.2860240    0.9420490   -1.8332120  
C    -3.8388600    0.0669410   -0.8649580  
C    -4.9944150   -0.2448420   -0.0439860  
C    -6.0972760    0.4708660   -0.5776300  
N    -5.6325670    1.1844480   -1.6638330  
C    -7.3792000    0.4173860   -0.0162780  
C    -7.5519580   -0.3705680    1.1106440  
O    -8.7803930   -0.4606580    1.6962190  
C    -6.4570700   -1.0840030    1.6690650  
O    -6.7860380   -1.8144500    2.7943470  
C    -5.1927720   -1.0298150    1.1133090  
H    -6.1922300    1.7860790   -2.2477400  
H    -8.2233740    0.9658710   -0.4216350  
H    -8.6867360   -1.0371660    2.4742920  
H    -5.9890520   -2.2306240    3.1551210  
H    -4.3680730   -1.5752960    1.5653640  
H    -3.7399730    1.3948210   -2.6483300  
