62


C    -1.6671720    5.4731820    1.8113800  
C    -0.7071560    6.4106330    1.5342840  
C     0.3161490    5.7507300    0.7746460  
C    -0.0883270    4.4034450    0.6088390  
N    -1.3067280    4.2667750    1.2389230  
C     0.6942660    3.4218810   -0.0539350  
C     1.9328160    3.8679990   -0.5524470  
O     2.7458100    3.0324930   -1.2479960  
C     2.3382770    5.2202330   -0.3995010  
O     3.5698400    5.4898150   -0.9683660  
C     1.5556170    6.1584620    0.2435020  
H    -0.7226660    7.4484010    1.8376340  
H    -1.7589950    3.3798340    1.4026200  
H     3.5265440    3.5521430   -1.5112440  
H     3.7896120    6.4244330   -0.8425970  
H     1.8966830    7.1871370    0.3421080  
H    -2.5926680    5.5617350    2.3625240  
C     0.2276720    2.0524250   -0.1977380  
C    -1.0648710    1.5991730   -0.3213240  
C    -0.9863480    0.1633020   -0.3722190  
C     0.4666250   -0.1264470   -0.2378940  
N     1.1614780    0.9706800   -0.1509650  
C     1.0131350   -1.4885610   -0.1899630  
C     0.0631670   -2.4838470   -0.2606930  
O     0.3102520   -3.7912130   -0.2337800  
C    -1.4190110   -2.2020980   -0.4047720  
O    -2.1433880   -3.2014490   -0.4518030  
C    -1.9347460   -0.8215220   -0.5012160  
H    -1.9624710    2.1913580   -0.4189270  
H    -0.5809780   -4.2092410   -0.3175610  
C     2.4376400   -1.7190860   -0.0772100  
C     3.4547930   -0.7963800   -0.1299630  
C     4.6741690   -1.5479910    0.0268460  
C     4.2203080   -2.9684530    0.1765960  
N     2.9296160   -3.0698340    0.1159230  
C     5.1629360   -4.0451020    0.3644320  
C     6.4775110   -3.7282240    0.3962600  
O     7.4697390   -4.6180050    0.5611580  
C     6.9648440   -2.3045860    0.2447400  
O     8.1846010   -2.1254600    0.2888020  
C     5.9913530   -1.2276990    0.0587120  
H     3.3509350    0.2688250   -0.2628100  
H     4.8099240   -5.0647660    0.4717790  
H     8.2937460   -4.0799640    0.5386470  
H     6.3767180   -0.2177830   -0.0427570  
C    -3.7699000    0.4509220   -1.6206620  
C    -3.3417480   -0.5705050   -0.7823340  
C    -4.5476520   -1.2298500   -0.3065650  
C    -5.6464780   -0.5459910   -0.8828710  
N    -5.1351460    0.4646520   -1.6815430  
C    -6.9813070   -0.8773400   -0.6255730  
C    -7.2187900   -1.9304190    0.2430160  
O    -8.4972580   -2.3056290    0.5280660  
C    -6.1337140   -2.6248250    0.8400950  
O    -6.5253310   -3.6473110    1.6817120  
C    -4.8184190   -2.2892280    0.5820180  
H    -5.6828650    1.0712910   -2.2725570  
H    -7.8163020   -0.3486650   -1.0736850  
H    -8.4454560   -3.0645580    1.1349150  
H    -5.7439700   -4.1327860    1.9857240  
H    -4.0111190   -2.8560370    1.0328750  
H    -3.1791770    1.1313900   -2.2163050  
