62


C    -3.8510290   -0.0391240    0.2069090  
C    -4.1069660   -1.2791590    0.8049260  
C    -5.3973600   -1.6984480    0.3990530  
C    -5.9136160   -0.6808430   -0.4599880  
N    -4.9637920    0.2989760   -0.5542480  
C    -7.1797580   -0.7675680   -1.0528370  
C    -7.9344360   -1.8962530   -0.7798580  
O    -9.1702710   -2.0362320   -1.3290400  
C    -7.4335150   -2.9260460    0.0747900  
O    -8.3133880   -3.9762660    0.2389690  
C    -6.1896760   -2.8416050    0.6596260  
H    -3.4142450   -1.8448430    1.4091620  
H    -4.9710740    1.1270230   -1.1369630  
H    -7.5771940    0.0011350   -1.7068010  
H    -9.5298980   -2.8882760   -1.0259100  
H    -7.9127620   -4.6523430    0.8053860  
H    -5.8275490   -3.6369720    1.3077400  
C    -0.3646390    0.2228090    2.9911060  
C    -1.5631920   -0.0727900    2.4214470  
C    -1.6733280    0.6975180    1.2019360  
C    -0.4334860    1.4813870    1.1078990  
N     0.3418920    1.1144260    2.1906530  
C    -0.1085170    2.3976090    0.1337560  
C    -1.1187370    2.6206710   -0.8925790  
O    -0.9651330    3.3367630   -1.8696170  
C    -2.5023350    1.8814220   -0.7559010  
O    -3.3949070    2.2501820   -1.5079650  
C    -2.6787660    0.7997000    0.2514890  
H    -2.3151530   -0.7211700    2.8411410  
H     0.0634520   -0.1288100    3.9201350  
H     1.1788360    1.6081430    2.4624110  
C     4.0137540    0.8252070   -0.2318610  
C     4.6663540    2.0459200   -0.2408320  
C     3.6797180    3.0654000   -0.1067100  
C     2.4196210    2.4157640   -0.0143420  
N     2.6463120    1.0532150   -0.0477240  
C     1.1908290    3.1006710    0.0823230  
C     1.2764800    4.4954960    0.0985550  
O     0.1497830    5.2339140    0.2337190  
C     2.5334440    5.1634310    0.0195130  
O     2.4225450    6.5364730    0.0655640  
C     3.7249780    4.4760530   -0.0754060  
H     5.7380340    2.1809000   -0.2947770  
H     1.9324000    0.3919670   -0.3231280  
H     0.3978270    6.1712560    0.1459490  
H     3.2855090    6.9425090   -0.1047330  
H     4.6709950    5.0091450   -0.1347700  
C     4.5364180   -0.5087050   -0.3174710  
C     5.7389830   -0.9628460   -0.7984820  
C     5.7775180   -2.3897200   -0.6399230  
C     4.4872520   -2.7678420   -0.0136200  
N     3.7437670   -1.5980450    0.0992300  
C     4.1567150   -4.0270540    0.3589710  
C     5.1145100   -5.1024460    0.1002260  
O     4.8980510   -6.2659110    0.4026470  
C     6.4693830   -4.7336310   -0.6069480  
O     7.2726050   -5.6268730   -0.8387630  
C     6.7137000   -3.3347640   -0.9431060  
H     6.4987750   -0.3536050   -1.2666930  
H     3.2104600   -4.2850950    0.8252270  
H     7.6605660   -3.0882840   -1.4138460  
H     3.0376860   -1.4903630    0.8150340  
