60


C    -2.9515040    5.5187350   -0.0845710  
C    -2.3954910    4.2666420    0.0577420  
C    -0.9804340    4.4017110   -0.1074660  
C    -0.7369360    5.7765140   -0.3400700  
N    -1.9521590    6.4278320   -0.3289380  
C     0.5430840    6.3196800   -0.5172130  
C     1.6213130    5.4568100   -0.4495600  
O     2.8856520    5.9300500   -0.6068790  
C     1.4363280    4.0669370   -0.2185920  
O     2.5914270    3.3750660   -0.1913980  
C     0.1367720    3.4943200   -0.0601710  
H    -2.9570800    3.3744910    0.2824430  
H    -2.0811400    7.4190600   -0.4621460  
H     0.7117990    7.3772310   -0.6945230  
H     3.4836020    5.1641350   -0.5248530  
H     2.3635290    2.4089120   -0.0096390  
H    -3.9846030    5.8302800   -0.0288510  
C    -0.0076880    2.0811410    0.1132040  
C    -1.1333820    1.2636470    0.1325340  
C    -0.6799520   -0.0614800    0.3200950  
C     0.8121600    0.0533030    0.4023910  
N     1.1803110    1.2989200    0.2790930  
C     1.6987570   -1.0828940    0.5606230  
C     1.0515240   -2.2893580    0.6078100  
O     1.6783040   -3.4542030    0.7814560  
C    -0.4552600   -2.4626570    0.5372190  
O    -0.8415520   -3.6218020    0.6971840  
C    -1.3245400   -1.2918720    0.3657890  
H    -2.1523410    1.5576030   -0.0446630  
H     0.9413250   -4.1177120    0.8214130  
C     3.8044120    0.1342390    1.2733810  
C     3.1442910   -0.9069470    0.6815310  
C     4.2322920   -1.7701530    0.1702880  
C     5.4812190   -1.0619450    0.5836660  
N     5.2173280    0.0401050    1.2307320  
C     6.7888880   -1.5727580    0.2691730  
C     6.8654970   -2.7187810   -0.4480230  
O     8.0137290   -3.3056460   -0.8201040  
C     5.6281570   -3.4408830   -0.9044750  
O     5.7762570   -4.4708230   -1.5594350  
C     4.2957980   -2.9019590   -0.5565410  
H     7.6710700   -1.0339200    0.5964880  
H     7.7463740   -4.1056400   -1.3242000  
H     3.4354900   -3.4687810   -0.8900570  
H     3.3607830    0.9890340    1.7659340  
C    -2.7569190   -1.4540710    0.2763100  
C    -3.7365980   -0.5765880    0.6830290  
C    -4.9899440   -1.2049890    0.3571570  
C    -4.5931340   -2.4990710   -0.2870730  
N    -3.3028920   -2.6467230   -0.3253810  
C    -5.5802220   -3.4232540   -0.7859830  
C    -6.8837990   -3.0935770   -0.6311670  
O    -7.9098570   -3.8558580   -1.0361560  
C    -7.3140160   -1.8034470    0.0302050  
O    -8.5262850   -1.5977230    0.1202120  
C    -6.2950640   -0.8721330    0.5176760  
H    -3.6057380    0.3560940    1.2119580  
H    -5.2690700   -4.3497080   -1.2554480  
H    -8.7165650   -3.3514540   -0.7843490  
H    -6.6405780    0.0477800    0.9793890  
