64


C    -4.2054700    0.9340210   -0.0246750  
C    -4.3137600   -0.4547480    0.1015170  
C    -5.5975150   -0.8326810   -0.3787530  
C    -6.2525880    0.3617980   -0.7958860  
N    -5.3900310    1.4027680   -0.5744000  
C    -7.5496270    0.3638870   -1.3261640  
C    -8.1955410   -0.8562740   -1.4354720  
O    -9.4580170   -0.9150660   -1.9432750  
C    -7.5555460   -2.0619000   -1.0221180  
O    -8.3355750   -3.1881660   -1.1988140  
C    -6.2790160   -2.0645560   -0.5010670  
H    -3.5923920   -1.1238720    0.5461260  
H    -5.5547280    2.3950580   -0.6952690  
H    -8.0528610    1.2704950   -1.6448160  
H    -9.7310860   -1.8488530   -1.9340100  
H    -7.8500280   -3.9695990   -0.8958640  
H    -5.8102480   -2.9968850   -0.1923900  
C     0.0255750    0.1871370    0.9758080  
C     0.3936890    1.4851070    1.2091050  
C    -0.7503920    2.3363070    1.0215220  
C    -1.8591300    1.4490830    0.6526070  
N    -1.3720070    0.1376850    0.7047980  
C    -3.1301840    1.8450920    0.3170290  
C    -3.3381360    3.3177220    0.3052940  
O    -4.3734950    3.8437270   -0.0825740  
C    -2.1926500    4.2735770    0.8124440  
O    -2.4474350    5.4688560    0.8834740  
C    -0.9101140    3.6901770    1.1365410  
H     1.3677250    1.8078740    1.5461170  
H    -0.1075900    4.3531260    1.4429850  
H    -1.7026900   -0.5108400   -0.0066190  
C     4.3249380   -0.8072500    0.0399250  
C     3.1099200   -0.1511450    0.2147460  
C     2.1702810   -1.1000650    0.7171010  
C     2.8595930   -2.3375020    0.8272410  
N     4.1573700   -2.1244730    0.4296920  
C     2.2437150   -3.5172270    1.2545070  
C     0.8960190   -3.4574760    1.5781560  
O     0.2558030   -4.5775680    2.0188420  
C     0.1744060   -2.2443480    1.4692700  
O    -1.1432550   -2.3550450    1.8583300  
C     0.7833290   -1.0496340    1.0457970  
H     2.8925350    0.8619990   -0.0876610  
H     4.8645890   -2.8295280    0.2782620  
H     2.7758810   -4.4583920    1.3459350  
H    -0.6558790   -4.3174310    2.2389580  
H    -1.5377940   -1.4639170    1.9240350  
C     5.9767180    3.2890440   -0.0075370  
C     7.1437110    3.0097330   -0.6662880  
C     7.1537640    1.5973750   -0.9245220  
C     5.9428070    1.0700250   -0.4059810  
N     5.2375990    2.1275840    0.1309870  
C     5.6044450   -0.3047250   -0.4551210  
C     6.5819280   -1.1383690   -1.0158780  
O     6.3784460   -2.4967210   -1.0814110  
C     7.7910820   -0.6249270   -1.5409450  
O     8.6180110   -1.6004560   -2.0695950  
C     8.0855910    0.7244410   -1.5168840  
H     7.9098720    3.7229990   -0.9369740  
H     4.4290090    2.0188740    0.7231300  
H     7.1546910   -2.8781030   -1.5288990  
H     9.4067810   -1.1871030   -2.4499580  
H     9.0223470    1.0951320   -1.9273380  
H     5.5944400    4.2273230    0.3690020  
