60


C     4.0729960    0.1168960   -0.1587840  
C     3.8741960    1.4605260    0.1271520  
C     5.1450450    2.0405230    0.3823150  
C     6.1124340    1.0038780    0.2476720  
N     5.4463940   -0.1457000   -0.1257170  
C     7.4778090    1.2137320    0.4671460  
C     7.8750140    2.4960320    0.8116650  
O     9.1855240    2.7584150    1.0349690  
C     6.9214290    3.5545880    0.9309000  
O     7.4902520    4.7599580    1.2703050  
C     5.5770170    3.3444900    0.7188820  
H     2.9195100    1.9680900    0.1042530  
H     5.8274140   -1.0729660    0.0016450  
H     8.2207070    0.4288030    0.3742320  
H     9.2660030    3.7019390    1.2618680  
H     6.8054370    5.4400970    1.3570140  
H     4.8646720    4.1600210    0.8183000  
C     3.1224180   -0.8929570   -0.5032770  
C     1.7597250   -0.9348230   -0.2810290  
C     1.2614700   -2.1613170   -0.8105430  
C     2.4243240   -2.8724670   -1.3863870  
N     3.5392930   -2.0822120   -1.1196810  
C     2.3627160   -4.0633050   -2.0255910  
C     1.0623950   -4.7256180   -2.1390010  
O     0.9185100   -5.8106410   -2.6759460  
C    -0.1975310   -4.0114510   -1.5319050  
O    -1.2942380   -4.5313570   -1.6619340  
C     0.0075270   -2.7264480   -0.8546070  
H     1.1958290   -0.1984870    0.2724260  
H     3.2304250   -4.5666510   -2.4404440  
H     4.3601890   -2.1152000   -1.7095310  
C    -1.5731200   -0.8199950   -0.8143850  
C    -2.6895060   -0.3766480   -0.1396450  
C    -2.9929650   -1.4087670    0.8573250  
C    -1.9669940   -2.4610930    0.6868360  
N    -1.1243210   -2.0347590   -0.3516150  
C    -1.8714230   -3.5817380    1.4384300  
C    -2.8621060   -3.7883930    2.4956310  
O    -2.8489250   -4.7598450    3.2346170  
C    -3.9750610   -2.6973240    2.6828780  
O    -4.8136750   -2.8531460    3.5556820  
C    -3.9567020   -1.5188740    1.8060040  
H    -1.1094780   -4.3381340    1.2909460  
H    -4.7110570   -0.7538350    1.9419510  
H    -1.0475400   -0.3461860   -1.6327930  
C    -3.3866870    0.8505620   -0.3985370  
C    -3.1299110    1.8128830   -1.3527920  
C    -4.1230290    2.8249200   -1.1688520  
C    -4.9520250    2.3239270   -0.0155520  
N    -4.5188590    1.1788800    0.4248900  
C    -6.0727680    3.0702360    0.4898480  
C    -6.3583240    4.2474210   -0.1149410  
O    -7.3644490    5.0540450    0.2373680  
C    -5.5418110    4.7814510   -1.2814410  
O    -5.9001300    5.8681520   -1.7450110  
C    -4.4131340    4.0092270   -1.7749030  
H    -2.3510610    1.8123470   -2.1030570  
H    -6.6548140    2.6882400    1.3210600  
H    -7.3046570    5.8154060   -0.3867300  
H    -3.8525750    4.4179700   -2.6097540  
