62


C    -2.6664770   -2.3423370    2.8074850  
C    -2.9861170   -1.1636940    2.1826490  
C    -3.9165370   -1.4732690    1.1284070  
C    -4.1301710   -2.8765610    1.1790710  
N    -3.3426950   -3.3793850    2.1962920  
C    -5.0258340   -3.5455320    0.3382440  
C    -5.7398380   -2.7666690   -0.5571350  
O    -6.6493510   -3.3379950   -1.3913510  
C    -5.5486010   -1.3590830   -0.6371520  
O    -6.3227360   -0.7545620   -1.5975080  
C    -4.6195740   -0.6882820    0.1637400  
H    -2.6189940   -0.1871600    2.4629690  
H    -3.3366100   -4.3400170    2.5010330  
H    -5.1960050   -4.6163450    0.3851700  
H    -7.0469720   -2.5951480   -1.8865620  
H    -6.6578270    0.0886290   -1.2051900  
H    -2.0118700   -2.5303730    3.6468400  
C    -0.7994650    1.4614250   -0.2368100  
C    -1.2699390    2.7558060   -0.2431740  
C    -2.7011090    2.7026340   -0.1482960  
C    -3.0651080    1.2665750   -0.0728550  
N    -1.8854390    0.5777000   -0.1352610  
C    -4.3453230    0.7629580    0.0225520  
C    -5.4053000    1.7636140   -0.0693780  
O    -6.6005000    1.4880760   -0.2034030  
C    -5.0483610    3.2959270   -0.0282360  
O    -5.9633650    4.1008630    0.0518830  
C    -3.6468060    3.6834390   -0.1140580  
H    -0.6534010    3.6361260   -0.3212960  
H    -3.4050850    4.7412160   -0.1308770  
H    -1.7975970   -0.4264950   -0.0637520  
C     2.9889160    3.6659890   -0.6122440  
C     3.8940040    2.6623700   -0.5789910  
C     3.1125650    1.4371130   -0.4517110  
C     1.7030790    1.9104440   -0.4226830  
N     1.6397030    3.2076330   -0.5077580  
C     0.5674330    0.9862000   -0.3156540  
C     0.9097240   -0.3417630   -0.3125470  
O     0.0072090   -1.3430240   -0.2620200  
C     2.3123980   -0.8285530   -0.4019740  
O     2.4466130   -2.0629960   -0.4682810  
C     3.4610470    0.1178790   -0.3900140  
H     4.9691710    2.7267630   -0.6484620  
H     0.5305400   -2.1749310   -0.2999500  
H     3.1645560    4.7294340   -0.7149610  
C     6.8045170    1.3012240    2.3526340  
C     5.5891810    1.1855300    1.7265300  
C     5.7360810    0.2108920    0.6835690  
C     7.0837300   -0.2433220    0.7414270  
N     7.7104890    0.4494440    1.7561040  
C     7.5919690   -1.2369660   -0.0958690  
C     6.7092000   -1.8165730   -0.9975660  
O     7.1401510   -2.7976100   -1.8314490  
C     5.3526800   -1.4109970   -1.0669180  
O     4.6287940   -2.0732720   -2.0341750  
C     4.8450700   -0.3742100   -0.2701270  
H     4.6998040    1.7426950    1.9800280  
H     8.6669160    0.3163450    2.0452390  
H     8.6208010   -1.5793760   -0.0513020  
H     6.3573870   -3.0700010   -2.3481160  
H     3.7822500   -2.3488390   -1.6228860  
H     7.1018050    1.9306460    3.1793640  
