64


C    -4.3086560    0.7408890   -1.9212250  
C    -5.6368510    1.0287830   -1.7834150  
C    -6.1031090    0.3334120   -0.6156690  
C    -4.9981730   -0.3776570   -0.0834230  
N    -3.8956350   -0.1142530   -0.8972650  
C    -5.0893320   -1.1416260    1.0855670  
C    -6.3216200   -1.2025870    1.7167920  
O    -6.4653520   -1.9401360    2.8579400  
C    -7.4408040   -0.5052310    1.1921100  
O    -8.5985760   -0.6615300    1.9335090  
C    -7.3453090    0.2572070    0.0427630  
H    -6.2228780    1.6512740   -2.4462240  
H    -4.2531660   -1.6968340    1.4925220  
H    -7.3991140   -1.8788060    3.1223270  
H    -9.3321450   -0.2238490    1.4773200  
H    -8.2134400    0.7923600   -0.3378080  
H    -3.6021730    1.0346820   -2.6840880  
C    -0.0976730    2.0363350   -0.6322280  
C    -1.4228010    1.6987580   -0.7153520  
C    -1.5005970    0.2662180   -0.6759300  
C    -0.1238420   -0.2244990   -0.5421340  
N     0.6944250    0.8995410   -0.4702920  
C     0.2725990   -1.5403850   -0.4927500  
C    -0.8237450   -2.5184320   -0.6660140  
O    -0.6406740   -3.7249220   -0.7626530  
C    -2.3205670   -2.0261350   -0.7364420  
O    -3.1872380   -2.8809320   -0.8269060  
C    -2.5788930   -0.5892930   -0.7313140  
H    -2.2580300    2.3813070   -0.7412190  
H     1.6578850    0.8626270   -0.7819020  
C     1.6433790   -1.9769580   -0.3136670  
C     2.7781820   -1.2871790    0.1205570  
C     3.8646060   -2.2052950    0.1295950  
C     3.3515670   -3.4585850   -0.3121720  
N     2.0173240   -3.2869350   -0.5773990  
C     4.1516760   -4.6034650   -0.4211410  
C     5.4880030   -4.4824500   -0.0769310  
O     6.3133090   -5.5632580   -0.1615680  
C     6.0178400   -3.2361390    0.3682590  
O     7.3654140   -3.2853440    0.6698680  
C     5.2311540   -2.1083880    0.4740030  
H     2.8164020   -0.2703100    0.4821050  
H     1.3288810   -3.9922650   -0.8099720  
H     3.7659730   -5.5607450   -0.7552460  
H     7.1960370   -5.2766810    0.1303320  
H     7.6540600   -2.4217610    1.0001260  
H     5.6560770   -1.1671410    0.8170670  
C    -0.0623140    4.3606610   -1.4136730  
C     0.7570740    5.4424100   -1.3180140  
C     1.8821400    5.0651400   -0.5018390  
C     1.6926700    3.7157970   -0.1193490  
N     0.4882550    3.2843330   -0.7017100  
C     2.5755650    3.0508920    0.7397360  
C     3.6939790    3.7490550    1.1762440  
O     4.5858310    3.1379530    2.0055950  
C     3.9137370    5.0914520    0.7763780  
O     5.0666540    5.6455190    1.2903690  
C     3.0189090    5.7544470   -0.0453530  
H     0.5907790    6.4030250   -1.7859040  
H     2.4078180    2.0446350    1.1032410  
H     5.2709950    3.7920010    2.2280330  
H     5.1302590    6.5755380    1.0266640  
H     3.1901990    6.7919070   -0.3243460  
H    -0.9827050    4.2185380   -1.9594100  
