62


C     1.7966630   -0.6295850   -0.6462110  
C     2.6166270   -0.2179910    0.3780280  
C     2.0012080    0.9325900    0.9868600  
C     0.7917800    1.1649970    0.2892200  
N     0.6946540    0.2031020   -0.6960860  
C    -0.0690650    2.2507140    0.5796870  
C     0.3381460    3.0913910    1.6236500  
O    -0.4675920    4.1095560    2.0150820  
C     1.5499500    2.8636520    2.3275230  
O     1.7863640    3.7849670    3.3276950  
C     2.3811770    1.8033420    2.0262440  
H    -0.0167430    0.1829450   -1.4102430  
H     0.0217080    4.6346450    2.6728630  
H     2.6870730    3.6744860    3.6667210  
H     3.3083990    1.6474240    2.5722680  
H     1.9100970   -1.4540930   -1.3343080  
C    -3.6359970   -0.2582590   -0.3869380  
C    -2.4418190    0.2384420    0.0962630  
C    -2.2911540    1.5844700   -0.3780820  
C    -3.5063490    1.8773870   -1.1711760  
N    -4.2581770    0.7232550   -1.1628110  
C    -3.7889020    3.0769870   -1.7439260  
C    -2.8283700    4.1558570   -1.5833930  
O    -3.0066220    5.2882300   -2.0069000  
C    -1.4787920    3.8453700   -0.8386510  
O    -0.5926560    4.6777530   -0.8759460  
C    -1.3027100    2.5204170   -0.1731520  
H    -1.7723360   -0.2675040    0.7723860  
H    -4.7052250    3.2749470   -2.2908280  
H    -5.2161270    0.6303710   -1.4715190  
C    -2.1404220   -4.2569450    0.9865140  
C    -2.1486160   -2.9769400    0.5285800  
C    -3.5466150   -2.6666220    0.2863560  
C    -4.2580570   -3.9286690    0.6517530  
N    -3.4334690   -4.8476650    1.0735250  
C    -5.6839860   -4.0654810    0.5300660  
C    -6.3792860   -3.0175420    0.0321250  
O    -7.7084970   -3.0274280   -0.1669240  
C    -5.7021770   -1.7426190   -0.3695540  
O    -6.4181380   -0.8761840   -0.8816550  
C    -4.2326240   -1.5600230   -0.1487500  
H    -1.2935450   -2.3447330    0.3430830  
H    -6.1657190   -4.9950040    0.8120660  
H    -7.9314440   -2.1555840   -0.5563000  
H    -1.2802640   -4.8519530    1.2697700  
C     4.1492020   -1.2289620    2.0519340  
C     5.4169550   -1.7425720    2.0829590  
C     5.9457430   -1.6448620    0.7517830  
C     4.9389870   -1.0520290   -0.0530660  
N     3.8379450   -0.8037050    0.7624790  
C     5.1229560   -0.7850200   -1.4156300  
C     6.3402450   -1.1347820   -1.9784560  
O     6.5695940   -0.8988690   -3.3047120  
C     7.3557060   -1.7388940   -1.1910690  
O     8.5088720   -2.0341230   -1.8959970  
C     7.1744060   -1.9923960    0.1557590  
H     5.9145210   -2.1517000    2.9518610  
H     4.3613150   -0.3157310   -2.0279990  
H     7.4734500   -1.2020100   -3.4971250  
H     9.1619550   -2.4227720   -1.2957370  
H     7.9692500   -2.4507400    0.7414620  
H     3.4075120   -1.1416780    2.8331880  
