62


C     5.7340920    0.9336700    1.2821990  
C     5.8678230    2.2691180    1.5003300  
C     4.7955460    2.9354620    0.8054200  
C     4.0254750    1.9375380    0.1638850  
N     4.6081020    0.6954640    0.4769660  
C     2.9337320    2.2506310   -0.6541660  
C     2.5835370    3.5886520   -0.7790370  
O     1.5188290    3.9295640   -1.5544770  
C     3.3281940    4.5978970   -0.1176660  
O     2.8628340    5.8730830   -0.3451360  
C     4.4310730    4.2850990    0.6586150  
H     6.6362530    2.7356660    2.1014150  
H     2.3687870    1.5107200   -1.2058720  
H     1.3855480    4.8897550   -1.4660130  
H     3.3205120    6.5013200    0.2331160  
H     5.0076780    5.0725850    1.1387540  
H     6.3030430    0.0974100    1.6587940  
C     4.1580400   -0.5649890    0.1467820  
C     4.8556010   -1.7420970    0.0575920  
C     3.9079620   -2.7846060   -0.2224520  
C     2.5854310   -2.1294230   -0.3071760  
N     2.8064760   -0.7640730   -0.1372800  
C     1.3849950   -2.7556120   -0.4911360  
C     1.4535770   -4.2287020   -0.6246100  
O     0.4606440   -4.9265830   -0.7593590  
C     2.8592820   -4.9426530   -0.6003490  
O     2.8799720   -6.1594400   -0.7327490  
C     4.0442750   -4.1323960   -0.3949490  
H     5.9265270   -1.8563830    0.1353330  
H     5.0054430   -4.6347170   -0.3532000  
H     2.0787380   -0.1595350    0.2247350  
C    -0.0590380   -0.8225240   -1.2437410  
C     0.1140350   -2.0251480   -0.5816480  
C    -1.1751720   -2.3485320    0.0009780  
C    -2.0578370   -1.2938800   -0.3402530  
N    -1.3593760   -0.3928730   -1.1146680  
C    -3.4002100   -1.2604920    0.0860740  
C    -3.8535390   -2.3291250    0.8563450  
O    -5.1489790   -2.3612420    1.2769590  
C    -2.9802030   -3.3973690    1.1827390  
O    -3.5849210   -4.3831210    1.9358910  
C    -1.6605840   -3.4179200    0.7779500  
H    -1.7159850    0.4911940   -1.4445830  
H    -5.2629510   -3.1886330    1.7781420  
H    -2.9736360   -5.1267630    2.0477240  
H    -1.0242500   -4.2638520    1.0124330  
H     0.6395550   -0.2690470   -1.8547500  
C    -5.5010360   -0.3685200   -0.9414900  
C    -6.1129240    0.8200480   -1.1644690  
C    -5.2649760    1.8522400   -0.6103390  
C    -4.0911910    1.1506620   -0.0283380  
N    -4.2774520   -0.2037850   -0.2761310  
C    -3.0706570    1.7778750    0.6164900  
C    -3.1090860    3.2329170    0.7309100  
O    -2.2358310    3.8795030    1.2910810  
C    -4.3296480    3.9957530    0.0977760  
O    -4.3640790    5.2150270    0.1647540  
C    -5.3791900    3.2053480   -0.5486100  
H    -7.0606770    0.9698280   -1.6608740  
H    -2.2415960    1.2488550    1.0731840  
H    -6.2290980    3.7397530   -0.9624320  
H    -5.8201630   -1.3691220   -1.1957440  
