60


C    -3.1471910    1.3653220   -1.2435170  
C    -3.0235250    0.1711920   -0.5401810  
C    -4.3535550   -0.1317910   -0.0362420  
C    -5.2069020    0.9175590   -0.4574470  
N    -4.4420920    1.8032720   -1.1965240  
C    -6.5662710    0.9830710   -0.1307520  
C    -7.0829480   -0.0427840    0.6441480  
O    -8.4014950   -0.0425430    0.9881040  
C    -6.2454320   -1.1032190    1.0807200  
O    -6.9008090   -2.0526820    1.8404740  
C    -4.9035450   -1.1574970    0.7579760  
H    -4.7874320    2.6344770   -1.6515990  
H    -7.2129040    1.7897900   -0.4601830  
H    -8.5632240   -0.8553180    1.4984460  
H    -6.3148160   -2.8114860    1.9815690  
H    -4.2968210   -1.9967340    1.0790600  
H    -2.4129500    1.9030400   -1.8263350  
C     1.0743360    1.6505770   -0.1139040  
C     1.7358030    0.4309440   -0.1045900  
C     0.7617220   -0.6083350   -0.1573030  
C    -0.5472250    0.0616180   -0.2393620  
N    -0.2875420    1.4162410   -0.2014330  
C    -1.7714210   -0.5554100   -0.3605240  
C    -1.7215230   -2.0355820   -0.3758840  
O    -2.7107240   -2.7338710   -0.5215550  
C    -0.3434390   -2.7758850   -0.2012830  
O    -0.3766400   -3.9842380   -0.0261410  
C     0.8943880   -1.9890980   -0.1760940  
H     2.8018880    0.2830590   -0.1151260  
H    -0.9661730    2.1641560   -0.2317570  
C     5.0261030    3.3256220    1.1101040  
C     3.9537360    2.5042460    0.9108480  
C     2.9045810    3.2952380    0.3251980  
C     3.4520610    4.6683960    0.2111980  
N     4.7507200    4.6089350    0.6813330  
C     2.7834740    5.7467560   -0.2718770  
C     1.4022800    5.5592010   -0.6827580  
O     0.7092890    6.4477220   -1.1504500  
C     0.7620940    4.1358570   -0.5028130  
O    -0.4411590    4.0414770   -0.7131910  
C     1.6126440    2.9967260   -0.0860830  
H     3.9123400    1.4631590    1.1889640  
H     3.2246240    6.7337340   -0.3675270  
H     5.9911060    3.0915760    1.5398210  
H     5.3697640    5.4006520    0.7624420  
C     4.5434930   -1.8416760    2.4598290  
C     3.3141770   -1.5685270    1.9498890  
C     3.1769470   -2.4465200    0.7932060  
C     4.4571520   -3.2052140    0.7721110  
N     5.2552350   -2.8428170    1.7433310  
C     4.7197700   -4.2339080   -0.2010170  
C     3.7540810   -4.5014640   -1.1088030  
O     3.8612780   -5.4304590   -2.0737660  
C     2.4646860   -3.7258570   -1.1505530  
O     1.7225090   -3.9356350   -2.1036700  
C     2.1767450   -2.6842330   -0.1052970  
H     2.5718960   -0.8820390    2.3309410  
H     5.6625440   -4.7695150   -0.1843820  
H     3.0350130   -5.3527300   -2.5999010  
H     5.0091300   -1.4053520    3.3365160  
