64


C     0.7228940    2.1477320   -0.1206300  
C     1.3790150    0.9825840    0.1974090  
C     2.6501310    0.9795470   -0.4820730  
C     2.7205680    2.1932950   -1.2099880  
N     1.5716040    2.9302450   -0.9284260  
C     3.8063930    2.5484180   -2.0118190  
C     4.8678120    1.6577460   -2.0440220  
O     5.9713580    1.9319820   -2.7879030  
C     4.8446120    0.4496460   -1.2943580  
O     5.9857280   -0.3091510   -1.4432520  
C     3.7490600    0.0719600   -0.5127780  
H     1.0184600    0.2418590    0.8964810  
H     1.1902450    3.5907870   -1.5951080  
H     3.8552510    3.4784910   -2.5685410  
H     6.5835090    1.1883600   -2.6216730  
H     6.2741290   -0.5850700   -0.5446640  
C    -3.3869840    0.3353210    0.0652120  
C    -2.0388050    0.5776120   -0.1366280  
C    -1.7519990    1.8954910    0.3203940  
C    -2.9652360    2.4451590    0.8062880  
N    -3.9689800    1.5034970    0.6064450  
C    -3.0550740    3.7387870    1.3230910  
C    -1.8926610    4.5000690    1.3263770  
O    -1.9158630    5.7665300    1.8230230  
C    -0.6708460    3.9795790    0.8236500  
O     0.3831510    4.8612250    0.9056390  
C    -0.5666170    2.6790490    0.3292430  
H    -1.3517810   -0.1158810   -0.5896800  
H    -4.7586360    1.4416870    1.2367920  
H    -3.9776370    4.1658630    1.7022280  
H    -1.0090360    6.1156930    1.7578850  
H     1.1948590    4.4119290    0.6033560  
C     0.7339620   -3.2044540   -0.2959930  
C     1.4032080   -4.0094740    0.5880000  
C     2.6357170   -3.3526860    0.9107720  
C     2.6598660   -2.1269380    0.1865380  
N     1.4914130   -2.0752710   -0.5449370  
C     3.7355050   -1.2086840    0.2438070  
C     4.7980950   -1.6048550    1.0590240  
O     5.9183500   -0.7951550    1.1739850  
C     4.7959000   -2.8175320    1.7833840  
O     5.9448070   -3.0198940    2.5323460  
C     3.7298640   -3.6926680    1.7269650  
H     1.0571650   -4.9612520    0.9665760  
H     1.2226640   -1.3116940   -1.1458100  
H     6.5192780   -1.2375610    1.8011480  
H     5.8565760   -3.8381690    3.0424610  
H     3.7444880   -4.6241290    2.2892020  
H    -0.2397850   -3.3230430   -0.7489820  
C    -7.7399200   -0.2373770   -0.3557640  
C    -7.7594500   -1.5859410   -0.5140130  
C    -6.3887040   -2.0476820   -0.4966770  
C    -5.5591400   -0.8503950   -0.2888880  
N    -6.4404720    0.2249410   -0.1583280  
C    -4.1838500   -0.8313580   -0.2315130  
C    -3.5294440   -2.1303210   -0.5403900  
O    -2.3293710   -2.2418060   -0.7265210  
C    -4.4074330   -3.4354770   -0.6555240  
O    -3.8176410   -4.5014910   -0.7710020  
C    -5.8486920   -3.2956590   -0.6385370  
H    -8.6360730   -2.2058410   -0.6357740  
H    -6.4547790   -4.1881440   -0.7553830  
H    -8.5640120    0.4640400   -0.3420840  
H    -6.1504610    1.1673210   -0.3856150  
