60


C    -4.9091360   -0.8582270    0.2311000  
C    -5.4548460   -2.1353570    0.2311860  
C    -6.8711710   -2.0070660    0.1921560  
C    -7.1627140   -0.6130640    0.1724110  
N    -5.9579320    0.0612900    0.1571460  
C    -8.4684770   -0.1148980    0.1578830  
C    -9.5029420   -1.0391860    0.1508250  
O   -10.7927210   -0.6107680    0.1377720  
C    -9.2318920   -2.4390760    0.1517480  
O   -10.3698020   -3.2175530    0.1348130  
C    -7.9423010   -2.9279930    0.1683170  
H    -4.8841360   -3.0536780    0.2089920  
H    -5.8577190    1.0373070    0.3935560  
H    -8.6974660    0.9455770    0.1478670  
H   -11.3634110   -1.3992160    0.1321510  
H   -10.1263270   -4.1551180    0.1494710  
H    -7.7570470   -3.9999170    0.1721550  
C    -2.4511410   -1.1180040    0.7758490  
C    -3.5344650   -0.4451300    0.2789040  
C    -2.9609050    0.8222750   -0.2449160  
C    -1.5129230    0.7214840    0.0620180  
N    -1.2349170   -0.4181050    0.6438960  
C    -0.5811980    1.7794770   -0.2762380  
C    -1.0937460    2.8532270   -0.9498590  
O    -0.3469440    3.8850120   -1.3711350  
C    -2.5363930    2.9549550   -1.3161900  
O    -2.9113720    3.9556850   -1.9298160  
C    -3.4597370    1.8679770   -0.9304430  
H    -0.9767230    4.5080120   -1.7961860  
H    -4.4949470    1.9727800   -1.2398880  
H    -2.4474880   -2.0854270    1.2622350  
C     2.7005900   -1.1157840   -1.0356290  
C     1.5224460   -0.4612350   -0.9960010  
C     1.7012900    0.7335840   -0.1960690  
C     3.1150340    0.7280200    0.2470490  
N     3.6964340   -0.4215360   -0.3132380  
C     3.6691600    1.6637480    1.0576740  
C     2.8348200    2.7843770    1.4844030  
O     3.2568430    3.6900500    2.1842370  
C     1.3363250    2.8182480    1.0276120  
O     0.6213500    3.7069260    1.4498500  
C     0.8355010    1.7347610    0.1378440  
H     0.6041400   -0.7737160   -1.4669530  
H     4.6879250    1.6266150    1.4234350  
H     2.9722740   -2.0289970   -1.5450910  
C     5.0003800   -0.8685730   -0.2054960  
C     5.4672600   -2.1535500   -0.2522620  
C     6.9036890   -2.0919390   -0.1803930  
C     7.2512920   -0.6537130   -0.0846630  
N     6.0456340    0.0467800   -0.0476770  
C     8.5132950   -0.1692310   -0.0479260  
C     9.6229630   -1.1265840   -0.0731410  
O    10.7921050   -0.7790610   -0.0422050  
C     9.2788360   -2.6592960   -0.1302460  
O    10.1957330   -3.4673290   -0.1420980  
C     7.8719330   -3.0497540   -0.1820320  
H     4.8657560   -3.0503530   -0.2703980  
H     8.7494130    0.8886730    0.0145350  
H     7.6457860   -4.1100180   -0.2398130  
H     5.9689250    1.0079450   -0.3511700  
