60


C     4.9484300   -0.2785260   -0.1728830  
C     5.8585200   -1.3397190   -0.2909200  
C     7.1582180   -0.8180690   -0.1216440  
C     7.0165710    0.5870000    0.1072180  
N     5.6836650    0.8784140    0.0701350  
C     8.1161730    1.4276430    0.3246520  
C     9.3716870    0.8450370    0.3124390  
O    10.4738960    1.6072850    0.5177230  
C     9.5332070   -0.5609300    0.0859100  
O    10.8499970   -0.9638350    0.1075800  
C     8.4558850   -1.3875940   -0.1271050  
H     5.5979210   -2.3772140   -0.4306270  
H     5.2311950    1.7598560    0.2763570  
H     8.0182430    2.4935300    0.4992310  
H    11.2510090    1.0223890    0.4724850  
H    10.9062080   -1.9180440   -0.0511190  
H     8.5970260   -2.4524340   -0.2978190  
C     1.8173840   -3.1859690   -1.5455800  
C     3.0242600   -2.5922830   -1.3500500  
C     2.7336530   -1.3221030   -0.7056550  
C     1.2662580   -1.3045810   -0.5988720  
N     0.7367320   -2.4008930   -1.0859390  
C     0.5100410   -0.1723970   -0.0432920  
C     1.2795350    0.8907030    0.3521030  
O     0.7721530    2.0240560    0.8986350  
C     2.7510850    0.9130880    0.2482080  
O     3.3106660    1.9632250    0.6116230  
C     3.5130880   -0.2857310   -0.2410430  
H     3.9887780   -2.9577470   -1.6683290  
H     1.5575790    2.5887980    1.0726980  
H     1.6088600   -4.1415740   -2.0110290  
C    -1.6692800   -1.4022940    0.1793360  
C    -0.9397190   -0.2475490    0.0590760  
C    -1.9668490    0.8184240    0.0283350  
C    -3.2714440    0.0855500    0.1288790  
N    -3.0595320   -1.2025450    0.2508660  
C    -4.5662560    0.7424560    0.0970650  
C    -4.5144560    2.1151980    0.0999350  
O    -5.5884190    2.8976680    0.2080570  
C    -3.2298500    2.8790420   -0.0178310  
O    -3.2992110    4.1072040   -0.0451040  
C    -1.9452920    2.1595110   -0.0760380  
H    -5.2546860    3.8196790    0.1266620  
H    -1.0435640    2.7525370   -0.1389680  
H    -1.2793950   -2.4080950    0.2127060  
C    -6.2357670   -2.9371110    2.0049480  
C    -7.5133730   -2.8547400    1.5512170  
C    -7.5839000   -1.6982560    0.6865490  
C    -6.2246520   -1.0935700    0.7047550  
N    -5.4639950   -1.8707970    1.5559070  
C    -5.8614890    0.0394690    0.0207710  
C    -6.8730150    0.5426630   -0.9464940  
O    -6.6038640    1.3338170   -1.8328160  
C    -8.3443440   -0.0003970   -0.8712850  
O    -9.2059650    0.5640190   -1.5285290  
C    -8.6058230   -1.1630670   -0.0344320  
H    -8.3270260   -3.5270770    1.7817250  
H    -9.6141570   -1.5652760   -0.0160450  
H    -5.7873130   -3.6825270    2.6492440  
H    -4.4537160   -1.9089310    1.3990540  
