64


C    -4.6840850    0.1137700   -0.0757550  
C    -5.5607850    0.8264620   -0.8626170  
C    -6.8784300    0.6700730   -0.3176680  
C    -6.7591530   -0.1604090    0.8237820  
N    -5.4263490   -0.5452960    0.9264760  
C    -7.8500830   -0.5027450    1.6275860  
C    -9.0936610   -0.0043040    1.2646430  
O   -10.1919810   -0.3042730    2.0169680  
C    -9.2364450    0.8116790    0.1117950  
O   -10.5356200    1.2199270   -0.1243320  
C    -8.1530080    1.1493400   -0.6790670  
H    -5.2950650    1.3538330   -1.7679010  
H    -5.0040090   -0.7897400    1.8133570  
H    -7.7621470   -1.1351360    2.5051820  
H   -10.9552010    0.1283010    1.5967110  
H   -10.5618630    1.7682060   -0.9223090  
H    -8.2864080    1.7797750   -1.5560100  
C    -1.3699680    2.8194770   -1.4250070  
C    -2.5897900    2.3103160   -1.0634900  
C    -2.3787360    0.9477280   -0.6614170  
C    -0.9895670    0.6908510   -0.7907640  
N    -0.4032580    1.8456130   -1.2648960  
C    -0.3904090   -0.5517230   -0.4897540  
C    -1.2573470   -1.5438530   -0.0257800  
O    -0.7586790   -2.7584510    0.3319390  
C    -2.6444300   -1.3081180    0.1197110  
O    -3.3416070   -2.4086000    0.5909960  
C    -3.2399290   -0.0822000   -0.1936470  
H    -3.5269030    2.8465880   -1.0659180  
H     0.5800070    1.9535420   -1.4584380  
H    -1.5231210   -3.3382150    0.4991560  
H    -4.2860400   -2.2948420    0.3815260  
H    -1.1025030    3.8037080   -1.7827010  
C     3.2717310    1.3958460    1.0919660  
C     1.9925160    1.0377220    0.8248900  
C     2.0387340   -0.0762040   -0.1019700  
C     3.4755030   -0.3397200   -0.3515880  
N     4.1857640    0.5822450    0.4088600  
C     3.9527590   -1.3209840   -1.1666030  
C     2.9917130   -2.1865990   -1.8316970  
O     3.3161240   -3.1263330   -2.5438940  
C     1.4599590   -1.8937830   -1.6318870  
O     0.6614300   -2.5249250   -2.2985170  
C     1.0471590   -0.8189160   -0.6858800  
H     1.1013840    1.4852590    1.2383860  
H     5.0091910   -1.4841190   -1.3479880  
H     3.6525850    2.1781560    1.7327540  
C     7.2165890   -2.3549790    1.6292750  
C     8.3036050   -1.5325790    1.4966530  
C     7.8180610   -0.2581840    1.0468500  
C     6.4079850   -0.3777590    0.9268560  
N     6.0662360   -1.6580820    1.3032390  
C     5.5978660    0.6947640    0.5065650  
C     6.2303810    1.9024660    0.2135850  
O     5.4891860    2.9742820   -0.1937780  
C     7.6350130    2.0316190    0.3503690  
O     8.1006060    3.2948180    0.0364230  
C     8.4299600    0.9767280    0.7574480  
H     9.3316070   -1.7986290    1.6996510  
H     5.1466140   -2.0617150    1.2081250  
H     6.1152680    3.6995110   -0.3669940  
H     9.0691520    3.2928300    0.0334310  
H     9.5055740    1.1047130    0.8578990  
H     7.1572040   -3.3896360    1.9356130  
