62


C    -4.6255870    0.1489890   -0.0694770  
C    -3.8056310    1.2760850    0.0642500  
C    -4.6388470    2.4070020    0.2304860  
C    -5.9871520    1.9376390    0.1899940  
N    -5.9457290    0.5831300    0.0107190  
C    -7.0869410    2.7954700    0.3197370  
C    -6.8244660    4.1440480    0.4929660  
O    -7.8513170    5.0237380    0.6247190  
C    -5.4812410    4.6326030    0.5366550  
O    -5.4036920    5.9977530    0.7161430  
C    -4.3996440    3.7908860    0.4082500  
H    -2.7287440    1.2823110    0.0120500  
H    -6.7236550   -0.0500230   -0.1179890  
H    -8.1134220    2.4462060    0.2901130  
H    -7.4655620    5.9100580    0.7390110  
H    -4.4751160    6.2713090    0.7536730  
H    -3.3854220    4.1827550    0.4458420  
C    -0.8257290   -2.3003430    0.0873900  
C    -1.7092060   -1.2442530    0.1824040  
C    -3.0016740   -1.7654590   -0.1826590  
C    -2.7252710   -3.1862070   -0.4947150  
N    -1.4668520   -3.5000220   -0.3404630  
C    -3.7569840   -4.1026940   -0.9129020  
C    -5.0219460   -3.6365030   -0.9663770  
O    -6.0884100   -4.3849120   -1.3068890  
C    -5.3540190   -2.2127620   -0.6269410  
O    -6.5570810   -1.9211770   -0.6723130  
C    -4.2773880   -1.2371990   -0.2726170  
H    -1.4972000   -0.2740040    0.6065530  
H    -3.5069170   -5.1317550   -1.1450360  
H    -6.8612090   -3.7843910   -1.2379720  
C     2.0792950    0.8105600   -0.8867100  
C     3.2267760    0.2023310   -0.3787130  
C     2.7938270   -1.0740150    0.1631240  
C     1.4005800   -1.1595460   -0.0318790  
N     1.0041000    0.0052550   -0.6715840  
C     0.6109730   -2.2798850    0.3225240  
C     1.3153460   -3.3489660    0.9053410  
O     0.6607360   -4.4515990    1.3347710  
C     2.7185040   -3.2676130    1.1130700  
O     3.2474120   -4.3932920    1.7107610  
C     3.4623540   -2.1586330    0.7602220  
H     0.0626880    0.1640680   -1.0038160  
H     1.3294710   -5.0584210    1.7001820  
H     4.2020810   -4.2780190    1.8290850  
H     4.5339270   -2.1071340    0.9239400  
H     1.9679750    1.7637980   -1.3831730  
C     4.5484440    0.7512260   -0.4097940  
C     4.9869980    1.9593640   -0.9127970  
C     6.3946810    1.9990890   -0.6837570  
C     6.6950850    0.6890020   -0.0011800  
N     5.6223110   -0.0294060    0.1547070  
C     8.0304750    0.3383920    0.4031470  
C     9.0121170    1.2342900    0.1462770  
O    10.2995720    1.0575330    0.4588390  
C     8.7419750    2.5656700   -0.5408930  
O     9.7266070    3.2918730   -0.7152420  
C     7.3880680    2.8975620   -0.9398340  
H     4.3945280    2.7298690   -1.3865760  
H     8.2246920   -0.6094520    0.8927050  
H    10.7439480    1.8803430    0.1419080  
H     7.2278890    3.8536810   -1.4280000  
