60


C    -4.1271980    0.0035600   -0.0749290  
C    -3.9268620   -1.0499990    0.8213140  
C    -5.0188880   -1.9501100    0.6797680  
C    -5.8748810   -1.4075310   -0.3227730  
N    -5.3074580   -0.2384400   -0.7609420  
C    -7.0630070   -2.0343640   -0.7187660  
C    -7.3949330   -3.2251270   -0.0933870  
O    -8.5390150   -3.8779620   -0.4375110  
C    -6.5514670   -3.7822600    0.9126140  
O    -7.0258910   -4.9700990    1.4327900  
C    -5.3808160   -3.1660250    1.3018750  
H    -3.1474990   -1.1145800    1.5678580  
H    -5.7033740    0.4557660   -1.3833740  
H    -7.7181280   -1.6250340   -1.4803020  
H    -8.5930540   -4.6791940    0.1118740  
H    -6.4221240   -5.2881390    2.1202020  
H    -4.7531920   -3.6096590    2.0722270  
C     0.0891980    0.8558580    0.6890720  
C     0.1439360    2.1945960    0.3700390  
C    -1.1933950    2.5485090   -0.1164060  
C    -2.0159850    1.3308750    0.0178750  
N    -1.1842420    0.3596180    0.5360550  
C    -3.3431000    1.1952130   -0.3275180  
C    -3.9222800    2.3509930   -1.0430930  
O    -5.0258270    2.3318810   -1.5753950  
C    -3.0816870    3.6728210   -1.1629340  
O    -3.6218230    4.6457200   -1.6686490  
C    -1.7079190    3.6767930   -0.6855210  
H    -1.1457350    4.5944370   -0.7851410  
H     0.8980320    0.2121290    0.9994970  
H    -1.4240430   -0.6216700    0.5453530  
C     4.3250380    0.9556690    0.0789720  
C     4.9749270    2.1626580    0.1469880  
C     3.9435700    3.1561640    0.3148810  
C     2.6681930    2.3746120    0.3103640  
N     2.8987200    1.1047090    0.1737860  
C     1.3533880    3.0103970    0.4456090  
C     1.3886850    4.3624390    0.6674280  
O     0.2954730    5.1096810    0.9163470  
C     2.6479730    5.1629840    0.6797220  
O     2.5522410    6.3780100    0.8833030  
C     3.9425020    4.4970760    0.4787940  
H     6.0396420    2.3469620    0.1081900  
H     0.6383950    6.0265970    1.0256210  
H     4.8326790    5.1184950    0.4919520  
C     4.8957420   -0.3591090   -0.0585300  
C     6.2110550   -0.6860230   -0.2839900  
C     6.2543260   -2.1254760   -0.3338800  
C     4.8305990   -2.5421180   -0.1107900  
N     4.0456710   -1.5188430    0.0476470  
C     4.4508870   -3.9323930   -0.0851620  
C     5.4235320   -4.8546110   -0.2734730  
O     5.2177080   -6.1787880   -0.2765650  
C     6.8662390   -4.4637080   -0.5025350  
O     7.6771970   -5.3759260   -0.6624600  
C     7.2332940   -3.0427380   -0.5226670  
H     7.0482110   -0.0141110   -0.4131240  
H     3.4156940   -4.2104220    0.0778290  
H     6.1024070   -6.5782610   -0.4360220  
H     8.2787480   -2.8005010   -0.6871100  
