62


C    -2.5717270    2.6119730   -0.0679680  
C    -3.8736800    2.6960000    0.3738830  
C    -4.3762410    1.3618150    0.5257270  
C    -3.3243340    0.4797670    0.1689430  
N    -2.2215760    1.2595200   -0.1463850  
C    -3.4691190   -0.9240220    0.1513710  
C    -4.7195990   -1.4252480    0.5310200  
O    -4.9139970   -2.7711080    0.5843850  
C    -5.7700540   -0.5554920    0.9107050  
O    -6.9291210   -1.2127940    1.2796940  
C    -5.6151530    0.8195370    0.9154650  
H    -4.3970690    3.6144220    0.6021140  
H    -1.4460420    0.9352380   -0.7068190  
H    -5.8586570   -2.9189660    0.7658150  
H    -7.6510460   -0.5723880    1.3621950  
H    -6.4406470    1.4646960    1.2093680  
C     0.5949670   -1.4123060    1.6948470  
C     1.0643940   -2.3537780    0.8216140  
C    -0.0154150   -2.6915590   -0.0907570  
C    -1.1560410   -1.8507460    0.3243360  
N    -0.7170300   -1.1048410    1.4120930  
C    -2.3829760   -1.8298580   -0.2701860  
C    -2.5546420   -2.7286520   -1.4412530  
O    -3.5572690   -2.7298720   -2.1293420  
C    -1.3706080   -3.6850540   -1.8461370  
O    -1.5492100   -4.4851950   -2.7507710  
C    -0.1034260   -3.5672840   -1.1278460  
H     0.7223920   -4.1960350   -1.4455010  
H     1.1165510   -0.9187130    2.5040500  
H    -1.2732500   -0.4009850    1.8748930  
C     2.7706350   -4.1901720    0.7889020  
C     4.0935700   -4.3383460    0.5353690  
C     4.6382400   -3.0166930    0.2981660  
C     3.5010420   -2.0751520    0.4402380  
N     2.3853480   -2.8386730    0.7458820  
C     3.5892100   -0.7263630    0.2942840  
C     4.8763820   -0.1572100   -0.0329880  
O     5.0638460    1.0525070   -0.1806330  
C     6.1023320   -1.1244410   -0.2015180  
O     7.1916750   -0.6543780   -0.4825500  
C     5.8817900   -2.5630480   -0.0057120  
H     4.6420740   -5.2688230    0.5167790  
H     2.7461170   -0.0605190    0.4328450  
H     6.7380780   -3.2199980   -0.1218840  
H     2.0217650   -4.9373240    1.0153360  
C    -1.9636300    4.8511860   -1.0324060  
C    -1.6285620    3.6578380   -0.4284980  
C    -0.1935940    3.6937370   -0.2198190  
C     0.2665980    4.9421190   -0.7149890  
N    -0.8338490    5.6211910   -1.2012000  
C     1.6042510    5.3457910   -0.6374340  
C     2.5000370    4.4664150   -0.0459650  
O     3.8090010    4.8213870    0.0878150  
C     2.0710820    3.2000170    0.4381780  
O     3.0103180    2.4078420    1.0799800  
C     0.7415740    2.8199590    0.3672610  
H    -0.8106730    6.5295900   -1.6373360  
H     1.9483540    6.3126020   -0.9908130  
H     4.2149450    4.1599050    0.6778240  
H     3.6765310    2.0447920    0.4465590  
H     0.4433700    1.8633720    0.7856390  
H    -2.9288170    5.1972630   -1.3734420  
