60


C     5.8746230   -3.1713040   -1.2217260  
C     7.1237740   -2.9681920   -0.6978930  
C     7.1229710   -1.6641600   -0.0964850  
C     5.8258370   -1.1197360   -0.2849890  
N     5.0864720   -2.0618070   -0.9705300  
C     5.4600300    0.1748090    0.1472760  
C     6.4534650    0.9093280    0.8002910  
O     6.1600320    2.1422210    1.2974770  
C     7.7504240    0.3739670    1.0034700  
O     8.6022280    1.2283090    1.6804330  
C     8.0953640   -0.8907040    0.5667430  
H     7.9510120   -3.6634490   -0.7373180  
H     4.1369770   -1.9347690   -1.2830960  
H     6.9931740    2.5283720    1.6195320  
H     9.5028450    0.8732360    1.6531380  
H     9.0984200   -1.2774620    0.7355900  
H     5.4694410   -4.0200170   -1.7544070  
C     1.3682170   -1.1551900    1.2429590  
C     2.7085620   -1.0429920    1.0874690  
C     2.9600410    0.1645120    0.3217850  
C     1.6333150    0.7571030    0.0425920  
N     0.6911190   -0.0916130    0.6229410  
C     1.4272250    1.9192910   -0.6299950  
C     2.5896760    2.6445190   -1.1162570  
O     2.5160000    3.7213130   -1.6907270  
C     4.0091050    2.0053600   -0.8974570  
O     4.9658220    2.5296200   -1.4346710  
C     4.1240320    0.7529460   -0.0941170  
H     3.4579420   -1.7141210    1.4792210  
H     0.4437360    2.3413480   -0.8047060  
H     0.7918940   -1.9058890    1.7670530  
C    -1.4073840    1.1284400    1.1170450  
C    -0.7046100    0.0756070    0.6077780  
C    -1.6626860   -0.8482550    0.0194000  
C    -2.9909680   -0.2349170    0.2319530  
N    -2.7606930    0.9674580    0.8815600  
C    -4.1800540   -0.7949310   -0.1353600  
C    -4.1071070   -2.0934560   -0.8488490  
O    -5.0881860   -2.6308490   -1.3274960  
C    -2.7027140   -2.7687850   -1.0536860  
O    -2.6503160   -3.8630940   -1.5901730  
C    -1.5128160   -2.0498200   -0.5974430  
H    -0.5448590   -2.5140110   -0.7573310  
H    -1.0365940    2.0045660    1.6315770  
H    -3.4863680    1.6004200    1.1803040  
C    -6.0378510    3.1006040   -1.2802110  
C    -5.1821760    2.0558690   -1.1184750  
C    -5.8668870    1.0555810   -0.3243260  
C    -7.2124280    1.6126800   -0.0386560  
N    -7.2395260    2.8642010   -0.6285280  
C    -8.1918590    0.9707330    0.6469130  
C    -7.9115700   -0.3663730    1.1561660  
O    -8.7339200   -1.0396640    1.7559770  
C    -6.4719820   -0.9545710    0.9373640  
O    -6.1759140   -1.9956190    1.4937680  
C    -5.4959090   -0.1875970    0.1177760  
H    -4.1897360    1.9760080   -1.5358120  
H    -9.1772710    1.3924190    0.8191400  
H    -5.8928240    4.0249860   -1.8238080  
H    -8.0513390    3.4605700   -0.6702190  
