62


C     2.9476360   -1.1111000    0.2401040  
C     3.3096860   -0.1436270    1.1799630  
C     4.7084340    0.0406200    1.0811130  
C     5.1789650   -0.8439780    0.0558010  
N     4.0953410   -1.5196670   -0.4274990  
C     6.5300650   -0.9212240   -0.3078020  
C     7.4179770   -0.1001660    0.3652290  
O     8.7395070   -0.1311490    0.0550130  
C     6.9668770    0.7900800    1.3912830  
O     7.9843410    1.5309470    1.9532130  
C     5.6417140    0.8683230    1.7516950  
H     2.6297120    0.3636960    1.8504090  
H     4.0612500   -2.2195940   -1.1559500  
H     6.8940610   -1.5872970   -1.0825610  
H     9.1909130    0.5136350    0.6278080  
H     7.6231560    2.1272530    2.6260200  
H     5.3186880    1.5515360    2.5340390  
C     1.6943690   -1.6875470   -0.1102450  
C     0.4290870   -1.4712250    0.3960560  
C    -0.4375980   -2.3311300   -0.3455540  
C     0.4761650   -3.0446320   -1.3028890  
N     1.7150660   -2.6661600   -1.1605140  
C    -0.0127600   -4.0260830   -2.2303950  
C    -1.3414310   -4.2803710   -2.2132050  
O    -1.9500710   -5.1598680   -3.0145950  
C    -2.3022190   -3.5614320   -1.2802920  
O    -3.4941900   -3.8419980   -1.4258270  
C    -1.7885790   -2.5831050   -0.3140240  
H     0.1493850   -0.8036030    1.1977390  
H     0.6672420   -4.5312380   -2.9070030  
H    -2.9056080   -5.0882270   -2.7777140  
C    -2.6973490    1.7285510    0.2135390  
C    -3.6919900    1.5665790    1.1844870  
C    -3.8245990    0.1837260    1.4439030  
C    -2.8818270   -0.4897280    0.6093420  
N    -2.2239130    0.4623600   -0.1178830  
C    -2.7401090   -1.8948930    0.5828150  
C    -3.5722760   -2.6047230    1.4497990  
O    -3.4634590   -3.9521770    1.5331370  
C    -4.5185240   -1.9433000    2.2920430  
O    -5.2455810   -2.8142430    3.0753950  
C    -4.6561810   -0.5753420    2.3004060  
H    -4.2221820    2.3651980    1.6798440  
H    -1.4331750    0.3230940   -0.7336170  
H    -4.1486000   -4.2656420    2.1498240  
H    -5.8883080   -2.3203140    3.6058850  
H    -5.3841270   -0.0916130    2.9476900  
C    -3.9726660    6.0374630    0.0402930  
C    -4.0204620    4.6917810    0.2292900  
C    -2.7565110    4.1829240   -0.2859790  
C    -2.0648150    5.3947230   -0.7676160  
N    -2.7685130    6.4811120   -0.5641860  
C    -0.7665510    5.3465170   -1.3926910  
C    -0.1922830    4.1358540   -1.5659110  
O     0.9996650    3.9443890   -2.1701180  
C    -0.8629210    2.8822340   -1.1109570  
O    -0.2834990    1.8226040   -1.3746910  
C    -2.1725810    2.9388560   -0.3674810  
H    -4.8459060    4.1175270    0.6221960  
H    -0.2936120    6.2624980   -1.7295660  
H     1.1414410    2.9744750   -2.1715160  
H    -4.7343550    6.7693110    0.2821150  
