64


C    -0.0494850    2.6392600    0.0067630  
C     0.7473740    1.5965250   -0.4018460  
C     2.1099230    1.9128210   -0.0740660  
C     2.0982670    3.1816820    0.5493980  
N     0.7835760    3.6556460    0.5389730  
C     3.2474540    3.7945380    1.0513880  
C     4.4430620    3.1061310    0.8971090  
O     5.6062550    3.6566680    1.3495010  
C     4.4799350    1.8424770    0.2563570  
O     5.7516970    1.3142020    0.1549630  
C     3.3349940    1.2140060   -0.2355140  
H     0.4053170    0.7169580   -0.9266560  
H     0.4461930    4.2268080    1.3060170  
H     3.2415540    4.7671520    1.5323100  
H     6.3220830    3.0443830    1.1041410  
H     5.7131450    0.4968710   -0.3707400  
C    -3.5390000   -0.2061530    0.0092340  
C    -2.2785220    0.3608490    0.0637440  
C    -2.4191060    1.7725260   -0.0950640  
C    -3.8050250    2.0363750   -0.2447060  
N    -4.4846970    0.8315930   -0.1193980  
C    -4.3212920    3.3167130   -0.4495970  
C    -3.4077150    4.3607310   -0.5002060  
O    -3.8429850    5.6310130   -0.7223980  
C    -2.0178910    4.1303330   -0.3332280  
O    -1.2593470    5.2801940   -0.4242240  
C    -1.4889890    2.8523310   -0.1220860  
H    -1.3692030   -0.1919800    0.2291640  
H    -5.3671680    0.6750290   -0.5894730  
H    -5.3800570    3.5190230   -0.5730390  
H    -3.0510270    6.1967450   -0.7641570  
H    -0.3194450    5.0298880   -0.5153300  
C     2.8263780   -0.4602380   -2.0834150  
C     3.4107870   -0.1069980   -0.8845100  
C     4.0904250   -1.2967650   -0.4050170  
C     3.8773090   -2.3185710   -1.3665470  
N     3.1120470   -1.7746400   -2.3777080  
C     4.3750100   -3.6185620   -1.2163390  
C     5.1003100   -3.8980340   -0.0691670  
O     5.6110790   -5.1474560    0.1262960  
C     5.3136380   -2.8936970    0.9126140  
O     6.0453550   -3.3264320    2.0020940  
C     4.8208910   -1.6108980    0.7627790  
H     2.7479010   -2.2835070   -3.1683340  
H     4.2053040   -4.4015850   -1.9481560  
H     6.0499720   -5.1462720    0.9944310  
H     6.0868570   -2.6205260    2.6641560  
H     4.9868960   -0.8654450    1.5364830  
H     2.2429850    0.1439670   -2.7632720  
C    -7.3214340   -2.0322470    1.3122590  
C    -7.0323900   -3.3342640    1.0535780  
C    -5.6834070   -3.3858250    0.5329300  
C    -5.2089660   -1.9931610    0.4936560  
N    -6.2694620   -1.2031560    0.9345970  
C    -3.9552930   -1.5873900    0.1009690  
C    -3.0118360   -2.6807450   -0.2577800  
O    -1.8453730   -2.4837190   -0.5490980  
C    -3.5340640   -4.1699550   -0.2819190  
O    -2.7549760   -5.0385030   -0.6503140  
C    -4.8967910   -4.4318470    0.1406890  
H    -7.6865320   -4.1803100    1.2077740  
H    -5.2418540   -5.4608140    0.1491790  
H    -8.2221310   -1.5984240    1.7267860  
H    -6.1219690   -0.2734840    1.3041330  
