60


C    -6.4570630   -0.6414110    3.1456870  
C    -5.4094420   -0.2184420    2.3658590  
C    -5.6079010   -0.7628810    1.0463040  
C    -6.8179800   -1.5049300    1.0956240  
N    -7.2996600   -1.4270480    2.3874950  
C    -7.3750230   -2.1372570   -0.0210160  
C    -6.7021570   -1.9876210   -1.2220490  
O    -7.1936010   -2.5487800   -2.3586110  
C    -5.4857390   -1.2545840   -1.3072380  
O    -4.9448140   -1.2344940   -2.5695430  
C    -4.8915700   -0.6653100   -0.1864990  
H    -4.6204440    0.4467320    2.6865230  
H    -8.1712820   -1.8219670    2.7043570  
H    -8.3049720   -2.6952790    0.0166250  
H    -6.5837360   -2.2708740   -3.0697220  
H    -4.6129650   -0.3161750   -2.7241790  
H    -6.6787300   -0.4366800    4.1835460  
C    -1.4024890   -1.0968020    2.4154510  
C    -0.5674440   -0.1700900    1.8799040  
C    -1.2445080    0.4070240    0.7364750  
C    -2.5645750   -0.2615800    0.6599870  
N    -2.5803120   -1.1828830    1.6820960  
C    -3.5681060   -0.0000810   -0.2493670  
C    -3.2073720    0.9539390   -1.2911710  
O    -3.9041470    1.1885230   -2.2808860  
C    -1.8337060    1.7199110   -1.2191180  
O    -1.5747190    2.4991370   -2.1164780  
C    -0.8772060    1.3948610   -0.1374830  
H     0.4173600    0.0913140    2.2353040  
H    -1.2601780   -1.7346540    3.2777540  
H    -3.4207880   -1.6598720    1.9782520  
C     3.4059450    0.1391780   -0.4232640  
C     2.0361900    0.1746940   -0.3748960  
C     1.6271850    1.5391480   -0.1711350  
C     2.8760530    2.3317380   -0.1040930  
N     3.9221990    1.4235350   -0.1970710  
C     2.9352610    3.6820200   -0.0014470  
C     1.6798160    4.4209960    0.0781440  
O     1.6259000    5.6384540    0.1462830  
C     0.3393720    3.6035620    0.0986280  
O    -0.7034030    4.1999410    0.3027390  
C     0.3929710    2.1319550   -0.0776570  
H     1.3818650   -0.6825720   -0.4291600  
H     3.8655020    4.2414730    0.0172000  
H     4.8511340    1.6950910   -0.4864890  
C     3.9804910   -2.0835910   -1.4202460  
C     4.2892290   -0.9808120   -0.6659240  
C     5.6571710   -1.1766200   -0.1857190  
C     6.1022530   -2.4809080   -0.7353500  
N     5.0285230   -2.9756610   -1.4604210  
C     7.3223670   -3.0320360   -0.5290010  
C     8.2814260   -2.3021410    0.3013160  
O     9.4053830   -2.7141450    0.5345470  
C     7.8248530   -0.9329200    0.9204760  
O     8.5993980   -0.3138930    1.6301340  
C     6.4717700   -0.4457430    0.6192840  
H     7.6236490   -3.9906640   -0.9398600  
H     6.1683990    0.4892240    1.0787420  
H     3.0669950   -2.2901250   -1.9621110  
H     5.0425340   -3.8281000   -1.9997390  
