62


C     3.2088530   -0.6834110   -0.0878400  
C     3.7838010    0.2493110    0.7432460  
C     5.2062870    0.1977830    0.5578340  
C     5.4615450   -0.7984880   -0.4135900  
N     4.2404380   -1.3834660   -0.7587580  
C     6.7467090   -1.0977280   -0.8705010  
C     7.8022630   -0.3814660   -0.3219770  
O     9.0754720   -0.6311660   -0.7338400  
C     7.5677350    0.6061030    0.6724320  
O     8.7171780    1.2181950    1.1261140  
C     6.2917900    0.8994110    1.1181690  
H     3.2502130    0.8576950    1.4604470  
H     4.0854060   -1.7262830   -1.7005900  
H     6.9471080   -1.8573180   -1.6190570  
H     9.6648840   -0.0377750   -0.2365330  
H     8.4925990    1.8899790    1.7869410  
H     6.1345740    1.6626130    1.8773510  
C    -0.6284370    1.6622300   -0.0761610  
C     0.7006570    1.2767320   -0.0381890  
C     0.7462530   -0.1359940   -0.2112580  
C    -0.5927550   -0.5792620   -0.3699010  
N    -1.4073730    0.5318910   -0.3175150  
C    -0.9661550   -1.9332060   -0.5383410  
C     0.1040640   -2.8356320   -0.5622770  
O    -0.1332900   -4.1665840   -0.7232390  
C     1.4525750   -2.4135700   -0.4347130  
O     2.3509700   -3.4569100   -0.4852880  
C     1.8143930   -1.0766540   -0.2618600  
H     1.5434890    1.9468370    0.0459720  
H    -2.3997850    0.4740510   -0.1307470  
H     0.7331100   -4.6133740   -0.7054690  
H     3.2383310   -3.1264270   -0.2454830  
C    -1.2154590    2.9677940    0.0436010  
C    -0.7109970    4.1094060    0.6131080  
C    -1.6863870    5.1539640    0.4682540  
C    -2.8344170    4.5456500   -0.2466430  
N    -2.5256150    3.1992620   -0.4222800  
C    -3.9417680    5.2226870   -0.6314750  
C    -4.0400700    6.6434990   -0.2926920  
O    -5.0031070    7.3294390   -0.5978050  
C    -2.8565810    7.2985550    0.5085680  
O    -2.9338100    8.4819130    0.8085750  
C    -1.7085110    6.4637240    0.8481750  
H     0.2332630    4.1875320    1.1326350  
H    -4.7700610    4.7646290   -1.1637660  
H    -0.8876640    6.9303140    1.3843110  
H    -2.9052440    2.6762120   -1.2004120  
C    -3.3402840   -1.6667650   -1.3954110  
C    -2.3676430   -2.3257770   -0.6971280  
C    -3.0903650   -3.4658920   -0.0848950  
C    -4.4960590   -3.3037160   -0.5546770  
N    -4.6283410   -2.2552380   -1.3211550  
C    -5.5363150   -4.2210390   -0.1702100  
C    -5.2087930   -5.2383950    0.6619650  
O    -6.0765200   -6.1620400    1.1063820  
C    -3.8065720   -5.4148270    1.1708430  
O    -3.5835250   -6.3596250    1.9259780  
C    -2.7526700   -4.4646230    0.7512300  
H    -6.5460840   -4.0781840   -0.5387080  
H    -5.5511160   -6.7578970    1.6841700  
H    -1.7497120   -4.6422000    1.1201220  
H    -3.2141320   -0.7857410   -2.0143510  
