60


C     4.9198140   -0.1569670    0.0648590  
C     5.5002760   -1.3590520    0.4763260  
C     6.8843260   -1.2882360    0.1874570  
C     7.1256240   -0.0139400   -0.4095570  
N     5.9278430    0.6450370   -0.4709650  
C     8.3997900    0.3938550   -0.8243670  
C     9.4447350   -0.4954920   -0.6345140  
O    10.7034460   -0.1548960   -1.0175960  
C     9.2230840   -1.7754940   -0.0384130  
O    10.3723310   -2.5313330    0.0742190  
C     7.9712400   -2.1765050    0.3694070  
H     4.9568080   -2.1710360    0.9319040  
H     5.7629290    1.5679800   -0.8443630  
H     8.5921420    1.3599420   -1.2787850  
H    11.2866310   -0.9039430   -0.8022460  
H    10.1628080   -3.3843690    0.4827690  
H     7.8210930   -3.1545860    0.8213330  
C     1.3594780   -2.1464930    1.6639280  
C     0.3889870   -1.2323520    1.4071380  
C     1.0620130   -0.1350530    0.7430460  
C     2.4981740   -0.5627210    0.6970530  
N     2.6504620   -1.7418010    1.2308660  
C     3.5481830    0.2803680    0.1288930  
C     3.1072890    1.5046960   -0.3266160  
O     3.9336190    2.4147910   -0.8964250  
C     1.6993410    1.9585180   -0.3077260  
O     1.4609910    3.0540890   -0.8215740  
C     0.6360120    1.0744060    0.2670280  
H    -0.6564460   -1.2839780    1.6706630  
H     3.3393460    3.1618700   -1.1471610  
H     1.2572200   -3.1062520    2.1562420  
C    -0.7440520    1.5099680    0.2727430  
C    -1.8640230    0.7211720    0.0856280  
C    -2.9872120    1.6064990    0.1590110  
C    -2.3701210    2.9446540    0.4087370  
N    -1.0701520    2.8850290    0.4766140  
C    -3.1608700    4.1361300    0.5442450  
C    -4.4978980    4.0254480    0.3710390  
O    -5.3460380    5.0634560    0.4278120  
C    -5.1559290    2.7089240    0.0731260  
O    -6.3759730    2.7461630   -0.1321300  
C    -4.3565630    1.4541440    0.0448260  
H    -1.8697730   -0.3229070   -0.1851200  
H    -2.6808390    5.0874850    0.7433060  
H    -6.2359200    4.6947290    0.2394100  
C    -5.0375890    0.1803050   -0.0756300  
C    -4.5633210   -1.0870990    0.2118290  
C    -5.6196260   -2.0249890   -0.0305640  
C    -6.7846000   -1.2262720   -0.4838690  
N    -6.3649840    0.0847210   -0.5011120  
C    -7.9946030   -1.7538930   -0.8006600  
C    -8.1725170   -3.1993710   -0.6981530  
O    -9.2235280   -3.7632530   -0.9619210  
C    -6.9486580   -4.0663330   -0.2245990  
O    -7.0769270   -5.2779140   -0.1332400  
C    -5.6935780   -3.3817090    0.0929900  
H    -3.5902620   -1.3275730    0.6086490  
H    -8.8384970   -1.1550280   -1.1283370  
H    -4.8554460   -3.9891250    0.4211640  
H    -6.9405910    0.9043830   -0.6382630  
