62


C     0.8327810   -0.9814690   -2.4722940  
C     0.0468520    0.0609660   -2.0490430  
C     0.7379940    0.7015580   -0.9641240  
C     1.9668790    0.0044860   -0.7985730  
N     1.9775850   -1.0274290   -1.7125330  
C     2.9537370    0.3519730    0.1514070  
C     2.6234000    1.4592550    0.9313060  
O     3.4962640    1.9035080    1.9024710  
C     1.4100760    2.1750040    0.8014830  
O     1.2899760    3.2164940    1.6932370  
C     0.4231080    1.8034760   -0.1155120  
H    -0.9057910    0.3414760   -2.4734790  
H     2.7655180   -1.6400990   -1.8625460  
H     3.0686490    2.7013670    2.2785100  
H     0.8993290    3.9741960    1.1920180  
H     0.6645260   -1.7040760   -3.2580650  
C    -3.6538330    0.1387520   -0.1021260  
C    -4.3680010    1.3094920   -0.2803430  
C    -3.4309990    2.3939080   -0.3438750  
C    -2.0864040    1.7866120   -0.1978380  
N    -2.2935200    0.4362240   -0.0536290  
C    -0.8933630    2.4765500   -0.1884130  
C    -1.0298820    3.9353590   -0.2175120  
O    -0.0982420    4.7122390    0.0021590  
C    -2.4284150    4.5932860   -0.5119990  
O    -2.4689650    5.8010400   -0.6961030  
C    -3.6005420    3.7369580   -0.5148070  
H    -5.4290140    1.4004790   -0.4594370  
H    -4.5715110    4.1968410   -0.6686820  
H    -1.5812190   -0.2860770   -0.0618540  
C    -7.5652040   -1.4526180    1.1265360  
C    -7.3437300   -2.7739980    0.9273960  
C    -5.9780200   -2.9151110    0.4641990  
C    -5.4218290   -1.5440250    0.3910200  
N    -6.4364820   -0.7050980    0.7754140  
C    -4.1298780   -1.2261330    0.0225830  
C    -3.2293000   -2.3753660   -0.1971410  
O    -2.0191830   -2.2665800   -0.3347590  
C    -3.8371730   -3.8225130   -0.2507450  
O    -3.1159770   -4.7414380   -0.5989720  
C    -5.2352180   -4.0048110    0.1350260  
H    -8.0460030   -3.5782800    1.0901600  
H    -5.6306160   -5.0155730    0.1500910  
H    -8.4510500   -0.9448810    1.4834890  
H    -6.2886340    0.2656750    1.0134710  
C     6.0520450   -1.0718620   -2.8039360  
C     4.9859270   -0.4448780   -2.2114630  
C     5.0206870   -0.7718720   -0.8082420  
C     6.1582970   -1.6000270   -0.6142800  
N     6.7552930   -1.7768920   -1.8464970  
C     6.5529570   -2.0796430    0.6401150  
C     5.7891680   -1.6856060    1.7254320  
O     6.1215710   -2.0871720    2.9833450  
C     4.6421280   -0.8603320    1.5644740  
O     3.9833910   -0.5927880    2.7462670  
C     4.2130620   -0.4156630    0.3114320  
H     4.2799430    0.2031660   -2.7103590  
H     7.6033610   -2.2963090   -2.0093080  
H     7.4259830   -2.7074720    0.7865210  
H     5.4615590   -1.6676120    3.5685910  
H     3.7626660    0.3651470    2.7542100  
H     6.3776410   -1.0682860   -3.8346390  
