60


C     3.4197690    4.3591590    0.5005470  
C     2.6178920    5.3759250    0.9150990  
C     1.2599000    4.8962140    0.8948440  
C     1.2922250    3.5509190    0.4570630  
N     2.6415000    3.2238640    0.2236220  
C     0.1266290    2.7993470    0.2680600  
C    -1.0859370    3.4116180    0.5587100  
O    -2.2435440    2.7153210    0.3881430  
C    -1.1328380    4.7510270    1.0209380  
O    -2.4071210    5.2125580    1.2666020  
C     0.0222360    5.4953180    1.1858920  
H     2.9514470    6.3589640    1.2179980  
H     0.1174670    1.7828090   -0.1063870  
H    -2.9816400    3.3143490    0.5961100  
H    -2.3755210    6.1438640    1.5317060  
H    -0.0299180    6.5277840    1.5244750  
H     4.4937180    4.2987530    0.4106040  
C     3.1696540    2.0437800   -0.2560220  
C     4.3048190    1.8456060   -0.9954940  
C     4.4565660    0.4288780   -1.1807570  
C     3.3101020   -0.2061900   -0.4901510  
N     2.5357710    0.8280130    0.0140550  
C     3.1214900   -1.5516740   -0.3573560  
C     4.0963720   -2.4272050   -1.0562550  
O     3.9514270   -3.6344010   -1.1224460  
C     5.3164960   -1.7695150   -1.7918350  
O     6.1466320   -2.5032860   -2.3086690  
C     5.4044450   -0.3170590   -1.8174510  
H     4.9355200    2.6165010   -1.4119440  
H     6.2557310    0.1296900   -2.3215540  
H     1.8581360    0.7020870    0.7528140  
C    -1.3926180   -1.2710980   -0.4094620  
C    -0.0549460   -1.0608910   -0.6980350  
C     0.6790390   -1.9072420    0.1913950  
C    -0.3814980   -2.6099280    0.9885170  
N    -1.5784360   -2.2354340    0.6352240  
C    -0.0622240   -3.5881340    1.9906850  
C     1.2473020   -3.8584270    2.1975930  
O     1.7007960   -4.7369450    3.0960100  
C     2.3516140   -3.1419840    1.4447670  
O     3.4991950   -3.3820430    1.8137630  
C     2.0134900   -2.1692750    0.3831530  
H     0.3566730   -0.4288340   -1.4717700  
H    -0.8517820   -4.0838210    2.5441070  
H     2.6828670   -4.6810140    3.0356310  
C    -2.6349590    0.2952630   -1.9673520  
C    -2.5515410   -0.6825570   -0.9985390  
C    -3.9630180   -0.9857800   -0.6827030  
C    -4.7352050   -0.0848870   -1.5786060  
N    -3.9390440    0.6551270   -2.3199810  
C    -6.1679480   -0.0661680   -1.5899640  
C    -6.8126320   -0.9080270   -0.7425330  
O    -8.1444030   -1.0006160   -0.6407260  
C    -6.0584510   -1.8322730    0.1806020  
O    -6.7212110   -2.5594430    0.9167050  
C    -4.5797960   -1.8293190    0.1663050  
H    -6.6999300    0.6015070   -2.2584530  
H    -8.3075640   -1.6866440    0.0449810  
H    -4.0470690   -2.4966940    0.8334840  
H    -1.8094280    0.7980350   -2.4572210  
