62


C     5.9026770    1.8419800    0.0385100  
C     7.1998160    1.7058720   -0.3569980  
C     7.4760350    0.2969400   -0.4454000  
C     6.2952880   -0.3880880   -0.0685650  
N     5.3253430    0.5792930    0.2288290  
C     6.2004770   -1.7834440   -0.0959640  
C     7.3254290   -2.4964970   -0.4816280  
O     7.2829880   -3.8600090   -0.5150560  
C     8.5214340   -1.8253260   -0.8447490  
O     9.5519110   -2.6708070   -1.2062530  
C     8.6066460   -0.4449200   -0.8330160  
H     7.8916290    2.5154910   -0.5465150  
H     5.3084580   -2.3223810    0.1966270  
H     8.1670970   -4.1701080   -0.7759750  
H    10.3534520   -2.1524510   -1.3704170  
H     9.5270260    0.0542490   -1.1295040  
H     5.3256790    2.7272750    0.2611880  
C     1.6143400    2.3262690   -1.2770590  
C     2.9065530    1.9566200   -1.1133800  
C     2.9558810    1.0426070    0.0077960  
C     1.5673670    0.9084270    0.4957750  
N     0.7833660    1.7062750   -0.3296190  
C     1.1785890    0.1281350    1.5449250  
C     2.1933420   -0.6465740    2.2353270  
O     1.9517740   -1.4198370    3.1503620  
C     3.6922010   -0.4935520    1.7783540  
O     4.5579430   -1.0593270    2.4177290  
C     3.9914850    0.3708780    0.6040820  
H     3.7439430    2.2721140   -1.7166830  
H     0.1574940    0.0779400    1.9052560  
H     1.1702190    2.9894460   -2.0048890  
C    -2.4180870   -1.2724590   -0.5170270  
C    -3.4835060   -0.3970650   -0.4161830  
C    -2.9145360    0.9310260   -0.2960940  
C    -1.5081510    0.7740910   -0.3315220  
N    -1.2400350   -0.5736530   -0.4810210  
C    -0.6234600    1.8674220   -0.2633550  
C    -1.1869250    3.1399470   -0.1710150  
O    -0.3779800    4.2321620   -0.1098630  
C    -2.5957630    3.3054080   -0.1695460  
O    -2.9856150    4.6241850   -0.0999640  
C    -3.4603860    2.2280670   -0.2310400  
H    -0.3219560   -0.9882030   -0.4076450  
H    -0.9534560    5.0154790   -0.0491860  
H    -3.9525050    4.6865980   -0.0934880  
H    -4.5349870    2.3868150   -0.2611570  
H    -2.4220030   -2.3509830   -0.5807300  
C    -4.8790390   -0.7719570   -0.4271610  
C    -5.5088400   -1.8259720   -1.0360110  
C    -6.9072420   -1.7731080   -0.7025360  
C    -7.0723700   -0.5878110    0.1746230  
N    -5.8247820    0.0187670    0.2546270  
C    -8.2397270   -0.2207730    0.7551080  
C    -9.4351060   -1.0163140    0.4749310  
O   -10.5298620   -0.7530710    0.9479130  
C    -9.2941200   -2.2507850   -0.4893680  
O   -10.2889090   -2.9160980   -0.7404120  
C    -7.9736010   -2.5543130   -1.0343230  
H    -5.0420680   -2.5360740   -1.7037970  
H    -8.3404720    0.6431810    1.4053760  
H    -7.8841450   -3.4207080   -1.6826580  
H    -5.5588750    0.5915710    1.0438850  
