64


C     1.5373530   -0.5427200   -0.7891050  
C     2.8305320   -0.1035640   -0.7854310  
C     2.8375100    1.2334200   -0.2357340  
C     1.4961560    1.5635980    0.0634730  
N     0.6945090    0.4618520   -0.3011160  
C     1.1559330    2.7721840    0.6786950  
C     2.1787230    3.6698560    0.9483940  
O     1.8874590    4.8616080    1.5407250  
C     3.5227480    3.3637080    0.6146080  
O     4.4208010    4.3587950    0.9322590  
C     3.8618660    2.1584890    0.0270670  
H     0.1394190    3.0465640    0.9246230  
H     2.7244990    5.3454030    1.6485340  
H     5.3206830    4.0647900    0.7255960  
H     4.8962070    1.9235160   -0.2080700  
H     1.1222020   -1.4716720   -1.1478540  
C    -1.7174260   -2.8172790    1.3688100  
C    -0.6480520   -2.0924290    0.9613410  
C    -1.2119110   -0.8921950    0.3574080  
C    -2.6822950   -1.0775760    0.4546680  
N    -2.9613270   -2.2002070    1.0697550  
C    -3.6460920   -0.1005230   -0.0461790  
C    -3.1000930    1.0898320   -0.4461030  
O    -3.8291460    2.1565720   -0.8131740  
C    -1.6324770    1.3312740   -0.5453160  
O    -1.2586320    2.4048050   -1.0166390  
C    -0.6731340    0.2672240   -0.1089900  
H     0.3997210   -2.3200730    1.0923840  
H    -3.1790550    2.8248110   -1.1202700  
H    -1.7216310   -3.7687870    1.8864810  
C    -6.5993860   -1.7792530    2.8685150  
C    -7.7293940   -1.5360290    2.1332180  
C    -7.2989500   -0.9791580    0.8820720  
C    -5.8823960   -0.8899960    0.9335060  
N    -5.4843380   -1.3553940    2.1695520  
C    -5.1013460   -0.3551040   -0.1215080  
C    -5.8119830   -0.0194600   -1.2865420  
O    -5.1478450    0.3824610   -2.4050200  
C    -7.2250060   -0.1149190   -1.3473320  
O    -7.7539770    0.2821120   -2.5649720  
C    -7.9753970   -0.5619960   -0.2793980  
H    -8.7486530   -1.7260300    2.4411250  
H    -4.5472480   -1.7304270    2.2887030  
H    -5.8231240    0.5979790   -3.0719570  
H    -8.7154050    0.1689800   -2.5487850  
H    -9.0604720   -0.6138060   -0.3477620  
H    -6.4905700   -2.2180380    3.8507590  
C     3.9919320   -1.3561900   -2.5880140  
C     5.1887880   -1.9915320   -2.7673850  
C     5.9313250   -1.8497260   -1.5461960  
C     5.1202500   -1.1085700   -0.6487860  
N     3.9306440   -0.8054380   -1.3090060  
C     5.5179020   -0.8197560    0.6635240  
C     6.7699000   -1.2609690    1.0649560  
O     7.2093860   -0.9973020    2.3318280  
C     7.6024830   -1.9874420    0.1743110  
O     8.8196470   -2.3542320    0.7194380  
C     7.1982990   -2.2875260   -1.1135990  
H     5.5104450   -2.4947110   -3.6690530  
H     4.8892820   -0.2799930    1.3624620  
H     8.0855310   -1.4099260    2.4220930  
H     9.3101280   -2.8911760    0.0798230  
H     7.8481210   -2.8564490   -1.7760010  
H     3.1637820   -1.2092310   -3.2663960  
