64


C     3.2601250   -0.6194020   -0.0651690  
C     3.7855450    0.3333100    0.7744590  
C     5.2156020    0.3103040    0.6389690  
C     5.5255250   -0.6912050   -0.3107780  
N     4.3289030   -1.3041880   -0.6919290  
C     6.8321690   -0.9697910   -0.7172490  
C     7.8534480   -0.2258440   -0.1410500  
O     9.1466000   -0.4544610   -0.5051580  
C     7.5636770    0.7676420    0.8309960  
O     8.6833260    1.4102590    1.3190130  
C     6.2663900    1.0400470    1.2276350  
H     3.2138960    0.9399240    1.4633770  
H     4.2127390   -1.6617930   -1.6337040  
H     7.0739910   -1.7338100   -1.4489960  
H     9.7043210    0.1582390    0.0048620  
H     8.4183070    2.0866830    1.9597270  
H     6.0674940    1.8088790    1.9713960  
C    -0.6238550    1.6537770   -0.2871690  
C     0.7155290    1.3003030   -0.2037690  
C     0.7966500   -0.1150480   -0.3152710  
C    -0.5297860   -0.5946660   -0.4917690  
N    -1.3725930    0.4908950   -0.4349300  
C    -0.8688390   -1.9500090   -0.6885360  
C     0.2117850   -2.8326890   -0.6564030  
O     0.0018470   -4.1689290   -0.8148620  
C     1.5474930   -2.3848230   -0.4574320  
O     2.4647830   -3.4142090   -0.4412310  
C     1.8796740   -1.0409150   -0.2908510  
H     1.5335940    1.9885240   -0.0502020  
H    -2.3527700    0.4461970   -0.6720460  
H     0.8739590   -4.5998720   -0.7606560  
H     3.3374470   -3.0578180   -0.1860040  
C    -1.2444200    2.9445190   -0.2038810  
C    -0.7204450    4.1939480   -0.4258440  
C    -1.7537470    5.1641020   -0.1996160  
C    -2.9601220    4.3938860    0.1881100  
N    -2.6183920    3.0464600    0.1036940  
C    -4.1401850    4.9511880    0.5484490  
C    -4.2579350    6.4097850    0.5195720  
O    -5.2865520    6.9943600    0.8233180  
C    -3.0073320    7.2456420    0.0629220  
O    -3.0995950    8.4654010    0.0233170  
C    -1.7864480    6.5261260   -0.2810330  
H     0.2823410    4.4007050   -0.7715680  
H    -5.0116030    4.3728130    0.8409550  
H    -0.9221320    7.1135050   -0.5758640  
H    -3.0683590    2.3631180    0.6991910  
C    -3.1267560   -1.8104500   -1.8331140  
C    -2.2628700   -2.3707020   -0.9113120  
C    -3.0200490   -3.3858360   -0.2136720  
C    -4.3277170   -3.3850880   -0.7597850  
N    -4.3636830   -2.4134070   -1.7412210  
C    -5.3408710   -4.2402070   -0.3065940  
C    -5.0238320   -5.1146870    0.7198540  
O    -5.9681130   -5.9746400    1.1986290  
C    -3.7183400   -5.1263620    1.2824980  
O    -3.5596580   -6.0527330    2.2963960  
C    -2.7241000   -4.2790600    0.8349580  
H    -5.1475630   -2.2258630   -2.3465190  
H    -6.3425110   -4.2416390   -0.7241870  
H    -5.5472110   -6.5022180    1.8993080  
H    -2.6406060   -6.0408140    2.6018740  
H    -1.7281860   -4.3165250    1.2671780  
H    -2.9336810   -1.0636890   -2.5915430  
