62


C    -3.9631830   -0.6244990   -0.1045550  
C    -4.1139370   -1.9551880   -0.4062130  
C    -5.4351500   -2.3272150    0.0111710  
C    -6.0474690   -1.1670260    0.5532050  
N    -5.1299770   -0.1349480    0.4651380  
C    -7.3545090   -1.1634030    1.0532290  
C    -8.0578400   -2.3571480    1.0073180  
O    -9.3317480   -2.4118290    1.4870140  
C    -7.4640550   -3.5286190    0.4626070  
O    -8.2943240   -4.6310110    0.4846010  
C    -6.1739080   -3.5269400   -0.0325990  
H    -3.3806820   -2.5768680   -0.9008440  
H    -5.2253160    0.7771070    0.8851170  
H    -7.8264290   -0.2783620    1.4669850  
H    -9.6520400   -3.3214890    1.3587770  
H    -7.8418260   -5.3894360    0.0868010  
H    -5.7409820   -4.4353880   -0.4460920  
C    -1.5493850   -0.1268860    0.1517550  
C    -0.6414100    0.8395770   -0.1647500  
C    -1.3890530    1.8963590   -0.8409300  
C    -2.8016700    1.4491710   -0.8895280  
N    -2.8435190    0.2045000   -0.2617800  
C    -3.8090950    2.1521590   -1.4666040  
C    -3.4969880    3.4462600   -2.0710550  
O    -4.3397340    4.1510190   -2.6039350  
C    -2.0073440    3.9419590   -2.0276260  
O    -1.7266720    5.0271240   -2.5111340  
C    -1.0057560    3.0742990   -1.3987660  
H    -4.8316270    1.7945990   -1.5189020  
H     0.0258030    3.4105300   -1.4040060  
H    -1.3968690   -1.0557520    0.6844510  
C     1.6108840   -0.2770230   -0.1327800  
C     0.7939350    0.7949800    0.1067070  
C     1.6278560    1.8318060    0.6881020  
C     2.9431430    1.3224820    0.7744210  
N     2.9220250    0.0166620    0.2523100  
C     3.9889630    2.0421670    1.3645540  
C     3.7053820    3.3177970    1.8343090  
O     4.6948870    4.0581550    2.4006960  
C     2.3937590    3.8501000    1.7399140  
O     2.2697960    5.1185460    2.2581660  
C     1.3566620    3.1176070    1.1898110  
H     4.9875680    1.6439680    1.4949270  
H     4.3088630    4.9105390    2.6682660  
H     1.3723430    5.4527070    2.1099020  
H     0.3515800    3.5288930    1.1543140  
H     1.3953980   -1.2153270   -0.6212130  
C     3.9746820   -0.8651370    0.1077180  
C     3.9569260   -2.2334000    0.1130970  
C     5.2973410   -2.6827870   -0.1532710  
C     6.1187490   -1.4583700   -0.3161720  
N     5.2701310   -0.3759870   -0.0893940  
C     7.4346730   -1.4526890   -0.6286820  
C     8.1143450   -2.7410820   -0.7877040  
O     9.2994840   -2.8296060   -1.0652390  
C     7.2749890   -4.0533050   -0.5762510  
O     7.8345010   -5.1337460   -0.6968360  
C     5.8563040   -3.9210240   -0.2578910  
H     3.1053460   -2.8565210    0.3423410  
H     8.0186830   -0.5457300   -0.7522460  
H     5.2820720   -4.8337470   -0.1316930  
H     5.4409220    0.5395900   -0.4827180  
