64


C     4.5004140    0.4530310   -0.0646530  
C     4.1847530   -0.6453870   -0.8285130  
C     5.2111350   -1.6313550   -0.6392620  
C     6.1517510   -1.0835650    0.2654350  
N     5.7469430    0.2182380    0.5637120  
C     7.2758580   -1.7862630    0.7051980  
C     7.4618910   -3.0705250    0.2106350  
O     8.5417060   -3.8026180    0.6107960  
C     6.5416350   -3.6278430   -0.7145820  
O     6.8681510   -4.9066210   -1.1243750  
C     5.4286130   -2.9274500   -1.1449820  
H     3.3359430   -0.7174720   -1.4938820  
H     5.9401010    0.6260070    1.4713120  
H     7.9969980   -1.3715460    1.4022000  
H     8.4928600   -4.6601700    0.1541910  
H     6.1950140   -5.2296710   -1.7413280  
H     4.7334130   -3.3768980   -1.8512300  
C     0.1409140    1.5933580    0.0278950  
C     1.3491760    0.8964980   -0.0178610  
C     2.3987510    1.8456780    0.0666690  
C     1.7899540    3.1312500    0.1778570  
N     0.4336090    2.9496910    0.1461260  
C     2.5273390    4.3130070    0.3093760  
C     3.9079170    4.1945090    0.3254150  
O     4.6837060    5.3078050    0.4317660  
C     4.5429670    2.9260030    0.2177800  
O     5.9225240    3.0040740    0.2321570  
C     3.8225910    1.7387890    0.0862600  
H     1.4253770   -0.1750860   -0.0925710  
H    -0.2770820    3.6639110    0.2116470  
H     2.0672140    5.2919200    0.3909090  
H     5.6102130    5.0126940    0.3756900  
H     6.2891050    2.1441860   -0.0475640  
C    -1.4207020   -2.4879320   -0.4174790  
C    -2.7579320   -2.2787020   -0.3704110  
C    -2.9134870   -0.8383450   -0.1951430  
C    -1.5188680   -0.3220460   -0.1629250  
N    -0.6574370   -1.2925710   -0.2954700  
C    -1.2181430    1.1092370   -0.0224710  
C    -2.3238760    1.9208550    0.0594040  
O    -2.2424790    3.2731230    0.2098910  
C    -3.7145320    1.4366430    0.0563540  
O    -4.6073940    2.2683890    0.2534260  
C    -4.0003030   -0.0254410   -0.1243300  
H    -3.5537720   -3.0029780   -0.4701740  
H    -3.1812410    3.5602050    0.2948380  
H    -0.8931750   -3.4255750   -0.5456010  
C    -6.1074620   -2.9432720    2.4626790  
C    -7.3550470   -2.8015630    1.9151750  
C    -7.2392190   -1.8523800    0.8444080  
C    -5.8788270   -1.4512950    0.7888750  
N    -5.2161970   -2.1254630    1.7916410  
C    -5.3985910   -0.4818740   -0.1233840  
C    -6.3366240    0.0460520   -1.0171720  
O    -5.9329380    0.9165690   -1.9804720  
C    -7.6942800   -0.3597190   -0.9801000  
O    -8.4791580    0.2517040   -1.9398650  
C    -8.1540660   -1.2870610   -0.0650010  
H    -8.2538600   -3.3087260    2.2376810  
H    -4.2239260   -2.0734510    1.9635410  
H    -6.7302940    1.2222490   -2.4471940  
H    -9.4043880   -0.0050480   -1.8136810  
H    -9.2026860   -1.5779870   -0.0556760  
H    -5.7693750   -3.5625850    3.2813600  
