60


C     4.8948670    0.2022600    0.1260590  
C     4.9831010   -1.0462500   -0.4906250  
C     6.3435630   -1.4437650   -0.4630280  
C     7.0728970   -0.4029240    0.1863340  
N     6.1767240    0.5732150    0.5301810  
C     8.4577040   -0.4660100    0.3867760  
C     9.1171390   -1.5940920   -0.0739550  
O    10.4631970   -1.7101970    0.0926710  
C     8.4050520   -2.6453780   -0.7257390  
O     9.2139250   -3.6938430   -1.1209750  
C     7.0432470   -2.5840200   -0.9228470  
H     4.1433970   -1.5819510   -0.9028560  
H     6.3767470    1.4450290    0.9986160  
H     9.0191390    0.3212590    0.8787260  
H    10.7306670   -2.5607710   -0.2972320  
H     8.6768510   -4.3665980   -1.5649830  
H     6.5183170   -3.3957630   -1.4222950  
C     0.6713530   -0.4133130   -0.8359250  
C     0.0790280    0.7339800   -0.3814940  
C     1.2110540    1.5202530    0.1592130  
C     2.4015590    0.6542750   -0.0555990  
N     2.0654470   -0.4615310   -0.6466470  
C     3.7516220    1.0543790    0.3603150  
C     3.8252980    2.2782510    0.9855670  
O     4.9882050    2.8135820    1.4495420  
C     2.6630430    3.1434940    1.2242290  
O     2.8446780    4.2228030    1.8063420  
C     1.3237370    2.7130630    0.7698890  
H     4.7166250    3.6778830    1.8371250  
H     0.5012290    3.3981900    0.9336390  
H     0.1900630   -1.2387710   -1.3457690  
C    -3.5049360   -1.7702400    0.2721380  
C    -2.2412380   -1.2854410    0.1917620  
C    -2.3196190    0.0961890   -0.2166630  
C    -3.7609820    0.3935690   -0.3637530  
N    -4.4448770   -0.7971820   -0.0934890  
C    -4.2727680    1.6199710   -0.6406070  
C    -3.3412810    2.7200560   -0.8299330  
O    -3.6967180    3.8662790   -1.0571270  
C    -1.8008800    2.4272550   -0.7278980  
O    -1.0346760    3.3584650   -0.9107070  
C    -1.3425010    1.0490830   -0.4178800  
H    -1.3417180   -1.8328670    0.4264440  
H    -5.3307930    1.8268300   -0.7267430  
H    -3.8514760   -2.7459280    0.5751540  
C    -6.9358530   -2.7234540    2.8739770  
C    -8.1686240   -2.5594810    2.3440630  
C    -7.9550240   -1.8574120    1.0815000  
C    -6.4731850   -1.6741690    1.0198170  
N    -5.8848040   -2.1820730    2.0606280  
C    -5.8364980   -0.9962050   -0.1017020  
C    -6.6477470   -0.5831300   -1.1197590  
O    -6.1992320    0.0059020   -2.2399740  
C    -8.1324260   -0.7508150   -1.0665290  
O    -8.7827830   -0.3463300   -2.0304170  
C    -8.7574530   -1.4130600    0.0965510  
H    -9.1204440   -2.8686450    2.7527300  
H    -7.0054610    0.1966000   -2.7711920  
H    -9.8381190   -1.5161330    0.0857610  
H    -6.6647040   -3.2001450    3.8077780  
