60


C     3.5750460   -1.4951590   -1.9133230  
C     4.8596690   -1.9221660   -2.0526880  
C     5.6360800   -1.3026610   -1.0106530  
C     4.7613780   -0.4762920   -0.2651240  
N     3.4817770   -0.5973440   -0.8380310  
C     5.1856460    0.2182540    0.8719000  
C     6.5201420    0.1074370    1.2345960  
O     6.9774680    0.7789340    2.3296430  
C     7.4135680   -0.6957610    0.4813840  
O     8.7049820   -0.7042740    0.9654490  
C     6.9852910   -1.4013780   -0.6293000  
H     5.2247170   -2.5870280   -2.8238510  
H     4.5340570    0.8531700    1.4571540  
H     7.9290670    0.5937820    2.4083360  
H     9.2697550   -1.2298090    0.3796370  
H     7.6774830   -2.0299760   -1.1856790  
H     2.6992710   -1.6905830   -2.5134110  
C    -0.5963910   -2.1944650   -0.2483960  
C     0.7526450   -2.1203630   -0.4929240  
C     1.1041420   -0.7336490   -0.3437660  
C    -0.1746270   -0.0563470   -0.0096550  
N    -1.1575240   -0.9106080    0.0411080  
C    -0.2828200    1.3832000    0.2394870  
C     0.8995600    2.0641760    0.1947890  
O     1.0131150    3.3779070    0.4700950  
C     2.2070410    1.4302430   -0.1598020  
O     3.1861850    2.1734250   -0.2340060  
C     2.2765410   -0.0337980   -0.4188050  
H     1.4311670   -2.9276570   -0.7280210  
H     1.9599090    3.5934630    0.3118640  
C    -1.0855220   -4.6599060   -0.3481220  
C    -1.4667950   -3.3457730   -0.2231380  
C    -2.9224940   -3.3634580   -0.0410210  
C    -3.3300890   -4.7889780   -0.0659030  
N    -2.1658850   -5.5123730   -0.2637060  
C    -4.6016140   -5.2382470    0.0770710  
C    -5.6639290   -4.2545500    0.2774230  
O    -6.8378260   -4.5595350    0.4165240  
C    -5.2573890   -2.7376780    0.3149800  
O    -6.1192880   -1.8962360    0.5173140  
C    -3.8471260   -2.3830810    0.1197890  
H    -4.8720120   -6.2893100    0.0482780  
H    -3.5714300   -1.3367310    0.1183900  
H    -0.0916410   -5.0645000   -0.4865330  
H    -2.1146780   -6.5186360   -0.3112450  
C    -2.6042640    1.3637570    1.1989880  
C    -1.5840710    1.9853920    0.5222280  
C    -2.1075050    3.2908250    0.1109230  
C    -3.4983230    3.3607450    0.6279970  
N    -3.7191470    2.1680730    1.2921770  
C    -4.3482680    4.4018620    0.4471950  
C    -3.8827010    5.5500830   -0.3241770  
O    -4.5711700    6.5362500   -0.5373270  
C    -2.4268110    5.4923100   -0.9091340  
O    -2.0189700    6.4324650   -1.5733170  
C    -1.6050220    4.3074620   -0.6376540  
H    -5.3615960    4.4174930    0.8366680  
H    -0.5998800    4.2998500   -1.0380780  
H    -2.6068080    0.3768920    1.6355290  
H    -4.6038210    1.8816680    1.6841500  
