64


C     3.8118750   -0.2550500   -2.3422450  
C     4.2557020   -1.4578580   -2.8185620  
C     4.9352680   -2.1168660   -1.7395580  
C     4.8626740   -1.2528340   -0.6150330  
N     4.1713920   -0.1081260   -1.0044450  
C     5.4049050   -1.5925350    0.6351300  
C     6.0470080   -2.8185090    0.7425590  
O     6.5900320   -3.1969460    1.9358580  
C     6.1394540   -3.6877800   -0.3754200  
O     6.8096430   -4.8673300   -0.1110060  
C     5.5903040   -3.3555840   -1.6008100  
H     4.1184310   -1.8307280   -3.8243560  
H     5.3082680   -0.9596050    1.5109160  
H     6.9780040   -4.0798000    1.8082660  
H     6.8161330   -5.4209030   -0.9057300  
H     5.6637180   -4.0441360   -2.4405280  
H     3.2770330    0.5426100   -2.8371030  
C     0.3738050    1.9227520    0.1202330  
C     1.3063320    1.0445370   -0.3821740  
C     2.6068740    1.5132060    0.0028710  
C     2.4210140    2.6989220    0.7534060  
N     1.0572740    2.9736990    0.7658980  
C     3.4751560    3.4040430    1.3391370  
C     4.7569600    2.9080540    1.1445780  
O     5.8254830    3.5512060    1.6925190  
C     4.9817310    1.7474500    0.3596260  
O     6.3089210    1.4203370    0.2071640  
C     3.9220980    1.0455460   -0.2120060  
H     1.0873190    0.1887620   -1.0039040  
H     0.6229720    3.4938600    1.5181470  
H     3.3302930    4.3024760    1.9298820  
H     6.6184570    3.0386290    1.4543150  
H     6.3941430    0.5040670   -0.1082410  
C    -2.6614680   -1.3573250    0.2701980  
C    -1.5018890   -0.6393970    0.2809320  
C    -1.8477860    0.7372430    0.0508830  
C    -3.2545840    0.7945640   -0.1001690  
N    -3.7472340   -0.5091140    0.0317410  
C    -3.9484510    1.9977960   -0.2587610  
C    -3.1986780    3.1631820   -0.2949160  
O    -3.8226440    4.3632800   -0.4696990  
C    -1.7895220    3.1308260   -0.1640400  
O    -1.1950090    4.3764520   -0.2378670  
C    -1.0855880    1.9343070    0.0098520  
H    -0.5111450   -1.0416910    0.4330580  
H    -5.0223240    2.0518310   -0.3829480  
H    -3.1251880    5.0388340   -0.5350850  
H    -0.2372540    4.2629680   -0.3740380  
H    -2.8281460   -2.4200500    0.3656310  
C    -6.0630780   -3.0510060    2.7437250  
C    -5.0894470   -2.2849160    2.1871180  
C    -5.6173610   -1.7547870    0.9470130  
C    -6.9957660   -2.2795320    0.8242060  
N    -7.1968640   -3.0707340    1.9377080  
C    -7.8617630   -1.9916590   -0.1848110  
C    -7.4084030   -1.1052490   -1.2397860  
O    -8.1114050   -0.7332100   -2.1675050  
C    -5.9216070   -0.5838770   -1.1893340  
O    -5.4972630    0.0614630   -2.1293600  
C    -5.0859370   -0.9281510   -0.0086630  
H    -4.1106430   -2.0926540    2.5987460  
H    -8.8740260   -2.3800590   -0.2322710  
H    -6.0548740   -3.6012240    3.6751280  
H    -8.0642090   -3.5323790    2.1619020  
