62


C     4.2166580    0.3648720    0.0105630  
C     2.9340640   -0.0623560   -0.3159420  
C     2.2014460    1.0738290   -0.7854540  
C     3.0860260    2.1821480   -0.7334070  
N     4.2901120    1.7239250   -0.2417830  
C     2.7129670    3.4757730   -1.1064670  
C     1.4085970    3.6670580   -1.5398650  
O     1.0050100    4.9049470   -1.9365180  
C     0.4929980    2.5880530   -1.5836420  
O    -0.7506360    2.9449330   -2.0568320  
C     0.8573010    1.2836520   -1.2089860  
H     2.5364870   -1.0461540   -0.1100260  
H     5.1451720    2.2571250   -0.1860440  
H     3.3957160    4.3185470   -1.0757130  
H     0.0818540    4.8282960   -2.2354350  
H    -1.2650540    2.1423750   -2.2583030  
C    -0.0989560    0.1901500   -1.2773340  
C     0.0696250   -1.1301300   -1.5940220  
C    -1.2068090   -1.7898940   -1.5262690  
C    -2.1800500   -0.7601250   -1.1210690  
N    -1.4832180    0.4478350   -1.0688890  
C    -3.5016370   -0.9779300   -0.8203420  
C    -3.9693020   -2.3738440   -1.0216930  
O    -5.1249620   -2.7160470   -0.8357490  
C    -2.9572720   -3.4701230   -1.5251410  
O    -3.3796600   -4.6067950   -1.6797750  
C    -1.5766350   -3.0838180   -1.7513500  
H     0.9965060   -1.5885750   -1.9054730  
H    -0.8739260   -3.8506310   -2.0612470  
H    -1.7710930    1.1447770   -0.3857940  
C    -4.3452980    1.4136580   -0.6973740  
C    -4.4063050    0.0792080   -0.3828620  
C    -5.5590940    0.0014110    0.5552750  
C    -6.0367880    1.4087170    0.6604200  
N    -5.3281130    2.2170090   -0.0836740  
C    -7.1481710    1.7836970    1.4927480  
C    -7.7546930    0.8121520    2.2153140  
O    -8.7943020    1.0156330    3.0391900  
C    -7.2868600   -0.6131390    2.1500650  
O    -7.8741110   -1.4409760    2.8433580  
C    -6.1533360   -0.9749120    1.2673520  
H    -7.4666240    2.8194630    1.5312080  
H    -9.0058370    0.1327310    3.4151190  
H    -5.8813700   -2.0214970    1.2213340  
H    -3.6601780    1.8947330   -1.3845860  
C     7.5029050    1.3955300    2.9216930  
C     6.3674370    1.4336490    2.1524600  
C     6.3012640    0.1917510    1.4303230  
C     7.4355500   -0.5680140    1.8184650  
N     8.1510610    0.1943160    2.7195990  
C     7.6930580   -1.8583470    1.3399630  
C     6.7834840   -2.3973130    0.4447500  
O     6.9920460   -3.6428100   -0.0694010  
C     5.6394490   -1.6642580    0.0398940  
O     4.8461670   -2.3256540   -0.8714090  
C     5.3757030   -0.3745300    0.5089360  
H     5.6460260    2.2383230    2.1426230  
H     9.0006800   -0.0948320    3.1783390  
H     8.5627620   -2.4355070    1.6366530  
H     6.2702840   -3.8154770   -0.6991320  
H     4.2363000   -1.6788420   -1.2732860  
H     7.9030330    2.1282380    3.6080610  
