62


C     5.0405310   -0.9926470   -1.9114240  
C     4.9802730   -0.1840210   -0.7824710  
C     6.3208190   -0.1920700   -0.2142630  
C     7.1195900   -1.0100120   -1.0522090  
N     6.3093290   -1.4661320   -2.0791550  
C     8.4677070   -1.2861010   -0.8060730  
C     9.0353520   -0.7295370    0.3298080  
O    10.3471080   -0.9618280    0.6229010  
C     8.2537800    0.0784170    1.1931610  
O     8.9485980    0.5578290    2.2883560  
C     6.9202420    0.3459200    0.9425040  
H     6.6021500   -2.0838320   -2.8205040  
H     9.0678370   -1.9138440   -1.4568810  
H    10.5447940   -0.4834330    1.4466690  
H     8.3684330    1.1330850    2.8086540  
H     6.3554800    0.9812730    1.6149070  
H     4.2485710   -1.2619130   -2.5906630  
C     0.8093580   -1.4048030   -1.2413840  
C     0.1138570   -0.3936620   -0.6484650  
C     1.1718940    0.5301710   -0.1814730  
C     2.4510870   -0.1089510   -0.6079690  
N     2.2176320   -1.2374930   -1.2196020  
C     3.7653750    0.4836380   -0.3294950  
C     3.7262590    1.6699720    0.3611680  
O     4.8277080    2.4005510    0.6627710  
C     2.4748960    2.3030370    0.8262780  
O     2.5484360    3.3799140    1.4314040  
C     1.1704110    1.6690290    0.5330460  
H     4.4730130    3.1903240    1.1298460  
H     0.2787440    2.1722080    0.8926300  
H     0.3997260   -2.2870290   -1.7178730  
C    -2.9317310   -3.3698380    0.7358660  
C    -1.7671170   -2.7492570    0.3672800  
C    -2.1026620   -1.4022670    0.0019290  
C    -3.5039960   -1.2637050    0.1815190  
N    -3.9821490   -2.4806090    0.6152420  
C    -4.2086340   -0.0708400   -0.0942970  
C    -3.4321120    1.0086200   -0.5292250  
O    -4.0252030    2.2091190   -0.7631360  
C    -2.0332370    0.8923660   -0.6962370  
O    -1.4398170    2.0621640   -1.1413910  
C    -1.3361760   -0.2907510   -0.4443860  
H    -0.7839440   -3.1962430    0.3655940  
H    -4.9389410   -2.6631650    0.8770150  
H    -3.3461420    2.7931010   -1.1459680  
H    -0.5876630    1.8536910   -1.5553210  
H    -3.1061640   -4.3798180    1.0785300  
C    -7.2120730   -0.8647770    3.1392120  
C    -6.0318120   -0.7398500    2.4828170  
C    -6.3897490   -0.2890130    1.1400640  
C    -7.8782690   -0.1899060    1.1824910  
N    -8.3524400   -0.5289630    2.3500630  
C    -8.6443470    0.2541690    0.0466880  
C    -7.9669130    0.5753580   -1.0781900  
O    -8.5475860    0.9952990   -2.2145540  
C    -6.4680840    0.4453720   -1.1734300  
O    -5.9643350    0.6359740   -2.2745190  
C    -5.6712050    0.0359820    0.0317890  
H    -5.0339410   -0.9011700    2.8650710  
H    -9.7246140    0.3213370    0.1119510  
H    -7.8128610    1.0950670   -2.8591610  
H    -7.3702470   -1.1696820    4.1672100  
