62


C    -1.5457850   -2.9063830    1.8128370  
C    -2.1710450   -1.7098170    1.5609250  
C    -3.2065640   -1.9613360    0.5930380  
C    -3.1640790   -3.3518910    0.3096470  
N    -2.1331210   -3.8958130    1.0507430  
C    -4.0668500   -3.9851600   -0.5502420  
C    -5.0566260   -3.1939360   -1.1114030  
O    -5.9860050   -3.7448220   -1.9370460  
C    -5.1319390   -1.8001790   -0.8447030  
O    -6.1616410   -1.1680900   -1.5056840  
C    -4.1986830   -1.1469850   -0.0339190  
H    -1.9446650   -0.7687900    2.0405570  
H    -1.8877330   -4.8730660    1.0719670  
H    -4.0364320   -5.0489430   -0.7625020  
H    -6.5871450   -3.0140340   -2.1788350  
H    -6.5761410   -0.5469910   -0.8670370  
H    -0.7371280   -3.1405380    2.4910820  
C    -0.9917180    1.9545680   -0.1679250  
C    -1.7036990    0.7908980   -0.3329900  
C    -3.0505540    1.0799920    0.0694980  
C    -3.0091130    2.5251410    0.4501540  
N    -1.8218890    3.0354110    0.3174790  
C    -4.1869460    3.2149000    0.9143000  
C    -5.3401700    2.5121320    0.9419330  
O    -6.5252490    3.0278680    1.3090660  
C    -5.4090010    1.0623900    0.5248400  
O    -6.5504410    0.5672730    0.5160250  
C    -4.1898140    0.3198820    0.1669990  
H    -1.3636570   -0.1383920   -0.7630690  
H    -4.1361250    4.2597120    1.1984690  
H    -7.1730330    2.2981320    1.1965500  
C     2.2889650   -0.8672250    0.4458260  
C     3.3554960   -0.0390430    0.1224790  
C     2.7628940    1.2410070   -0.2290130  
C     1.3604170    1.1053150   -0.0988220  
N     1.1135860   -0.1860840    0.3243430  
C     0.4323680    2.1530050   -0.3440070  
C     0.9912650    3.3789700   -0.7597970  
O     0.2006700    4.4270540   -1.0798600  
C     2.3922610    3.5132640   -0.9207490  
O     2.7759910    4.7656060   -1.3621630  
C     3.2715210    2.4775310   -0.6752310  
H     0.2034930   -0.5590930    0.5633820  
H     0.7887980    5.1625690   -1.3299970  
H     3.7426080    4.8146420   -1.3971900  
H     4.3378350    2.6250640   -0.7994960  
H     2.3039310   -1.9047330    0.7357520  
C     5.0804460   -4.0176260   -0.5264170  
C     6.4052650   -3.7872220   -0.4000540  
C     6.5151710   -2.3612910   -0.1082490  
C     5.0999300   -1.8704740   -0.1015610  
N     4.2749750   -2.8458900   -0.3496180  
C     4.7527870   -0.4632810    0.1479170  
C     5.8235000    0.3506460    0.4131720  
O     5.7130780    1.6637750    0.7284440  
C     7.2337770   -0.1158740    0.4128740  
O     8.1174000    0.7068940    0.6770050  
C     7.5443360   -1.5302370    0.1265860  
H     7.2226000   -4.4887640   -0.4936190  
H     6.6405420    1.9527860    0.8871210  
H     8.5898690   -1.8233400    0.1342410  
H     4.5802210   -4.9541350   -0.7419300  
