60


C     5.5036580   -1.6332600   -2.6169660  
C     6.8554360   -1.8195830   -2.6040500  
C     7.3333340   -1.3963410   -1.3152960  
C     6.2076630   -0.9551560   -0.5764030  
N     5.0843410   -1.0936650   -1.3980720  
C     6.3028540   -0.5284560    0.7538440  
C     7.5638740   -0.5068240    1.3324320  
O     7.7080300   -0.0912730    2.6236020  
C     8.7051380   -0.9196590    0.5973070  
O     9.8861700   -0.8398530    1.3077750  
C     8.6022730   -1.3668750   -0.7080060  
H     7.4498500   -2.2007930   -3.4231560  
H     5.4434520   -0.2316920    1.3436760  
H     8.6524090   -0.1602650    2.8462490  
H    10.6181430   -1.1579200    0.7588900  
H     9.4870500   -1.6976060   -1.2483530  
H     4.7764810   -1.7962470   -3.3990540  
C     2.6545530   -1.5720710   -1.3384630  
C     3.7545790   -0.8203010   -1.0726900  
C     3.2299610    0.4468130   -0.5196410  
C     1.7590550    0.2282900   -0.4873980  
N     1.4355340   -0.9321970   -0.9819910  
C     0.8478560    1.2451400    0.0048120  
C     1.3944830    2.4470430    0.3400360  
O     0.6846280    3.4865840    0.8038060  
C     2.8685100    2.7085410    0.2534000  
O     3.2719860    3.8221740    0.5853730  
C     3.7758440    1.6329530   -0.1988210  
H     1.3436460    4.1983210    0.9640700  
H     4.8373560    1.8553450   -0.2358270  
H     2.6228010   -2.5605600   -1.7791630  
C    -1.3104760   -1.6314660    2.4730300  
C    -2.5983270   -1.4583880    2.0819520  
C    -2.5538860   -0.4137210    1.0730410  
C    -1.0992550   -0.0674500    0.9823740  
N    -0.3829220   -0.7828990    1.7986550  
C    -0.5991440    0.9712580    0.1021410  
C    -1.5346080    1.6843320   -0.5804800  
O    -1.2335740    2.6986970   -1.4051780  
C    -2.9988590    1.3896680   -0.4850510  
O    -3.7526150    2.1465720   -1.1048920  
C    -3.4951420    0.2288680    0.3164530  
H    -3.4763090   -1.9437750    2.4794550  
H    -2.0908370    3.0396750   -1.7385400  
H    -0.9323510   -2.3122580    3.2263560  
C    -4.9008400   -0.1410470    0.2512470  
C    -5.4824890   -1.3526860    0.5569250  
C    -6.8913160   -1.2474420    0.2946970  
C    -7.1152930    0.1315890   -0.2055300  
N    -5.8841230    0.7490550   -0.1902470  
C    -8.3239960    0.6192680   -0.5855430  
C    -9.4875190   -0.2575240   -0.4942930  
O   -10.6139700    0.0920090   -0.8125640  
C    -9.2740690   -1.7211740    0.0420130  
O   -10.2360130   -2.4688580    0.1285260  
C    -7.9190640   -2.1337720    0.4172330  
H    -4.9652550   -2.2432540    0.8776830  
H    -8.4704590    1.6305000   -0.9518210  
H    -7.7819510   -3.1473080    0.7819330  
H    -5.6497150    1.6339730   -0.6182200  
