66


C     4.0451490    0.7344430   -0.0954760  
C     4.0828250    2.1193980   -0.1825310  
C     2.7395930    2.5814270   -0.3399640  
C     1.9063900    1.4314340   -0.3576490  
N     2.7230130    0.3375560   -0.2066100  
C     0.4983940    1.4875030   -0.4979570  
C    -0.0413190    2.7782920   -0.5677530  
O    -1.4008940    2.9483790   -0.6753570  
C     0.7771440    3.9335310   -0.5476000  
O     0.0638410    5.1165810   -0.6452550  
C     2.1526640    3.8577340   -0.4480270  
H     4.9731550    2.7310180   -0.2237980  
H     2.4224700   -0.6237880   -0.1582840  
H    -1.5700020    3.9064250   -0.6979740  
H     0.6783130    5.8645700   -0.6247750  
H     2.7590130    4.7611610   -0.4394450  
C     8.0079760    1.2252730    1.7689200  
C     8.4857110   -0.0362070    1.5319450  
C     7.4462710   -0.7599820    0.8553060  
C     6.3555910    0.1323850    0.6939510  
N     6.7337890    1.3406950    1.2439380  
C     5.1278780   -0.2302140    0.0885210  
C     5.0338890   -1.5700640   -0.3088870  
O     3.8719790   -2.0466700   -0.8684970  
C     6.1166800   -2.4697700   -0.1603780  
O     5.8431150   -3.7429430   -0.6316810  
C     7.3198090   -2.0861330    0.3993330  
H     9.4621780   -0.4105440    1.8071490  
H     6.0898060    2.0951570    1.4269060  
H     4.0251220   -2.9850610   -1.0770950  
H     6.6182200   -4.3083810   -0.5011950  
H     8.1361600   -2.7980470    0.5017130  
H     8.4741690    2.0673010    2.2610240  
C    -0.3218470    0.2792500   -0.5696820  
C     0.0055990   -1.0024170   -0.9892190  
C    -1.1667690   -1.8116200   -0.8698130  
C    -2.1985080   -0.9741540   -0.3685230  
N    -1.6571720    0.2784090   -0.1918310  
C    -3.5155990   -1.4175320   -0.1190420  
C    -3.7697900   -2.7603190   -0.4027450  
O    -5.0227330   -3.2688040   -0.2346560  
C    -2.7460110   -3.6132970   -0.8965860  
O    -3.1702200   -4.9124130   -1.1241020  
C    -1.4619220   -3.1643270   -1.1336250  
H     0.9525950   -1.3140040   -1.4076990  
H    -2.1554260    1.1075930    0.0969190  
H    -4.9774260   -4.2142530   -0.4583680  
H    -2.4230530   -5.4405380   -1.4408960  
H    -0.7013250   -3.8424270   -1.5163880  
C    -5.1103710    2.3047240   -1.8672860  
C    -6.0166350    2.6113950   -0.8849040  
C    -5.9254320    1.5800360    0.1101260  
C    -4.9340990    0.6647980   -0.3306830  
N    -4.4605340    1.1299680   -1.5414890  
C    -4.5651930   -0.4960450    0.3838420  
C    -5.2329650   -0.7062140    1.5908410  
O    -4.9137470   -1.7777460    2.3709910  
C    -6.2324500    0.1959320    2.0425850  
O    -6.7943270   -0.1627360    3.2575710  
C    -6.5854100    1.3240320    1.3280520  
H    -6.6759580    3.4687260   -0.8725690  
H    -3.7251750    0.6948240   -2.0766190  
H    -5.5090850   -1.7550320    3.1397240  
H    -7.4816710    0.4778050    3.4916340  
H    -7.3549100    1.9965890    1.7029430  
H    -4.8703990    2.8255600   -2.7836080  
