60


C    -5.2183730   -0.8090260   -2.1481830  
C    -6.2839140   -0.1137340   -2.6477360  
C    -6.7902510    0.7110140   -1.5862780  
C    -5.9850360    0.4673890   -0.4454080  
N    -5.0168840   -0.4702320   -0.8058840  
C    -6.1790570    1.1342820    0.7696940  
C    -7.2168330    2.0503490    0.8367040  
O    -7.4548010    2.7230870    1.9999440  
C    -8.0401190    2.3001530   -0.2935760  
O    -9.0282240    3.2408470   -0.0692930  
C    -7.8389430    1.6470150   -1.4946830  
H    -6.6808480   -0.1982260   -3.6504870  
H    -5.5798980    0.9396150    1.6507770  
H    -8.2422070    3.2757490    1.8564070  
H    -9.6179130    3.2778620   -0.8367090  
H    -8.4757290    1.8584440   -2.3515620  
H    -4.6048850   -1.5752400   -2.6017050  
C    -0.7892840   -0.2703920   -1.5593790  
C    -0.3087100   -0.9739430   -0.4888150  
C    -1.4812540   -1.3661640    0.3015980  
C    -2.6552110   -0.8203280   -0.4124880  
N    -2.1697350   -0.1765640   -1.5311280  
C    -3.9546270   -0.9502240   -0.0120220  
C    -4.2100630   -1.6743030    1.2431080  
O    -5.3279010   -1.8758880    1.6838610  
C    -2.9626530   -2.2023850    2.0477170  
O    -3.1580840   -2.7311920    3.1295050  
C    -1.6240930   -2.0278120    1.4786760  
H    -0.7887010   -2.4518340    2.0224570  
H    -0.2349790    0.1644490   -2.3804510  
H    -2.7529920    0.2586240   -2.2306570  
C     3.2615050    1.6462920   -0.5027120  
C     1.9982560    1.1548310   -0.5362890  
C     2.0769160   -0.2715380   -0.3059420  
C     3.5140840   -0.5763390   -0.1284850  
N     4.2002490    0.6337390   -0.2750160  
C     4.0122980   -1.7978070    0.1850410  
C     3.0735880   -2.8992930    0.3414810  
O     3.4111870   -4.0280960    0.6617730  
C     1.5454540   -2.6199660    0.1015230  
O     0.7673650   -3.5552650    0.1816830  
C     1.1062290   -1.2392390   -0.2183300  
H     1.0981760    1.7305710   -0.6897790  
H     5.0678830   -1.9991410    0.3232120  
H     3.6101930    2.6612620   -0.6371420  
C     6.6585200    3.2830220    2.2003870  
C     5.6198290    2.5832990    1.6679860  
C     6.1648790    1.7330170    0.6352090  
C     7.6231110    1.9971030    0.6033970  
N     7.8511930    2.9578920    1.5716180  
C     8.5114990    1.3766620   -0.2144700  
C     8.0058460    0.3799920   -1.1492030  
O     8.7207850   -0.2663350   -1.8971820  
C     6.4536970    0.1228080   -1.1995070  
O     6.0038390   -0.6189930   -2.0531970  
C     5.5954890    0.8249750   -0.2172840  
H     4.5874750    2.6383260    1.9786420  
H     9.5777240    1.5787260   -0.2035020  
H     6.6533760    4.0068710    3.0045600  
H     8.7595800    3.3165070    1.8216740  
