62


C    -3.2215780    2.8127330    2.2530120  
C    -4.0941400    1.8667160    1.7842510  
C    -3.3800640    1.0808880    0.8187830  
C    -2.0677720    1.6083530    0.7377970  
N    -2.0037300    2.6689920    1.6129600  
C    -1.0391950    1.0544520   -0.0687960  
C    -1.4055270   -0.0816770   -0.8142210  
O    -0.5402310   -0.6609460   -1.6873790  
C    -2.7174490   -0.6145750   -0.7404750  
O    -2.9120800   -1.7056960   -1.5627890  
C    -3.7230630   -0.0645970    0.0552020  
H    -5.1246080    1.7401370    2.0818160  
H    -1.1502330    3.1494550    1.8549330  
H    -1.0421770   -1.3614730   -2.1441800  
H    -3.8657760   -1.8955980   -1.6086790  
H    -3.3649960    3.5939670    2.9858670  
C     0.2879850    1.6396580   -0.1149900  
C     0.6498490    2.9567870    0.0241290  
C     2.0870010    2.9895540   -0.0884720  
C     2.4762040    1.5536740   -0.2666520  
N     1.4321440    0.7825930   -0.2838300  
C     3.8682480    1.1218930   -0.4057120  
C     4.7813750    2.1395870   -0.4460500  
O     6.0975630    1.9609150   -0.6596260  
C     4.4164710    3.5861240   -0.2767130  
O     5.3395900    4.4054400   -0.3222620  
C     3.0171500    3.9706680   -0.0852190  
H    -0.0003290    3.8188370    0.0840130  
H     6.4802640    2.8688610   -0.6257570  
H     2.7990990    5.0270730    0.0361560  
C     3.3210440   -1.2356370   -1.0657760  
C     4.1775540   -0.3030090   -0.5335640  
C     5.3638400   -1.0440050   -0.0925930  
C     5.1211360   -2.4656950   -0.4526050  
N     3.8761940   -2.4995380   -1.0478840  
C     5.9731340   -3.4932990   -0.2090010  
C     7.2254140   -3.2075650    0.4801220  
O     8.0568270   -4.0637270    0.7434940  
C     7.4931570   -1.7218200    0.9102960  
O     8.5245780   -1.4574750    1.5091240  
C     6.4944690   -0.6994690    0.5787570  
H     5.7595630   -4.5208310   -0.4878210  
H     6.7156190    0.3185600    0.8696470  
H     2.3209120   -1.0800180   -1.4430790  
H     3.4112370   -3.3375850   -1.3606990  
C    -7.7955110    1.5231680   -1.0625260  
C    -6.4512830    1.3934870   -0.8273040  
C    -6.2373060    0.0646470   -0.3278620  
C    -7.5060580   -0.5728600   -0.2870800  
N    -8.4353110    0.3406370   -0.7395370  
C    -7.6822650   -1.8951990    0.1385510  
C    -6.5527270   -2.5919440    0.5354290  
O    -6.6651340   -3.8779820    0.9762620  
C    -5.2718420   -1.9811250    0.4949260  
O    -4.2521160   -2.8011900    0.9332290  
C    -5.0835660   -0.6639600    0.0674770  
H    -5.7009060    2.1544940   -0.9842270  
H    -9.4253050    0.1709730   -0.8224360  
H    -8.6528010   -2.3793240    0.1767490  
H    -5.7776060   -4.1643260    1.2544160  
H    -3.4481330   -2.2689910    1.0581610  
H    -8.3589830    2.3665550   -1.4359690  
