60


C    -4.5777280   -3.2537010    0.5388600  
C    -5.6955460   -3.3376760   -0.2614410  
C    -5.9729580   -2.0134030   -0.7185170  
C    -4.9948980   -1.1539830   -0.1353010  
N    -4.1759880   -1.9458330    0.6457880  
C    -4.9858230    0.2470240   -0.3427240  
C    -5.9273160    0.7216800   -1.2791890  
O    -5.9037530    2.0219450   -1.6693380  
C    -6.8983880   -0.1309280   -1.8660900  
O    -7.7568050    0.5261360   -2.7312830  
C    -6.9513740   -1.4768330   -1.5798780  
H    -6.2461290   -4.2366980   -0.5022670  
H    -3.2257300   -1.6757450    0.8953710  
H    -6.6489870    2.1485180   -2.2833400  
H    -8.3562110   -0.1155880   -3.1393250  
H    -7.7112380   -2.1124190   -2.0302780  
H    -4.0108400   -4.0299000    1.0329700  
C    -0.6701150    0.1060780    0.7047990  
C    -0.4760950    1.3909450    1.1628040  
C    -1.7691090    2.0171220    1.1510680  
C    -2.6844340    0.9790590    0.5702000  
N    -2.0381210   -0.1215740    0.3268750  
C    -4.1055040    1.2102490    0.3556460  
C    -4.5757220    2.3799910    0.8980610  
O    -5.8670630    2.7161960    0.9475940  
C    -3.6862500    3.4293740    1.5145150  
O    -4.2382510    4.4495580    1.9393900  
C    -2.2469240    3.2032930    1.5984480  
H     0.4276610    1.8121200    1.5791220  
H    -5.8770430    3.6051320    1.3743100  
H    -1.6377930    3.9825540    2.0455890  
C     3.7108350    0.0137450   -0.1810540  
C     2.3845530    0.3824550    0.0254930  
C     1.6276710   -0.7778560    0.3181820  
C     2.5762810   -1.9087750    0.2551270  
N     3.8307220   -1.3633620    0.0216750  
C     2.2399610   -3.2158900    0.3733450  
C     0.8379960   -3.5454560    0.6001780  
O     0.4259340   -4.6929560    0.6553960  
C    -0.1794370   -2.3695730    0.8112100  
O    -1.2962280   -2.6733500    1.2058670  
C     0.2726850   -0.9781010    0.5907640  
H     2.0151070    1.3950190   -0.0139610  
H     2.9547410   -4.0290880    0.2918610  
H     4.5868490   -1.9048910   -0.3717710  
C     4.8069230    2.0989610   -1.0694100  
C     4.8293260    0.8234730   -0.5300760  
C     6.2661640    0.5095950   -0.4198460  
C     6.9375430    1.7216660   -0.9590590  
N     6.0584560    2.6369330   -1.3282410  
C     8.3591880    1.8345090   -1.0224740  
C     9.1002300    0.7941270   -0.5532890  
O    10.4385990    0.7681920   -0.5551350  
C     8.4596530   -0.4322030    0.0270940  
O     9.1978150   -1.3285790    0.4398210  
C     6.9888100   -0.5169760    0.0810800  
H     8.8163990    2.7307810   -1.4264300  
H    10.6864080   -0.0936940   -0.1517390  
H     6.5738920   -1.4046710    0.5479080  
H     3.9242460    2.6763290   -1.3203680  
