60


C    -4.5684020    0.4270970   -2.5201120  
C    -5.7167100    0.0786400   -1.8594660  
C    -5.3235120   -0.6431970   -0.6820760  
C    -3.9059430   -0.6955940   -0.6802930  
N    -3.4729790   -0.0324260   -1.8091190  
C    -3.1594700   -1.3736260    0.3117790  
C    -3.8965270   -1.9819770    1.3325210  
O    -3.2467970   -2.5924570    2.3589020  
C    -5.3135420   -1.9242040    1.3484790  
O    -5.8777890   -2.5652710    2.4344100  
C    -6.0290460   -1.2720560    0.3627220  
H    -6.7262000    0.3026700   -2.1755580  
H    -2.5086170    0.0608970   -2.0881570  
H    -3.9221670   -2.9964500    2.9314770  
H    -6.8431340   -2.5460190    2.3589080  
H    -7.1163610   -1.2463710    0.3974840  
H    -4.4309270    0.9678380   -3.4458740  
C     0.1409750    1.6431690    0.1449470  
C    -1.0972670    1.0555490    0.1993500  
C    -0.8607030   -0.3692280    0.1780660  
C     0.6238160   -0.4897870    0.0731950  
N     1.1993940    0.6747890    0.0501850  
C     1.2914680   -1.7809300    0.0106920  
C     0.4806830   -2.8679730    0.1483640  
O     0.9339380   -4.1249030    0.2003570  
C    -1.0236370   -2.7778050    0.2430160  
O    -1.6327750   -3.8437670    0.2410590  
C    -1.6897660   -1.4486290    0.2713580  
H    -2.0520330    1.5380980    0.3481990  
H     0.1270730   -4.6883880    0.2319450  
C    -1.8238240    5.2593480   -1.5437070  
C    -1.5161060    3.9832210   -1.1814050  
C    -0.2927550    4.0323930   -0.4161120  
C     0.1010300    5.4591670   -0.3722480  
N    -0.8801290    6.1503480   -1.0587850  
C     1.2305010    5.9444300    0.2064900  
C     2.1303620    4.9973490    0.8489480  
O     3.2034340    5.3166550    1.3361540  
C     1.6772910    3.4973840    0.9413570  
O     2.2829020    2.7672560    1.7031210  
C     0.4781790    3.0535110    0.1753260  
H    -2.0850990    3.1007190   -1.4279140  
H     1.5086250    6.9937340    0.1886120  
H    -2.6626430    5.6230600   -2.1223080  
H    -0.8645810    7.1420410   -1.2387130  
C     5.0462730   -0.1904950    1.9388320  
C     3.7389080   -0.3659100    1.6435600  
C     3.7226610   -1.2985180    0.5192860  
C     5.1739400   -1.5842120    0.2703990  
N     5.9388830   -0.9496960    1.1085860  
C     5.6106740   -2.4841080   -0.7663520  
C     4.6612760   -3.0596920   -1.5357130  
O     4.9172190   -3.8952370   -2.5591380  
C     3.1976070   -2.7837360   -1.3293720  
O     2.4200680   -3.2742530   -2.1447210  
C     2.7467110   -1.9162370   -0.1957910  
H     2.8875010    0.1320570    2.0796780  
H     6.6690570   -2.6671850   -0.9152410  
H     4.0365740   -4.1102290   -2.9378510  
H     5.4742890    0.4481660    2.7018310  
