60


C    -3.9451750   -2.7761210    2.8558580  
C    -4.9061670   -3.5245260    2.2310380  
C    -5.1826600   -2.8833080    0.9759930  
C    -4.3621440   -1.7259360    0.9123530  
N    -3.6416320   -1.6648810    2.0885470  
C    -4.3801040   -0.8244100   -0.1795740  
C    -5.1871220   -1.2039850   -1.2632200  
O    -5.1843040   -0.4714390   -2.4127960  
C    -6.0040170   -2.3609340   -1.2089750  
O    -6.7545600   -2.5637990   -2.3567270  
C    -6.0331400   -3.1859240   -0.1031830  
H    -5.3667150   -4.4254360    2.6132320  
H    -2.7475180   -1.1859130    2.1107770  
H    -5.8287120   -0.8864840   -3.0122090  
H    -7.2439490   -3.3951580   -2.2748070  
H    -6.6799580   -4.0611530   -0.0818500  
H    -3.4452550   -2.9354360    3.8012400  
C    -0.2015310    0.2219360    0.7850390  
C    -0.1152480    1.5444110    0.4319520  
C    -1.4850290    1.8849190   -0.0105160  
C    -2.2549610    0.6068760    0.1428410  
N    -1.4899620   -0.3323070    0.6384620  
C    -3.6579150    0.4689460   -0.2116980  
C    -4.2741970    1.6338980   -0.5903340  
O    -5.5817550    1.7408530   -0.8514230  
C    -3.5324620    2.9224470   -0.7659990  
O    -4.1742880    3.9052340   -1.1413190  
C    -2.0897670    2.9934970   -0.4735160  
H    -5.7128930    2.6794720   -1.1152530  
H    -1.6055710    3.9532560   -0.5917060  
H     0.5987850   -0.4083720    1.1461130  
C     4.0615820    0.2963260    0.1261960  
C     4.7157210    1.4960940    0.2077410  
C     3.6865880    2.4974780    0.3716060  
C     2.4062370    1.7234910    0.3457200  
N     2.6296550    0.4562430    0.1948520  
C     1.0894590    2.3650660    0.4657270  
C     1.1332000    3.7233010    0.6454210  
O     0.0432270    4.4945720    0.8406780  
C     2.3995330    4.5144590    0.6802570  
O     2.3023720    5.7346640    0.8532090  
C     3.6925270    3.8384190    0.5240930  
H     5.7822210    1.6694000    0.2315280  
H     0.4042380    5.4055340    0.9489970  
H     4.5859640    4.4548990    0.5428280  
C     7.5615450   -1.2985720   -2.0998090  
C     6.6008940   -0.4917190   -1.5689130  
C     5.7377620   -1.3181270   -0.7605640  
C     6.2714780   -2.6947040   -0.8752160  
N     7.3926910   -2.6075520   -1.6803660  
C     5.7191170   -3.7986530   -0.3096130  
C     4.5025830   -3.6301660    0.4735180  
O     3.8957490   -4.5637660    0.9733220  
C     3.9603220   -2.1725940    0.7002230  
O     3.0637590   -2.0218970    1.5088270  
C     4.6080400   -1.0397410   -0.0192470  
H     6.4946430    0.5669860   -1.7446840  
H     6.1213370   -4.7995740   -0.4324210  
H     8.3783120   -1.0447000   -2.7625020  
H     7.9384990   -3.3960940   -1.9911160  
