60


C    -5.6759710   -3.0073660    3.1268740  
C    -4.7208930   -2.3506520    2.3929160  
C    -5.3483490   -1.9043530    1.1825210  
C    -6.7062770   -2.3210820    1.2459910  
N    -6.8722030   -2.9947760    2.4382470  
C    -7.6390140   -2.0403170    0.2440830  
C    -7.1907120   -1.3231990   -0.8568170  
O    -8.0498090   -1.0469250   -1.8774820  
C    -5.8463830   -0.8900560   -0.9407500  
O    -5.5582470   -0.1966980   -2.1090830  
C    -4.9044340   -1.1520370    0.0583480  
H    -3.6942030   -2.1962430    2.6907060  
H    -7.7360540   -3.4023450    2.7603600  
H    -8.6727860   -2.3671120    0.2884450  
H    -7.5337190   -0.5935630   -2.5674850  
H    -4.6260760   -0.3329700   -2.3396970  
H    -5.6021910   -3.4892200    4.0914770  
C    -2.3751760   -1.3714820    0.2608540  
C    -3.5157800   -0.6909950   -0.0467430  
C    -3.0310760    0.6665460   -0.3972270  
C    -1.5520300    0.5899770   -0.2378140  
N    -1.1866780   -0.6039090    0.1376800  
C    -0.6735700    1.7331530   -0.4780250  
C    -1.2996230    2.8809980   -0.8811080  
O    -0.6541440    4.0131590   -1.2152860  
C    -2.7846640    2.9897530   -1.0170380  
O    -3.2451450    4.0712420   -1.3852080  
C    -3.6376340    1.8163990   -0.7449990  
H    -1.3643660    4.6510350   -1.4570120  
H    -4.7081630    1.9341540   -0.8726970  
H    -2.2937020   -2.4051580    0.5723080  
C     1.4669970    0.4400480   -0.5185620  
C     0.7746870    1.5930660   -0.2976730  
C     1.7427610    2.5662960    0.2185600  
C     3.0600820    1.8848670    0.2304150  
N     2.8269440    0.5730930   -0.2153750  
C     4.2276010    2.4765060    0.5827560  
C     4.1923910    3.8606570    1.0622920  
O     5.1975600    4.4641500    1.3990410  
C     2.8003350    4.5675530    1.1520350  
O     2.7349090    5.7014320    1.5971090  
C     1.6181480    3.8358630    0.6802900  
H     5.1940980    1.9912260    0.5206390  
H     0.6742560    4.3640170    0.6886840  
H     1.0869490   -0.5212500   -0.8251830  
C     3.7379460   -0.4584610   -0.3727930  
C     3.7010360   -1.4974370   -1.2601000  
C     4.8285450   -2.3461810   -0.9733090  
C     5.5415140   -1.7163980    0.1638470  
N     4.8628130   -0.5326630    0.4546350  
C     6.6340430   -2.2362030    0.7680520  
C     7.1773990   -3.4954800    0.2508080  
O     8.1592900   -4.0356050    0.7330810  
C     6.4640880   -4.1598960   -0.9822650  
O     6.9130740   -5.2050830   -1.4285620  
C     5.2807670   -3.5021300   -1.5331150  
H     2.9921510   -1.6240110   -2.0648960  
H     7.1393040   -1.7647800    1.6054500  
H     4.7848500   -3.9789480   -2.3729420  
H     4.8830770   -0.1101650    1.3728270  
