64


C    -4.4483340    0.0061870    2.1535260  
C    -4.8858250   -1.2157040    2.5842470  
C    -5.2944880   -1.9544140    1.4220720  
C    -5.0810340   -1.1161240    0.2987190  
N    -4.5585470    0.0879270    0.7651920  
C    -5.3530090   -1.5243360   -1.0120530  
C    -5.8594950   -2.8018460   -1.1906940  
O    -6.1470710   -3.2503610   -2.4488900  
C    -6.0857360   -3.6545510   -0.0779210  
O    -6.5943160   -4.8951150   -0.4185540  
C    -5.8105550   -3.2490840    1.2145780  
H    -4.9251240   -1.5482350    3.6127820  
H    -5.1934730   -0.8824580   -1.8705510  
H    -6.4885180   -4.1565030   -2.3583110  
H    -6.7279350   -5.4194110    0.3846480  
H    -5.9874570   -3.9210160    2.0524090  
H    -4.0895180    0.8604660    2.7100410  
C    -0.5338030    1.6935480    0.2030430  
C    -0.8960390    2.7182140   -0.6394960  
C    -2.3202060    2.6669650   -0.8206040  
C    -2.7882390    1.5780290   -0.0519990  
N    -1.7042790    1.0233600    0.6192390  
C    -4.1373990    1.1920270   -0.0165840  
C    -5.0357820    1.9452370   -0.7750810  
O    -6.3561880    1.6253970   -0.7768310  
C    -4.5749550    3.0467190   -1.5434200  
O    -5.5831490    3.6907810   -2.2310740  
C    -3.2433710    3.4202650   -1.5712650  
H    -0.2222370    3.4629340   -1.0399830  
H    -1.6946420    0.0400070    0.8668220  
H    -6.8045370    2.2519490   -1.3716080  
H    -5.2129380    4.4260150   -2.7414950  
H    -2.9208110    4.2671350   -2.1728730  
C     3.5432300    1.5547460   -1.6593980  
C     2.2035410    1.6921440   -1.4368400  
C     1.9518330    1.3680080   -0.0563730  
C     3.1914370    1.0221510    0.5285590  
N     4.1545830    1.1524150   -0.4701980  
C     3.3381000    0.6205320    1.8581960  
C     2.1829320    0.5695930    2.6235810  
O     2.2542440    0.2008510    3.9321140  
C     0.9220220    0.9100430    2.0693970  
O    -0.1146060    0.8239130    2.9738230  
C     0.7745560    1.3125570    0.7379450  
H     1.4677330    1.9751260   -2.1751440  
H     4.2937050    0.3531870    2.2948280  
H     1.3512940    0.2489100    4.2928340  
H    -0.9229810    1.1908950    2.5712110  
H     4.1408680    1.6936620   -2.5483460  
C     6.4341890    1.8536390    0.1087930  
C     7.6704100    1.3034170    0.1596170  
C     7.5521870   -0.0832250   -0.2526500  
C     6.1192640   -0.3120220   -0.5549770  
N     5.4895200    0.9080130   -0.3165650  
C     5.5887470   -1.4838620   -0.9771540  
C     6.4937320   -2.6201640   -1.1519110  
O     6.1176010   -3.7177930   -1.5305530  
C     8.0211330   -2.4079060   -0.8372040  
O     8.7901540   -3.3451510   -0.9782950  
C     8.4616390   -1.0835550   -0.3860020  
H     8.5819620    1.8031230    0.4540820  
H     4.5332820   -1.6176810   -1.1883760  
H     9.5177040   -0.9492190   -0.1721270  
H     6.0972470    2.8555680    0.3376650  
