66


C    -2.2506490   -0.9320990   -0.1970010  
C    -2.6165400    0.3909930   -0.2308790  
C    -4.0313160    0.4193000   -0.4742430  
C    -4.4741480   -0.9261400   -0.5655440  
N    -3.3674520   -1.7370680   -0.3772460  
C    -5.8105740   -1.2697910   -0.7928640  
C    -6.7219800   -0.2333800   -0.9358570  
O    -8.0392140   -0.5130250   -1.1696100  
C    -6.2997530    1.1175670   -0.8413850  
O    -7.3231950    2.0361460   -0.9990700  
C    -4.9774060    1.4530150   -0.6114300  
H    -1.9693100    1.2433500   -0.0778910  
H    -3.3227370   -2.7263320   -0.5694500  
H    -6.1518810   -2.2974920   -0.8637410  
H    -8.5028580    0.3387720   -1.2423650  
H    -6.9579520    2.9320050   -0.9576220  
H    -4.6747610    2.4960890   -0.5439910  
C     0.1667830   -1.0226520   -0.6688470  
C     1.2460970   -1.8243300   -0.3730250  
C     0.7422370   -2.8822630    0.4747080  
C    -0.6422970   -2.6533360    0.6633520  
N    -0.9841750   -1.5097350   -0.0616140  
C    -1.4351260   -3.4641460    1.4877620  
C    -0.8192630   -4.5409610    2.1072520  
O    -1.5468630   -5.3668300    2.9149270  
C     0.5634070   -4.7943480    1.9121290  
O     1.0294950   -5.9061760    2.5893370  
C     1.3456020   -3.9791350    1.1169800  
H    -2.4854650   -3.2704520    1.6721610  
H    -0.9379100   -6.0465260    3.2517040  
H     1.9716390   -6.0247530    2.3983140  
H     2.4011390   -4.1906530    0.9723240  
H     0.0969230   -0.1699570   -1.3285450  
C     3.6443890    1.8321040   -0.1543120  
C     4.7699950    1.3819390   -0.8015750  
C     4.5311550    0.0055840   -1.1374280  
C     3.2263600   -0.3151130   -0.6874990  
N     2.6991510    0.8225360   -0.1006890  
C     2.6265360   -1.5824320   -0.8296100  
C     3.4217440   -2.5554220   -1.4416320  
O     2.9345010   -3.8215600   -1.6259100  
C     4.7297920   -2.2557740   -1.8986330  
O     5.3710840   -3.3337400   -2.4873820  
C     5.2908820   -0.9981260   -1.7674050  
H     5.6428140    1.9737270   -1.0384960  
H     1.8759830    0.8278150    0.4840390  
H     3.6102820   -4.3106640   -2.1271150  
H     6.1926700   -3.0304870   -2.9006730  
H     6.2977730   -0.8011650   -2.1296110  
C     4.3324250    3.8292300    1.1262170  
C     3.7576630    4.9721850    1.6048560  
C     2.3757530    4.9502690    1.2131830  
C     2.1698920    3.7558190    0.4759930  
N     3.3860620    3.0721750    0.4366360  
C     0.9285900    3.4255440   -0.0846620  
C    -0.1266990    4.2969770    0.1347500  
O    -1.3632880    4.0062080   -0.3752140  
C     0.0570950    5.4872640    0.8826740  
O    -1.0889230    6.2497780    1.0131780  
C     1.2896580    5.8237110    1.4124990  
H     4.2562070    5.7366010    2.1849740  
H     0.7702850    2.5398900   -0.6883230  
H    -1.9565490    4.7306910   -0.1118230  
H    -0.8938700    7.0382990    1.5406660  
H     1.4136310    6.7477410    1.9739860  
H     5.3382450    3.4494170    1.2286700  
