60


C    -2.8933500   -1.9810110   -0.4506220  
C    -3.8603140   -2.9274830   -0.5294150  
C    -5.1325940   -2.2843700   -0.2927950  
C    -4.8807260   -0.9131790   -0.0677420  
N    -3.4749600   -0.7266300   -0.1687680  
C    -5.9038190   -0.0009150    0.1934290  
C    -7.2057940   -0.4925140    0.2276780  
O    -8.2328810    0.3637500    0.4799480  
C    -7.4726340   -1.8639170    0.0044930  
O    -8.8056730   -2.1975100    0.0699250  
C    -6.4479830   -2.7634580   -0.2553590  
H    -3.6975390   -3.9776750   -0.7313870  
H    -5.7088150    1.0476080    0.3654030  
H    -9.0577560   -0.1517190    0.4647800  
H    -8.9184650   -3.1461470   -0.0916200  
H    -6.6654460   -3.8154610   -0.4259710  
H    -1.8242900   -2.0681920   -0.5602500  
C    -2.7586960    0.4202890   -0.0347220  
C    -1.3677830    0.5659770   -0.1690350  
C    -1.1180340    1.9260350    0.0544130  
C    -2.4813690    2.5190760    0.3099130  
N    -3.4294350    1.6138030    0.2643430  
C    -2.6762680    3.9113100    0.5491780  
C    -1.5743570    4.7001530    0.4868570  
O    -1.5952490    6.0182040    0.6495160  
C    -0.1767340    4.1523720    0.2113920  
O     0.7057850    5.0260220    0.1446900  
C     0.0323400    2.7247750    0.0622270  
H    -0.6570650   -0.1905700   -0.4561790  
H    -3.6659970    4.3090560    0.7414260  
H    -0.6560250    6.3034530    0.5320460  
C     1.3714890    2.1960680   -0.0701820  
C     1.8171260    0.8969950    0.0847940  
C     3.2225210    0.8687000   -0.1570350  
C     3.6139020    2.2698160   -0.4492330  
N     2.4585320    3.0132670   -0.3922560  
C     4.8834710    2.6817130   -0.6981470  
C     5.9419850    1.6838230   -0.6963450  
O     7.1186270    1.9551360   -0.8851480  
C     5.5524860    0.1809810   -0.4473440  
O     6.4242460   -0.6647890   -0.5634920  
C     4.1464230   -0.1518290   -0.1237080  
H     1.2169510    0.0494790    0.3619860  
H     5.1486400    3.7174860   -0.8858460  
H     2.3833490    4.0207570   -0.4185330  
C     1.2367150   -2.9586950   -1.9373070  
C     1.4983780   -4.1070540   -1.2715040  
C     2.5523330   -3.7609150   -0.3231960  
C     2.8048020   -2.2996490   -0.5673370  
N     2.0256450   -1.8442500   -1.5076540  
C     3.8142190   -1.5557490    0.1748820  
C     4.4927630   -2.2645190    1.1281920  
O     5.4029760   -1.7177760    1.9420630  
C     4.2540750   -3.7234490    1.3914540  
O     4.9140450   -4.2623450    2.2787530  
C     3.2421710   -4.4512150    0.6025400  
H     1.0537870   -5.0828060   -1.4104450  
H     5.7429740   -2.4553870    2.4949510  
H     3.1060520   -5.5067160    0.8179250  
H     0.5256980   -2.8010200   -2.7404490  
