62


C     5.6006260   -1.1137440    1.9234710  
C     6.9293740   -0.7986840    1.8486550  
C     7.0840890    0.1337070    0.7679980  
C     5.7913370    0.3529380    0.2230660  
N     4.8904500   -0.4263350    0.9418370  
C     5.5605940    1.2425390   -0.8394480  
C     6.6603310    1.9013130   -1.3738450  
O     6.4893660    2.7774530   -2.4052710  
C     7.9605670    1.6799920   -0.8511830  
O     8.9494030    2.4044280   -1.4896100  
C     8.1797330    0.8182590    0.2089530  
H     7.7103990   -1.1891240    2.4866760  
H     4.5676030    1.4688880   -1.2142030  
H     7.3644080    3.1448410   -2.6190100  
H     9.8003690    2.2424340   -1.0563920  
H     9.1847240    0.6763520    0.6020440  
H     5.0737110   -1.7906660    2.5800610  
C     1.3339980    0.2350790    3.4927730  
C     2.6188590    0.1611760    3.0255610  
C     2.5389160   -0.3226520    1.6763300  
C     1.1665430   -0.5396300    1.3878780  
N     0.4556490   -0.2242220    2.5274570  
C     0.6986800   -1.0180580    0.1407910  
C     1.6829820   -1.1819610   -0.8458650  
O     1.3342620   -1.5358330   -2.1109050  
C     3.0617520   -0.9899810   -0.5739330  
O     3.8847500   -1.2894520   -1.6390550  
C     3.5034460   -0.5815130    0.6789690  
H     3.5168470    0.4206850    3.5674790  
H    -0.5166000    0.0552970    2.4634980  
H     2.1641700   -1.5939440   -2.6194210  
H     4.7378360   -0.8297220   -1.5469360  
H     0.9620390    0.5741660    4.4495410  
C    -3.0789360    1.1448180    0.8298760  
C    -4.0096210    0.3733720    0.1848650  
C    -3.2351650   -0.7958760   -0.2805390  
C    -1.8291310   -0.5049730    0.1490170  
N    -1.7778190    0.6181690    0.8272100  
C    -0.7080600   -1.3759270   -0.1502880  
C    -1.0445650   -2.5659900   -0.7455970  
O    -0.1709360   -3.5422090   -1.0021240  
C    -2.4421750   -2.8938340   -1.1764410  
O    -2.6339450   -3.9797610   -1.7224070  
C    -3.5366210   -1.9361440   -0.9249070  
H    -0.6911690   -4.2496590   -1.4454070  
H    -4.5330570   -2.2275240   -1.2309500  
H    -3.2648500    2.0736460    1.3557710  
C    -6.2247180    4.1724640   -0.5343470  
C    -5.2136730    3.2761950   -0.4151700  
C    -5.8653700    1.9918980   -0.1817230  
C    -7.3153860    2.3205450   -0.2077290  
N    -7.5224380    3.5940020   -0.4045470  
C    -8.3305710    1.3117150   -0.0411550  
C    -7.9242630    0.0332300    0.1243430  
O    -8.7612870   -1.0103050    0.2716790  
C    -6.4701550   -0.3387340    0.1550540  
O    -6.2053760   -1.5300190    0.3129460  
C    -5.4132390    0.7174240    0.0202320  
H    -4.1527860    3.4584390   -0.5062080  
H    -9.3791880    1.5868130   -0.0636560  
H    -8.1854290   -1.7973890    0.3794790  
H    -6.1508870    5.2369750   -0.7220780  
