64


C     2.2276770    1.4331510   -0.0281380  
C     0.9426070    0.9048860    0.0587600  
C     1.1083050   -0.5342970    0.1925410  
C     2.4940390   -0.7964070    0.1941310  
N     3.1594970    0.4340000    0.0379530  
C     3.0206600   -2.0825180    0.3737990  
C     2.1136810   -3.1233350    0.5419770  
O     2.5679440   -4.3958690    0.7283430  
C     0.7176920   -2.8742450    0.5303960  
O    -0.0681530   -3.9906530    0.7186770  
C     0.2101820   -1.6008370    0.3534640  
H     4.0846620   -2.2840930    0.4191110  
H     1.7840690   -4.9604440    0.8476320  
H    -0.9998490   -3.7178180    0.7933970  
H    -0.8563290   -1.4145820    0.3510220  
H     2.5465160    2.4582990   -0.1404500  
C    -0.2890700    1.6267670    0.0415830  
C    -0.5693700    2.9780260    0.0362630  
C    -1.9937300    3.0904670    0.0340190  
C    -2.4810030    1.6655040    0.0467070  
N    -1.4937390    0.8314360    0.0421470  
C    -3.9006810    1.3076010    0.0325840  
C    -4.7388390    2.3751710   -0.0226450  
O    -6.0900110    2.2664030   -0.0942010  
C    -4.2916230    3.8166710   -0.0256170  
O    -5.2008640    4.6588910   -0.0685780  
C    -2.8787230    4.1276590    0.0118780  
H     0.1356220    3.7978740    0.0417770  
H    -6.3955310    3.2100250   -0.1171900  
H    -2.5902070    5.1736970    0.0000730  
C    -2.8026910   -2.3403070    2.4604200  
C    -2.9735930   -1.0572970    2.0248150  
C    -3.8028500   -1.1024730    0.8479860  
C    -4.1233860   -2.4648970    0.6311020  
N    -3.4398900   -3.2184230    1.5806510  
C    -4.9894230   -2.8983590   -0.3782080  
C    -5.5560480   -1.9189200   -1.1768250  
O    -6.4342450   -2.2577210   -2.1601680  
C    -5.2308020   -0.5457020   -1.0036630  
O    -5.8363710    0.2844370   -1.9236840  
C    -4.3256170   -0.1108440   -0.0303210  
H    -2.5334950   -0.1779780    2.4702750  
H    -3.7274770   -4.1501570    1.8460300  
H    -5.2404070   -3.9422790   -0.5366380  
H    -6.6980390   -1.4145110   -2.5755980  
H    -6.1748500    1.0753380   -1.4535290  
H    -2.2503890   -2.7220650    3.3078050  
C     6.0546530   -1.3717820   -2.7082270  
C     7.1648180   -0.7280330   -2.2287990  
C     6.7320210    0.1148660   -1.1500530  
C     5.3296650   -0.0686450   -1.0260260  
N     4.9408610   -0.9663960   -1.9951790  
C     4.5648620    0.6194690   -0.0640050  
C     5.2329610    1.5102010    0.7757510  
O     4.5414950    2.2086480    1.7207930  
C     6.6320290    1.7029130    0.6470640  
O     7.1403210    2.6205120    1.5471680  
C     7.3830630    1.0234180   -0.2930950  
H     8.1737360   -0.8347760   -2.6022970  
H     4.0139110   -1.3555450   -2.0815420  
H     5.1941670    2.7309070    2.2199600  
H     8.1069010    2.6334020    1.4873190  
H     8.4541130    1.1969300   -0.3718470  
H     5.9560580   -2.0909690   -3.5088220  
