62


C     4.8481760    0.2928350    2.9722380  
C     6.0538220    0.1483000    2.3380480  
C     5.7815130   -0.3486640    1.0178010  
C     4.3735610   -0.4796680    0.9057430  
N     3.8289580   -0.0678960    2.1069520  
C     3.7268600   -0.9757250   -0.2469750  
C     4.5597140   -1.3405030   -1.3066810  
O     4.0113460   -1.7888210   -2.4691450  
C     5.9695190   -1.2095570   -1.2128970  
O     6.6390060   -1.5998950   -2.3589950  
C     6.5861560   -0.7207160   -0.0771200  
H     7.0249270    0.3664250    2.7611360  
H     2.8551390   -0.1563740    2.3507500  
H     4.7440430   -2.0732770   -3.0426300  
H     7.5908580   -1.6257430   -2.1824370  
H     7.6697670   -0.6304290   -0.0334180  
H     4.6220870    0.6305310    3.9740010  
C     0.3908440    1.9205000    0.1676150  
C     1.6136530    1.3144790    0.0883340  
C     1.3816440   -0.0854110   -0.1738700  
C    -0.0782750   -0.2509960   -0.2650280  
N    -0.6363540    1.0208740   -0.0978820  
C    -0.7586880   -1.4197540   -0.4694170  
C     0.1029040   -2.6130650   -0.6275400  
O    -0.3415630   -3.7284390   -0.8415060  
C     1.6712830   -2.4657500   -0.5235540  
O     2.3277250   -3.4928190   -0.5500130  
C     2.2596470   -1.1293840   -0.3353560  
H     2.5779000    1.7967440    0.1385220  
H    -1.5807520    1.1261240    0.2537740  
C     0.9437660    4.0555640    1.2577450  
C     0.4305880    5.2953300    1.4135470  
C    -0.8244230    5.3464030    0.6911340  
C    -1.0051070    4.0084320    0.0756640  
N     0.1007270    3.2438690    0.4721480  
C    -2.0447460    3.6854630   -0.7337720  
C    -3.0831880    4.6894880   -0.9746870  
O    -4.0575660    4.4673680   -1.6755260  
C    -2.9277030    6.0969110   -0.3008560  
O    -3.7892910    6.9414040   -0.4790540  
C    -1.7333550    6.3387150    0.5163160  
H     0.8698970    6.1004360    1.9846390  
H    -2.1464690    2.7309510   -1.2341750  
H    -1.6131780    7.3252470    0.9533990  
H     1.8504080    3.6240630    1.6577490  
C    -3.0160370   -0.5476600   -1.2026150  
C    -2.2173830   -1.4947020   -0.5771810  
C    -3.1252640   -2.4996260   -0.0545610  
C    -4.4396590   -2.0885910   -0.3888220  
N    -4.3373900   -0.9024690   -1.0919630  
C    -5.5845450   -2.8068100   -0.0209110  
C    -5.3970910   -3.9746980    0.6995650  
O    -6.4703620   -4.7253730    1.0770580  
C    -4.0874750   -4.4043180    1.0453960  
O    -4.0604130   -5.5874470    1.7596420  
C    -2.9635880   -3.6873730    0.6865560  
H    -5.1082700   -0.3990090   -1.5035310  
H    -6.5884270   -2.4894070   -0.2835010  
H    -6.1215330   -5.5133410    1.5294140  
H    -3.1495610   -5.9154120    1.8016030  
H    -1.9744370   -4.0561160    0.9358230  
H    -2.7277990    0.3134350   -1.7887510  
