62


C    -2.8216060   -0.0855550   -0.2956390  
C    -1.5742730    0.3554260    0.1092080  
C    -1.4380760    1.7317410   -0.2853670  
C    -2.6536660    2.0879830   -0.9285460  
N    -3.4723500    0.9746010   -0.9117810  
C    -2.9140850    3.3712560   -1.4140250  
C    -1.9305110    4.3278580   -1.2126260  
O    -2.1209200    5.6056000   -1.6378990  
C    -0.7064470    4.0098080   -0.5650620  
O     0.1587460    5.0725640   -0.4750310  
C    -0.4132980    2.7138510   -0.1232190  
H    -0.8901700   -0.2175340    0.7194230  
H    -4.3302110    0.8797240   -1.4336920  
H    -3.8455530    3.6434290   -1.8998680  
H    -1.3277010    6.0964620   -1.3469920  
H     0.5728320    5.0327310    0.4213410  
C     2.2214400   -0.6239650   -1.1082540  
C     3.2331730   -0.4570190   -0.2040120  
C     2.8881960    0.7418710    0.5676670  
C     1.6038590    1.2362860    0.0214120  
N     1.2700130    0.3775860   -1.0032660  
C     0.9052600    2.3456230    0.4455070  
C     1.5926410    3.1465500    1.4572470  
O     1.2188620    4.2638080    1.8200830  
C     2.9132660    2.6035050    2.1180300  
O     3.3969170    3.2368600    3.0409860  
C     3.5198130    1.3876300    1.5796770  
H     4.4308610    1.0259900    2.0405170  
H     2.0936500   -1.4123820   -1.8391180  
H     0.3430320    0.3458800   -1.4079040  
C     6.1031450   -1.8465580   -3.2194280  
C     6.9010600   -2.6218650   -2.4418260  
C     6.3831810   -2.5566170   -1.0909990  
C     5.1964880   -1.6709270   -1.1486850  
N     5.0569020   -1.3056280   -2.4763040  
C     4.4268420   -1.3021550   -0.0785800  
C     4.8256830   -1.8552790    1.2316190  
O     4.2183570   -1.6148330    2.2622290  
C     6.0751230   -2.8119070    1.3088890  
O     6.3951330   -3.2571510    2.3997190  
C     6.7982070   -3.1155910    0.0779990  
H     7.7637850   -3.1851460   -2.7664240  
H     7.6610460   -3.7709610    0.1437800  
H     6.1741880   -1.6326520   -4.2778080  
H     4.4570410   -0.5531640   -2.7811800  
C    -2.8241370   -2.6045560   -0.1637420  
C    -3.4621170   -1.3811980   -0.1535840  
C    -4.8720300   -1.6589640    0.0310720  
C    -5.0117340   -3.0672500    0.1164750  
N    -3.7477190   -3.6127390   -0.0000650  
C    -6.2473570   -3.6976140    0.3069970  
C    -7.3671400   -2.8894590    0.4231930  
O    -8.5953020   -3.4514170    0.6107500  
C    -7.2461970   -1.4754390    0.3611550  
O    -8.4463430   -0.8074430    0.5103840  
C    -6.0240480   -0.8573620    0.1698330  
H    -3.5341400   -4.5974890    0.0243710  
H    -6.3543880   -4.7753160    0.3760380  
H    -9.2339310   -2.7236380    0.7057540  
H    -8.2821000    0.1437520    0.5913530  
H    -5.9584310    0.2283510    0.1596630  
H    -1.7752450   -2.8293100   -0.2934160  
