64


C     3.6379480   -1.2409360   -1.2501730  
C     4.0145580   -0.1200070   -0.5348590  
C     5.0096840   -0.5654650    0.4161430  
C     5.1838990   -1.9587520    0.2214210  
N     4.3355560   -2.3408370   -0.7994560  
C     6.0674220   -2.7293700    0.9886290  
C     6.7905280   -2.0772520    1.9738250  
O     7.6707350   -2.7749030    2.7495240  
C     6.6257910   -0.6820200    2.1861200  
O     7.4151470   -0.1772270    3.2042190  
C     5.7511280    0.0730050    1.4298060  
H     4.2717860   -3.2678590   -1.1902120  
H     6.2020750   -3.7957740    0.8389770  
H     8.0792570   -2.1381460    3.3610290  
H     7.2976190    0.7828880    3.2530500  
H     5.6558570    1.1420290    1.5963420  
H     2.9585610   -1.3266840   -2.0870060  
C    -0.1758300    1.1410490   -0.7798690  
C     0.0220580    2.4861660   -0.9745900  
C     1.4416150    2.6986220   -0.9696200  
C     2.0546490    1.4345030   -0.7858610  
N     1.0443110    0.4937400   -0.6847680  
C     3.4486150    1.2290580   -0.7130810  
C     4.2242390    2.3854610   -0.8289890  
O     5.5872590    2.3024170   -0.7773730  
C     3.6296050    3.6614930   -1.0167030  
O     4.5514320    4.6884360   -1.1170870  
C     2.2614600    3.8368910   -1.0956170  
H    -0.7521980    3.2230380   -1.1374140  
H     1.1874750   -0.4530530   -0.3633110  
H     5.9312830    3.1972850   -0.9453410  
H     4.0987460    5.5049710   -1.3745520  
H     1.8356950    4.8276010   -1.2384370  
C    -2.4587900    0.8350840    0.1340230  
C    -3.5135370   -0.0263290    0.0573230  
C    -3.0973150   -1.0904260   -0.8542150  
C    -1.7185790   -0.7613370   -1.2916500  
N    -1.3749760    0.4258740   -0.6502400  
C    -0.9967980   -1.5043590   -2.1692020  
C    -1.5930740   -2.7240750   -2.7081420  
O    -1.0052220   -3.4627810   -3.4835990  
C    -3.0538590   -3.0908030   -2.2640250  
O    -3.5760120   -4.0980330   -2.7133770  
C    -3.7377960   -2.1970350   -1.3219860  
H    -0.0022740   -1.2297250   -2.5019550  
H    -4.7591480   -2.4424720   -1.0482300  
H    -2.3644920    1.7394760    0.7192670  
C    -6.4063110    3.3895290    0.3258630  
C    -5.3402560    2.5853460    0.0155740  
C    -5.5420040    1.3327620    0.6897740  
C    -6.7681800    1.4395360    1.3967720  
N    -7.2676150    2.7044610    1.1616570  
C    -7.3035630    0.3914080    2.1542850  
C    -6.5818980   -0.7896690    2.2004010  
O    -7.0508960   -1.8424720    2.9304770  
C    -5.3482640   -0.9196720    1.5100410  
O    -4.7489040   -2.1495570    1.7021390  
C    -4.8082720    0.1168960    0.7489380  
H    -4.5168720    2.8516080   -0.6317680  
H    -8.1368150    3.0624050    1.5248680  
H    -8.2427450    0.4689730    2.6923270  
H    -6.4083410   -2.5667820    2.8345240  
H    -3.9290710   -2.2067250    1.1878490  
H    -6.6288840    4.4014550    0.0181230  
