64


C     3.7293190   -1.2672650    2.8603090  
C     4.7180750   -2.1266130    2.4552180  
C     4.2766120   -2.7278050    1.2289750  
C     3.0022780   -2.1763180    0.9293780  
N     2.6974150   -1.2895390    1.9415480  
C     2.2290230   -2.5490750   -0.1967800  
C     2.8009050   -3.5394710   -0.9936220  
O     2.1146970   -4.0076540   -2.0994470  
C     4.0695690   -4.1031330   -0.7169550  
O     4.4589370   -5.0607230   -1.6360150  
C     4.8189510   -3.7059160    0.3724740  
H     5.6450520   -2.3224290    2.9763740  
H     1.8339440   -0.7715790    2.0011000  
H     2.6805030   -4.6783350   -2.5239790  
H     5.3287510   -5.4112320   -1.3942120  
H     5.7905970   -4.1530530    0.5708190  
H     3.6650120   -0.6426760    3.7405760  
C     0.8744480    1.7475190   -0.3373660  
C     1.6228160    0.5705660   -0.2987120  
C     0.7236300   -0.5267780   -0.4415870  
C    -0.5749480    0.0354030   -0.5844610  
N    -0.4568120    1.3983340   -0.5022730  
C    -1.7243340   -0.7479570   -0.7964140  
C    -1.5270620   -2.1243490   -0.8887840  
O    -2.5729670   -2.9497010   -1.1318620  
C    -0.2346140   -2.7038060   -0.7219650  
O    -0.2418120   -4.0776430   -0.8053510  
C     0.9034780   -1.9411130   -0.4711550  
H     2.6996340    0.4969850   -0.2949380  
H    -1.1824210    2.0917520   -0.6433700  
H    -2.1931710   -3.8496330   -1.1658490  
H     0.5299630   -4.3494250   -1.3492790  
C     4.5734550    3.5644580    1.2011270  
C     4.3213070    4.8651160    0.9020790  
C     3.0101180    4.9212830    0.2929470  
C     2.5202410    3.5302430    0.2456700  
N     3.5269150    2.7493940    0.7824510  
C     1.2952130    3.1311840   -0.2430860  
C     0.3943210    4.2294820   -0.6557140  
O    -0.7762930    4.0529140   -0.9692750  
C     0.9372780    5.7088800   -0.6939760  
O     0.2006270    6.5731460   -1.1462160  
C     2.2690010    5.9666880   -0.1771750  
H     4.9737720    5.7063530    1.0853350  
H     2.6285110    6.9905830   -0.1756320  
H     5.4386860    3.1215200    1.6763970  
H     3.3920450    1.7918020    1.0731590  
C    -3.3213590    0.8065150   -1.9082250  
C    -4.6089380    1.2300290   -1.7303090  
C    -5.1397460    0.5135940   -0.6048950  
C    -4.1137670   -0.3454050   -0.1349330  
N    -3.0000590   -0.1556990   -0.9497300  
C    -4.2783710   -1.1786030    0.9775650  
C    -5.5057060   -1.1514590    1.6206150  
O    -5.7219320   -1.9485170    2.7110980  
C    -6.5469720   -0.3040080    1.1605270  
O    -7.7113920   -0.3902410    1.9049190  
C    -6.3790100    0.5218620    0.0648300  
H    -5.1226870    1.9645060   -2.3355110  
H    -3.4980560   -1.8401060    1.3344450  
H    -6.6356110   -1.7882050    3.0028610  
H    -8.3769570    0.2020270    1.5254240  
H    -7.1887840    1.1692450   -0.2669920  
H    -2.5911790    1.0793190   -2.6571080  
