66


C     0.5886880    0.8948460   -0.2038950  
C     1.6764580    0.0672550   -0.0272690  
C     2.8136090    0.7024140   -0.6223870  
C     2.3652670    1.9418680   -1.1519310  
N     1.0190330    2.0525860   -0.8552030  
C     3.2100760    2.8385150   -1.8128760  
C     4.5433540    2.4776860   -1.9398970  
O     5.4171400    3.3034830   -2.5930860  
C     5.0166530    1.2585300   -1.3967800  
O     6.3725230    1.0480870   -1.5900430  
C     4.1834180    0.3560700   -0.7342460  
H     1.6673060   -0.8761970    0.4988340  
H     0.3864960    2.6946350   -1.3086410  
H     2.8649930    3.7799380   -2.2286140  
H     6.2701980    2.8363980   -2.6254680  
H     6.5694740    0.1170800   -1.3913930  
C    -1.4961870   -0.4674390    0.1894070  
C    -0.8059750    0.7240070    0.1661230  
C    -1.7491980    1.7444530    0.5712320  
C    -2.9843680    1.0969070    0.8238560  
N    -2.8084360   -0.2627110    0.5859590  
C    -4.1201510    1.7828950    1.2727970  
C    -4.0093610    3.1522150    1.4596410  
O    -5.0887200    3.8712640    1.8903550  
C    -2.7792970    3.8172270    1.2179040  
O    -2.8205070    5.1791050    1.4599020  
C    -1.6570920    3.1345280    0.7843880  
H    -5.0582110    1.2819880    1.4832540  
H    -4.7929680    4.7914780    1.9991250  
H    -1.9254600    5.5437540    1.3963110  
H    -0.7164510    3.6613780    0.6390850  
H    -1.1682510   -1.4585230   -0.0883050  
C    -3.6793870   -2.3754810    1.5417460  
C    -3.7836380   -1.2730930    0.7265570  
C    -5.0342720   -1.3718340    0.0189760  
C    -5.6489430   -2.5715140    0.4573700  
N    -4.7987050   -3.1635790    1.3719350  
C    -6.8934400   -2.9982250   -0.0244730  
C    -7.5230520   -2.1986700   -0.9646940  
O    -8.7390220   -2.5640020   -1.4638500  
C    -6.9152690   -0.9958580   -1.4182660  
O    -7.6641770   -0.3161510   -2.3593600  
C    -5.6875380   -0.5767800   -0.9435990  
H    -4.9770310   -4.0284880    1.8572940  
H    -7.3719670   -3.9134540    0.3088510  
H    -9.0109220   -1.8724630   -2.0918020  
H    -7.2275200    0.5208250   -2.5766810  
H    -5.2383180    0.3464580   -1.3009450  
H    -2.8930970   -2.6506040    2.2294300  
C     7.2657700   -0.2038180    2.3675810  
C     7.2804950   -1.5748200    2.3921910  
C     6.3205340   -2.0236680    1.4235810  
C     5.7514820   -0.8630910    0.8356120  
N     6.3470360    0.2292530    1.4313180  
C     4.7486240   -0.8953980   -0.1613620  
C     4.3288360   -2.1687530   -0.5551650  
O     3.3778900   -2.3039070   -1.5244950  
C     4.8839280   -3.3395860    0.0264870  
O     4.3526530   -4.5136790   -0.4810070  
C     5.8648350   -3.2866570    0.9981430  
H     7.8999320   -2.1930280    3.0274630  
H     6.1306760    1.1889340    1.2095140  
H     3.2466330   -3.2581200   -1.6618900  
H     4.8118350   -5.2699190   -0.0872730  
H     6.2690660   -4.2029280    1.4243820  
H     7.8397020    0.5100120    2.9415610  
