64


C    -4.9753890    0.1239300    2.1492790  
C    -4.2663710    0.0698250    0.9671400  
C    -5.1207240   -0.6225980    0.0200910  
C    -6.3233140   -0.9508990    0.6981000  
N    -6.2018810   -0.4851740    1.9918130  
C    -7.3742160   -1.6452720    0.0858830  
C    -7.2078400   -2.0208170   -1.2377240  
O    -8.2019190   -2.6954430   -1.8843880  
C    -6.0059700   -1.7135580   -1.9303920  
O    -5.9870250   -2.1624240   -3.2371160  
C    -4.9694830   -1.0295410   -1.3237340  
H    -6.9100100   -0.5571980    2.7055760  
H    -8.2945050   -1.8968370    0.6032160  
H    -7.8905640   -2.8669320   -2.7899600  
H    -5.1476130   -1.9137340   -3.6518730  
H    -4.0567150   -0.8118650   -1.8724780  
H    -4.6973040    0.5757630    3.0906010  
C    -0.4238750   -0.2661420    3.2795460  
C    -1.7142570   -0.4033280    2.8409720  
C    -1.8377690    0.3634790    1.6316150  
C    -0.5674590    0.9397560    1.3772860  
N     0.2753760    0.5358560    2.3938700  
C    -0.2958320    1.7800460    0.2751330  
C    -1.3724590    2.0138940   -0.5829780  
O    -1.1928280    2.7798110   -1.6939460  
C    -2.6460120    1.4412330   -0.3474450  
O    -3.5899880    1.7948580   -1.2949650  
C    -2.9158010    0.6163880    0.7431060  
H    -2.4878650   -0.9910930    3.3136320  
H     1.2246800    0.8533570    2.5107140  
H    -2.0730740    2.9242280   -2.0836560  
H    -4.4672730    1.5191630   -0.9801000  
H     0.0669140   -0.6773610    4.1504800  
C     3.7893710    0.0596730   -0.1846810  
C     2.4477510    0.2689130   -0.0240310  
C     2.1859740    1.6869200   -0.0582010  
C     3.4949030    2.3350900   -0.2625080  
N     4.4428330    1.3097420   -0.4071050  
C     3.7005840    3.6710530   -0.3226330  
C     2.5371070    4.5458120   -0.2087200  
O     2.6098130    5.7614810   -0.2967260  
C     1.1296980    3.8868580    0.0328820  
O     0.1854710    4.6238550    0.2536410  
C     1.0213080    2.4055990    0.0493480  
H     1.6971040   -0.5040190    0.0367220  
H     4.6737530    4.1228350   -0.4895120  
H     5.3665830    1.4502360   -0.0096480  
C     3.2636700   -3.9080330    1.8469370  
C     3.1077710   -2.6072340    1.4376300  
C     4.1605050   -2.3288070    0.5037800  
C     4.9362020   -3.5125050    0.3949910  
N     4.3631360   -4.4571840    1.2206890  
C     6.0713700   -3.6120600   -0.4167080  
C     6.4394160   -2.4898720   -1.1416060  
O     7.5266980   -2.5395560   -1.9620680  
C     5.6929230   -1.2885250   -1.0526590  
O     6.1824980   -0.2834930   -1.8572050  
C     4.5537970   -1.1764420   -0.2389700  
H     2.3322790   -1.9347250    1.7726750  
H     4.6994970   -5.3987120    1.3482560  
H     6.6566710   -4.5218130   -0.5035580  
H     7.5840540   -1.6788140   -2.4130360  
H     5.5382410    0.4491340   -1.8923320  
H     2.6736410   -4.4940220    2.5372330  
