64


C     3.8724110   -1.1637970    2.8689970  
C     4.8792990   -1.9927230    2.4479830  
C     4.4407540   -2.5970720    1.2231480  
C     3.1460750   -2.0811330    0.9423310  
N     2.8261450   -1.2176460    1.9688930  
C     2.3777050   -2.4679500   -0.1826640  
C     2.9778850   -3.4267750   -0.9985140  
O     2.3011840   -3.9013740   -2.1092260  
C     4.2643130   -3.9539330   -0.7387000  
O     4.6760490   -4.8880300   -1.6725380  
C     5.0061780   -3.5482780    0.3525150  
H     5.8192310   -2.1625440    2.9544720  
H     1.9721760   -0.6842660    2.0245940  
H     2.8922010   -4.5387800   -2.5509830  
H     5.5762220   -5.1804850   -1.4674040  
H     5.9928300   -3.9662940    0.5397830  
H     3.8062560   -0.5349960    3.7457100  
C     0.8109640    1.7727240   -0.2606370  
C     1.6142340    0.6271590   -0.2319460  
C     0.7772350   -0.5050320   -0.3951850  
C    -0.5502210   -0.0031120   -0.5457230  
N    -0.5022670    1.3580240   -0.4525160  
C    -1.6599460   -0.8350040   -0.7796000  
C    -1.3946740   -2.1977050   -0.8826110  
O    -2.3923490   -3.0688470   -1.1421450  
C    -0.0726870   -2.7206020   -0.7114820  
O    -0.0255440   -4.0896020   -0.8151790  
C     1.0265880   -1.9132060   -0.4449340  
H     2.6904720    0.6207420   -0.1707250  
H    -1.2697880    2.0045110   -0.5833090  
H    -1.9686020   -3.9497100   -1.1824470  
H     0.7620250   -4.3244310   -1.3564980  
C     4.4668970    4.0085020    1.0981280  
C     3.5879940    2.9924850    0.8894910  
C     2.4061520    3.6170450    0.3092060  
C     2.7609430    5.0498490    0.2546870  
N     3.9697090    5.2780820    0.7042910  
C     1.8483520    6.0538170   -0.2327090  
C     0.6171270    5.6551340   -0.6208790  
O    -0.3448280    6.4938490   -1.0603250  
C     0.2094890    4.2200360   -0.5697130  
O    -0.9564540    3.9670280   -0.8933440  
C     1.1907140    3.1586460   -0.1454210  
H     3.7228830    1.9523830    1.1462560  
H     2.1514790    7.0947960   -0.2567700  
H    -1.1238280    5.9278950   -1.2432100  
H     5.4602100    3.9487600    1.5270120  
C    -3.3225150    0.6260750   -1.9224560  
C    -4.6308900    0.9874780   -1.7580830  
C    -5.1322210    0.2649250   -0.6228240  
C    -4.0675300   -0.5326890   -0.1322960  
N    -2.9594420   -0.3008790   -0.9440300  
C    -4.1966270   -1.3561810    0.9919370  
C    -5.4283330   -1.3822100    1.6266110  
O    -5.6108810   -2.1723550    2.7267570  
C    -6.5085530   -0.5959930    1.1463810  
O    -7.6710330   -0.7308730    1.8848740  
C    -6.3751410    0.2206230    0.0391500  
H    -5.1790560    1.6812240   -2.3810740  
H    -3.3856830   -1.9702620    1.3653720  
H    -6.5335900   -2.0565280    3.0113050  
H    -8.3676100   -0.1874310    1.4882930  
H    -7.2149210    0.8195950   -0.3084410  
H    -2.6028920    0.9177930   -2.6745190  
