60


C     3.2801420   -0.7605510   -1.3428650  
C     3.8664990    0.2396780   -0.5812610  
C     5.1503420   -0.2849760   -0.1510020  
C     5.2645620   -1.5917800   -0.6890350  
N     4.1168560   -1.8395200   -1.4213530  
C     6.3621920   -2.4265560   -0.4550100  
C     7.3771310   -1.9346810    0.3506230  
O     8.4738300   -2.7020080    0.6125750  
C     7.2804300   -0.6339810    0.9085360  
O     8.3639920   -0.2824030    1.6920850  
C     6.1913440    0.1850890    0.6752210  
H     3.8931640   -2.7104260   -1.8787240  
H     6.4393550   -3.4263790   -0.8696270  
H     9.0593630   -2.1788100    1.1868290  
H     8.2468820    0.6236530    2.0136620  
H     6.1548820    1.1802680    1.1048720  
H     2.3269870   -0.7614580   -1.8467070  
C    -0.3284490    1.2098590    0.0683990  
C    -0.2975060    2.5564690    0.3264120  
C     1.0922080    2.9104330    0.2316670  
C     1.7958910    1.6245550   -0.1026750  
N     0.9425870    0.6415500   -0.1889010  
C     3.2404980    1.5278380   -0.2851720  
C     3.9063000    2.7174460   -0.1479500  
O     5.2344330    2.8525050   -0.3206880  
C     3.2355180    4.0149330    0.1911850  
O     3.9573300    5.0147770    0.2765420  
C     1.7860550    4.0621970    0.3829150  
H    -1.1088930    3.2258670    0.5697570  
H     5.4025920    3.8130710   -0.1749580  
H     1.3407810    5.0209960    0.6278160  
C    -2.7385510    0.8428530    0.1550220  
C    -3.6649270   -0.1545750    0.0884340  
C    -2.9197160   -1.3988560   -0.1181340  
C    -1.4850670   -1.0272880   -0.1604140  
N    -1.4332720    0.3763330    0.0193750  
C    -0.4801690   -1.9178600   -0.3335260  
C    -0.8227820   -3.3276040   -0.5438250  
O     0.0263710   -4.1811810   -0.7464170  
C    -2.3315880   -3.7356420   -0.5271290  
O    -2.6415290   -4.9020350   -0.7043470  
C    -3.3247840   -2.6794350   -0.2978950  
H     0.5607130   -1.6286040   -0.3393790  
H    -4.3654550   -2.9768750   -0.2595480  
H    -2.9135830    1.8965580    0.3128130  
C    -6.4635450    2.8601550   -1.6342910  
C    -5.3415510    2.1384430   -1.3924010  
C    -5.7514110    1.1003670   -0.4525100  
C    -7.2074970    1.3608110   -0.2459900  
N    -7.6150390    2.3924510   -0.9308660  
C    -8.0144530    0.5336030    0.6125430  
C    -7.4117790   -0.5078170    1.2297000  
O    -8.0438810   -1.3658630    2.0465210  
C    -5.9454730   -0.7962040    1.0556600  
O    -5.4835810   -1.7461950    1.6823240  
C    -5.1078100    0.0739150    0.1709480  
H    -4.3612520    2.2719070   -1.8266590  
H    -9.0692020    0.7497230    0.7404030  
H    -7.3583120   -1.9965900    2.3559880  
H    -6.5739990    3.7155750   -2.2901560  
