64


C    -5.6269180   -1.7991690    1.1655240  
C    -6.8928470   -1.2816760    1.1685460  
C    -6.8459250   -0.0412910    0.4472520  
C    -5.5043290    0.1368790    0.0180230  
N    -4.7655290   -0.9515500    0.4722980  
C    -5.0967460    1.2414370   -0.7482420  
C    -6.0589480    2.1912380   -1.0654470  
O    -5.7147210    3.2808730   -1.8096840  
C    -7.4006690    2.0351060   -0.6306010  
O    -8.2368360    3.0631260   -1.0222480  
C    -7.8010370    0.9357430    0.1077810  
H    -7.7595790   -1.7292300    1.6354550  
H    -4.0892900    1.3507170   -1.1363860  
H    -6.5210800    3.8100270   -1.9368530  
H    -9.1401950    2.8767940   -0.7267550  
H    -8.8390840    0.8314190    0.4179580  
H    -5.2339630   -2.7000980    1.6138530  
C    -2.3857560   -4.2322610   -1.3255420  
C    -3.4188990   -3.4414780   -0.8983310  
C    -2.8312790   -2.3026910   -0.2507170  
C    -1.4242580   -2.4659670   -0.3066380  
N    -1.1829710   -3.6622990   -0.9502330  
C    -0.4993770   -1.5137580    0.1846180  
C    -1.0742220   -0.3492390    0.7085100  
O    -0.2733310    0.6591240    1.1793120  
C    -2.4750950   -0.1732010    0.8086250  
O    -2.8437800    0.9962120    1.4376540  
C    -3.3638930   -1.1385080    0.3446310  
H    -4.4730550   -3.6363460   -1.0322850  
H    -0.2734720   -3.9384860   -1.2880270  
H    -0.8663340    1.3733860    1.4776160  
H    -3.7527720    1.2409860    1.1894620  
H    -2.4022630   -5.1694870   -1.8636440  
C     0.9437210   -1.7357920    0.1307870  
C     1.6656190   -2.9193960    0.0846240  
C     3.0537410   -2.5805050    0.0509520  
C     3.1331990   -1.1623350    0.0798490  
N     1.8469170   -0.6816000    0.1141510  
C     4.3601810   -0.4624170    0.0311450  
C     5.5185630   -1.2443560   -0.0167830  
O     6.7383860   -0.6405000    0.0064350  
C     5.4502530   -2.6601340   -0.0341880  
O     6.6890570   -3.2721750   -0.0730970  
C     4.2435370   -3.3323110   -0.0075870  
H     1.2569870   -3.9173950    0.1588760  
H     1.5681570    0.2781580    0.2623460  
H     7.4093480   -1.3396180   -0.0822250  
H     6.5751240   -4.2334600   -0.1007460  
H     4.2185400   -4.4201790   -0.0246540  
C     2.8654340    2.8554880    2.6523520  
C     3.1148430    1.6160110    2.1655970  
C     3.8710620    1.8358460    0.9346590  
C     3.9858820    3.3217810    0.8469950  
N     3.3998340    3.9117320    1.8515820  
C     4.6950570    3.9687240   -0.2273420  
C     5.2556690    3.1800430   -1.1708900  
O     5.9378100    3.6408060   -2.2336930  
C     5.1307900    1.6786430   -1.1344290  
O     5.5767460    1.0621950   -2.0960670  
C     4.4374780    1.0095140    0.0162390  
H     2.8289730    0.6629990    2.5864790  
H     4.7641740    5.0503890   -0.2596870  
H     6.1751690    2.8405930   -2.7522960  
H     2.3312400    3.1177430    3.5581680  
