64


C    -0.8012320    5.8579950   -0.1585890  
C    -0.7022290    4.4875140   -0.0964220  
C     0.6815890    4.1445010   -0.2513100  
C     1.3786730    5.3679300   -0.3971650  
N     0.4534320    6.3898110   -0.3448690  
C     2.7707050    5.4555900   -0.5435220  
C     3.4838820    4.2726130   -0.5307420  
O     4.8393670    4.2855350   -0.6567190  
C     2.8321990    3.0154540   -0.3881220  
O     3.6939230    1.9747550   -0.3983040  
C     1.4190960    2.9109400   -0.2647740  
H    -1.5349390    3.8237890    0.0710100  
H     0.6693340    7.3715450   -0.4196690  
H     3.2923840    6.4010110   -0.6540850  
H     5.1219570    3.3522740   -0.6239460  
H     3.1635270    1.1315040   -0.2565140  
H    -1.6690210    6.4975670   -0.0833880  
C     0.7901610    1.6178450   -0.1775890  
C    -0.5376970    1.2289060   -0.1804860  
C    -0.5551460   -0.1940320   -0.0960170  
C     0.8718860   -0.5831960   -0.0382510  
N     1.6404330    0.4677140   -0.0893330  
C     1.3383390   -1.9710860    0.0113790  
C     0.3402850   -2.8852340   -0.1077560  
O     0.5641550   -4.2281930   -0.1590260  
C    -1.1123320   -2.5480050   -0.1829190  
O    -1.8736440   -3.5270320   -0.3015270  
C    -1.5670030   -1.1473180   -0.0949970  
H    -1.3943990    1.8606080   -0.3317400  
H    -0.3378070   -4.6210570   -0.2407900  
C     4.6297260   -0.6689050    2.8041390  
C     3.4189500   -0.8427900    2.1876590  
C     3.6264750   -1.7329610    1.0789210  
C     5.0046270   -2.0775760    1.0872230  
N     5.5911550   -1.4079470    2.1404590  
C     5.5803820   -2.9660380    0.1721690  
C     4.7350020   -3.5420790   -0.7607840  
O     5.2210190   -4.4286850   -1.6736420  
C     3.3493290   -3.2321850   -0.7894330  
O     2.6592770   -3.8672780   -1.8025680  
C     2.7725980   -2.3127460    0.0959630  
H     2.4905190   -0.3789280    2.4843690  
H     6.5621470   -1.4739610    2.4011610  
H     6.6346880   -3.2235710    0.1819840  
H     4.4488190   -4.7036270   -2.2038420  
H     1.8439940   -4.2546870   -1.4197810  
H     4.8930500   -0.0714170    3.6654260  
C    -2.9767210   -0.8593500   -0.0189240  
C    -3.6366160    0.3272860    0.3229520  
C    -5.0290630    0.0777220    0.2828140  
C    -5.1959160   -1.2911430   -0.0905080  
N    -3.9481420   -1.8242050   -0.2668330  
C    -6.4562670   -1.8863490   -0.2229890  
C    -7.5644710   -1.0926790    0.0251560  
O    -8.8136790   -1.6170960   -0.0870290  
C    -7.4176010    0.2780650    0.4004310  
O    -8.6215530    0.9198100    0.6085230  
C    -6.1787410    0.8648200    0.5307110  
H    -3.1586430    1.2474680    0.6202910  
H    -3.7050060   -2.7875130   -0.4557560  
H    -6.5907640   -2.9249170   -0.5057120  
H    -9.4473930   -0.9098300    0.1262940  
H    -8.4604350    1.8401300    0.8643360  
H    -6.0882870    1.9104300    0.8174040  
