62


C     6.9734270    1.4582340    2.8937890  
C     5.8413210    0.9866900    2.2751720  
C     6.2443830    0.4274580    1.0101930  
C     7.6540130    0.5842900    0.9321780  
N     8.0634160    1.2274750    2.0831970  
C     8.4193380    0.1079210   -0.1365620  
C     7.7423690   -0.5691910   -1.1379510  
O     8.4226720   -1.0788290   -2.1968390  
C     6.3316420   -0.7462760   -1.0932690  
O     5.8294170   -1.4086270   -2.1865560  
C     5.5504340   -0.2256410   -0.0552210  
H     4.8484670    0.9939000    2.7018860  
H     9.0206450    1.4396120    2.3182300  
H     9.4970520    0.2219100   -0.1906520  
H     7.7566100   -1.5384940   -2.7438440  
H     5.1421260   -2.0348080   -1.8607400  
H     7.0924560    1.9333150    3.8572220  
C     2.5522180    2.8869210    0.6262590  
C     1.4036400    2.1668090    0.4884380  
C     1.7819990    0.8051200    0.1985670  
C     3.2642420    0.7893010    0.1847990  
N     3.6620220    2.0878690    0.4175980  
C     4.0720800   -0.3002290   -0.0573480  
C     3.3321470   -1.5178770   -0.3685440  
O     3.8387580   -2.5453610   -0.8168140  
C     1.7809620   -1.5738900   -0.1254930  
O     1.2924800   -2.7011010   -0.0614620  
C     1.0173320   -0.3311260   -0.0043850  
H     0.3977790    2.5395630    0.6013780  
H     2.6789040    3.9353470    0.8618590  
H     4.6210250    2.3461210    0.6068760  
C    -1.6451090    2.1929280   -2.4308370  
C    -2.8443760    1.7457830   -1.9407320  
C    -2.5566960    0.7487920   -0.9490890  
C    -1.1434440    0.6341160   -0.8857420  
N    -0.6188820    1.5333470   -1.7911370  
C    -0.4578880   -0.3085730   -0.0760510  
C    -1.2894180   -1.1994590    0.6136520  
O    -0.8350870   -2.1950450    1.4410480  
C    -2.7013970   -1.0953130    0.5826290  
O    -3.3887850   -2.0000000    1.3435970  
C    -3.3749820   -0.1076300   -0.1524210  
H    -3.8158980    2.0579590   -2.2890190  
H     0.3627200    1.6521790   -1.9840630  
H    -0.0746120   -2.6298910    0.9857720  
H    -2.7073490   -2.5856600    1.7320750  
H    -1.4352280    2.9296800   -3.1931300  
C    -4.8238480    0.0347140   -0.1103190  
C    -5.6031780    1.1301090   -0.4148760  
C    -6.9768290    0.7839530   -0.1849660  
C    -6.9702800   -0.6233420    0.2883140  
N    -5.6535100   -1.0195600    0.2914460  
C    -8.0847210   -1.3194660    0.6329360  
C    -9.3789120   -0.6544510    0.5318290  
O   -10.4341540   -1.2002940    0.8216140  
C    -9.4106320    0.8353500    0.0245120  
O   -10.4901050    1.4038930   -0.0682760  
C    -8.1440030    1.4781210   -0.3142310  
H    -5.2441690    2.1007720   -0.7162910  
H    -8.0611120   -2.3483130    0.9789000  
H    -8.1777820    2.5068710   -0.6605450  
H    -5.2895270   -1.8659430    0.7044710  
