62


C     3.4185310   -0.3191860    0.2737090  
C     4.2431390    0.6351480    0.8513570  
C     3.5074920    1.8583170    0.9205440  
C     2.2264960    1.6015520    0.3633920  
N     2.2097860    0.2875740   -0.0391990  
C     1.2313250    2.5967390    0.2351900  
C     1.5568070    3.8600810    0.7392000  
O     0.6349450    4.8638890    0.7125410  
C     2.8300260    4.1224440    1.3078720  
O     2.9797660    5.4257180    1.7520110  
C     3.8059850    3.1508570    1.3948400  
H     5.2289620    0.4631740    1.2600770  
H     1.3733640   -0.2483930   -0.2257170  
H     1.0692060    5.6566500    1.0725300  
H     3.8708220    5.5406420    2.1130430  
H     4.7778760    3.3804830    1.8277880  
C    -1.8566600   -0.3757180    1.0937130  
C    -2.8596580   -0.0813140    0.2073230  
C    -2.3108230    1.0579490   -0.5694590  
C    -0.9678820    1.3024050    0.0331680  
N    -0.7171320    0.4464290    0.9905920  
C    -0.0773910    2.3583210   -0.4143540  
C    -0.5372910    3.1190160   -1.4525080  
O     0.1622930    4.1097790   -2.0212720  
C    -1.8838780    2.9054740   -2.0711930  
O    -2.2151410    3.6468240   -2.9964380  
C    -2.7620300    1.8211650   -1.5798780  
H    -0.4239200    4.4674250   -2.7246410  
H    -3.7077610    1.6771000   -2.0868230  
H    -1.8361300   -1.1879860    1.8118820  
C    -5.4974070   -1.5874260    3.3578450  
C    -6.5045910   -2.0928200    2.5998080  
C    -6.1602940   -1.8565130    1.2144140  
C    -4.8497180   -1.1700360    1.2261470  
N    -4.4869760   -1.0694550    2.5552410  
C    -4.1701340   -0.7147560    0.1198130  
C    -4.8411640   -0.9495810   -1.1776970  
O    -4.3749740   -0.5847590   -2.2450390  
C    -6.2181870   -1.7184400   -1.2098620  
O    -6.7376490   -1.9174610   -2.2971990  
C    -6.8111420   -2.1388170    0.0514940  
H    -7.3986960   -2.5808740    2.9592790  
H    -7.7674980   -2.6512220    0.0209110  
H    -5.3930530   -1.5600950    4.4344640  
H    -3.7206740   -0.4961530    2.8776810  
C     7.2180470   -2.4052410   -0.5207580  
C     6.7152300   -3.6724790   -0.6507460  
C     5.2930220   -3.5816110   -0.4733800  
C     4.9917410   -2.2189600   -0.2187910  
N     6.1872600   -1.5285430   -0.2350220  
C     3.6780560   -1.7282470   -0.0205370  
C     2.6636480   -2.6866020   -0.1400850  
O     1.3463660   -2.3176250   -0.0114860  
C     2.9497210   -4.0514150   -0.3828870  
O     1.8190890   -4.8505040   -0.4365750  
C     4.2414310   -4.5157650   -0.5372120  
H     7.2870040   -4.5681650   -0.8513860  
H     6.2478670   -0.5222010   -0.2675590  
H     0.8128200   -3.1183070   -0.1580170  
H     2.0681260   -5.7409050   -0.7241120  
H     4.4337430   -5.5707160   -0.7209500  
H     8.2351140   -2.0466160   -0.5949570  
