62


C     1.8431590   -0.5673160   -1.3188500  
C     2.8657850   -0.2217390   -0.4623000  
C     2.3796120    0.9131730    0.2980980  
C     1.0644460    1.1939960   -0.1488590  
N     0.7659120    0.2759740   -1.1321950  
C     0.2903710    2.2651790    0.3564880  
C     0.8808380    3.0325200    1.3664900  
O     0.1725840    4.0342470    1.9493690  
C     2.1861240    2.7430510    1.8399070  
O     2.6029250    3.5857530    2.8497220  
C     2.9372210    1.7053390    1.3233570  
H    -0.1006860    0.2408870   -1.6469390  
H     0.7566800    4.4650580    2.5981720  
H     3.4970620    3.3415450    3.1316740  
H     3.9357180    1.5018980    1.7011110  
H     1.8086820   -1.3517290   -2.0612100  
C    -3.5262190   -0.0443390   -0.1395810  
C    -2.2374230    0.2959010    0.1804050  
C    -2.0839360    1.6775590   -0.2274160  
C    -3.4144850    2.0354800   -0.7951460  
N    -4.2504500    1.0381680   -0.7442420  
C    -3.6904790    3.3516620   -1.3109980  
C    -2.6967200    4.2666760   -1.2514870  
O    -2.8107130    5.5298800   -1.6898060  
C    -1.3276340    3.9325230   -0.7130840  
O    -0.4654150    4.7983530   -0.8152720  
C    -1.0571110    2.5712710   -0.1487110  
H    -1.5085200   -0.3049780    0.7041640  
H    -4.6687550    3.5834640   -1.7167150  
H    -1.9234260    5.9318560   -1.5600150  
C    -2.2144600   -4.3049240   -0.3848250  
C    -2.1952480   -2.9472380   -0.4172310  
C    -3.5438490   -2.5384100   -0.0599210  
C    -4.2657000   -3.8349660    0.1438290  
N    -3.4815230   -4.8603450   -0.0458160  
C    -5.6609290   -3.8826720    0.4840890  
C    -6.3142500   -2.7057690    0.6193950  
O    -7.6107820   -2.5994870    0.9443700  
C    -5.6195540   -1.3752390    0.4549020  
O    -6.2831490   -0.3764220    0.7044070  
C    -4.1737200   -1.3324830    0.0616060  
H    -1.3629760   -2.3030940   -0.6583670  
H    -6.1538450   -4.8380620    0.6255250  
H    -7.7845200   -1.6338030    1.0097150  
H    -1.3941430   -4.9827240   -0.5913310  
C     4.0515080   -4.5286280    0.0845580  
C     3.3406820   -3.3663470   -0.0637170  
C     4.2931070   -2.2980170   -0.1910890  
C     5.5836480   -2.8847200   -0.1049000  
N     5.4046250   -4.2437110    0.0585950  
C     6.7663980   -2.1381070   -0.1693910  
C     6.6392110   -0.7676970   -0.3285510  
O     7.7557420    0.0153360   -0.4160910  
C     5.3608950   -0.1608080   -0.4158780  
O     5.4086920    1.2126230   -0.5905880  
C     4.1760860   -0.8919270   -0.3490860  
H     2.2638130   -3.2774570   -0.0670840  
H     6.1455070   -4.9204810    0.1506210  
H     7.7534470   -2.5850520   -0.1086130  
H     7.4492820    0.9226820   -0.5884360  
H     4.5256140    1.5249500   -0.8484490  
H     3.7078230   -5.5457370    0.2102650  
