64


C    -3.0782170   -1.1247990   -1.2614150  
C    -2.1276340   -1.8839370   -0.5965590  
C    -2.8198200   -3.0646100   -0.1192320  
C    -4.1721700   -2.9493790   -0.5261560  
N    -4.2940020   -1.7621350   -1.2245460  
C    -5.1486220   -3.9028630   -0.2123350  
C    -4.7489780   -5.0006130    0.5321530  
O    -5.6531670   -5.9659270    0.8644130  
C    -3.3988610   -5.1311810    0.9549240  
O    -3.1553630   -6.2774310    1.6878900  
C    -2.4411470   -4.1850840    0.6463770  
H    -5.1347900   -1.4314230   -1.6721710  
H    -6.1836370   -3.8117620   -0.5253970  
H    -5.1738650   -6.6456340    1.3692780  
H    -2.2105130   -6.3316550    1.8944790  
H    -1.4107550   -4.3186760    0.9597040  
H    -2.9559330   -0.2055620   -1.8169170  
C    -0.4829520    1.9825040    0.5558060  
C     0.8593690    1.6773160    0.4615080  
C     0.9545040    0.3066570    0.0614590  
C    -0.3684710   -0.1656700   -0.0864760  
N    -1.2265580    0.8792710    0.2066540  
C    -0.7254800   -1.4919320   -0.4251940  
C     0.3527290   -2.3686870   -0.5801600  
O     0.1338110   -3.6764370   -0.9035580  
C     1.6975250   -1.9456510   -0.4516690  
O     2.5873800   -2.9389510   -0.6734680  
C     2.0516110   -0.5945830   -0.1637420  
H     1.6551290    2.3757640    0.6601950  
H    -2.2182620    0.7711700    0.3648770  
H     1.0189890   -4.0727810   -1.0148820  
H     3.5117950   -2.5477940   -0.5446730  
C     3.4256600   -0.1936160   -0.1152140  
C     4.0229800    1.0509970    0.0168660  
C     5.4274110    0.8394310   -0.0078990  
C     5.5885020   -0.6452720   -0.1674970  
N     4.4247330   -1.2287860   -0.2331420  
C     6.8747890   -1.2711110   -0.2350240  
C     7.9550210   -0.4544830   -0.1532670  
O     9.2187380   -0.8711320   -0.2002300  
C     7.8349040    1.0587890    0.0043540  
O     8.9100650    1.6710860    0.0647740  
C     6.5248960    1.6555800    0.0713990  
H     3.5400900    2.0118240    0.0793290  
H     6.9668100   -2.3455760   -0.3477360  
H     9.7493830   -0.0394440   -0.1161500  
H     6.4626240    2.7331470    0.1828980  
C    -0.6693310    3.9572280    2.0292980  
C    -1.4881980    5.0414630    2.1629340  
C    -2.4940220    4.9470230    1.1406330  
C    -2.2267740    3.7688780    0.3991590  
N    -1.1013020    3.1644660    0.9643310  
C    -2.9961920    3.3859350   -0.7070940  
C    -4.0713490    4.1916590   -1.0509610  
O    -4.8558170    3.8550380   -2.1171780  
C    -4.3649560    5.3640870   -0.3080160  
O    -5.4674790    6.0565380   -0.7703350  
C    -3.5900700    5.7496410    0.7708430  
H    -1.3955820    5.8152830    2.9125980  
H    -2.7722260    2.5124410   -1.3082540  
H    -5.5285550    4.5516780   -2.2095120  
H    -5.5849440    6.8647060   -0.2495300  
H    -3.8243470    6.6597150    1.3195990  
H     0.1831930    3.6403000    2.6119000  
