64


C     3.5298520    2.4309880   -0.2341390  
C     2.1698300    2.4163720   -0.0611480  
C     1.6809480    1.1421540   -0.5097860  
C     2.8055080    0.4057600   -0.9397830  
N     3.9207090    1.2174850   -0.7743860  
C     2.7500570   -0.9100250   -1.4154840  
C     1.5076020   -1.5132150   -1.4480640  
O     1.3772950   -2.7925680   -1.8879700  
C     0.3361130   -0.8194560   -1.0282790  
O    -0.7829940   -1.5652960   -1.1383300  
C     0.3838520    0.5261680   -0.5702470  
H     1.6041970    3.2251890    0.3727930  
H     3.6333190   -1.4513460   -1.7357580  
H     0.4289360   -3.0113890   -1.8227550  
H    -1.5517920   -1.0247470   -0.7780440  
H     4.2691170    3.1890790   -0.0219910  
C    -0.8281660    1.2167510   -0.2142910  
C    -1.0815670    2.5437040    0.0674390  
C    -2.4769340    2.6479130    0.3430700  
C    -3.0087000    1.2493500    0.1864760  
N    -2.0394350    0.4353210   -0.1336820  
C    -4.3979640    0.9038490    0.3745050  
C    -5.2006890    1.9494770    0.7418740  
O    -6.4960040    1.8305950    1.0096990  
C    -4.7018900    3.3803650    0.9000330  
O    -5.5542340    4.2119610    1.2300720  
C    -3.3037310    3.6780360    0.6776090  
H    -0.3906020    3.3698420    0.0396110  
H    -6.7886310    2.7486520    1.2310540  
H    -2.9749030    4.7050400    0.7966370  
C    -3.2010770   -2.9938230    2.1602350  
C    -4.1475340   -3.7718420    1.5487050  
C    -4.9184670   -2.9071610    0.6999490  
C    -4.3878940   -1.5987130    0.8469090  
N    -3.3595460   -1.6771750    1.7647300  
C    -4.9094940   -0.4723680    0.1720310  
C    -5.9736700   -0.7189430   -0.6997830  
O    -6.5036390    0.3005160   -1.4344140  
C    -6.5123580   -2.0220930   -0.8545530  
O    -7.5670290   -2.0814540   -1.7497020  
C    -6.0108160   -3.1081020   -0.1654470  
H    -4.2870790   -4.8350060    1.6889030  
H    -2.6765700   -0.9485390    1.9046670  
H    -7.2376350   -0.0746240   -1.9512750  
H    -7.8795320   -2.9954540   -1.8173280  
H    -6.4476430   -4.0961840   -0.2974900  
H    -2.4227300   -3.2625750    2.8605300  
C     5.8252260    1.0253540   -2.3058940  
C     7.1045640    0.5536170   -2.2292780  
C     7.3108960    0.0703450   -0.8890030  
C     6.1051240    0.2724480   -0.1749410  
N     5.2105660    0.8606910   -1.0644520  
C     5.9369840   -0.0796690    1.1671780  
C     7.0236390   -0.6555930    1.8082030  
O     6.9234580   -1.0218720    3.1180770  
C     8.2451340   -0.8690950    1.1144140  
O     9.2306190   -1.4494390    1.8900520  
C     8.3995240   -0.5161400   -0.2135280  
H     7.8247040    0.5488620   -3.0360910  
H     5.0082300    0.0769980    1.7043400  
H     7.7780920   -1.4084610    3.3757550  
H    10.0260480   -1.5861780    1.3546850  
H     9.3451060   -0.6894580   -0.7235940  
H     5.2701260    1.4680260   -3.1199020  
