62


C     4.5501980   -0.0056490   -0.0076780  
C     5.1801710   -1.2356570   -0.1728850  
C     6.5841970   -0.9992490   -0.2475910  
C     6.7727380    0.4047800   -0.1191390  
N     5.5321430    0.9749760    0.0322140  
C     8.0394330    1.0025170   -0.1543530  
C     9.1332920    0.1700270   -0.3247590  
O    10.3889720    0.6972530   -0.3684550  
C     8.9637020   -1.2382590   -0.4560190  
O    10.1516240   -1.9245160   -0.6163480  
C     7.7157840   -1.8262220   -0.4190980  
H     4.6875730   -2.1859910   -0.3241750  
H     5.3190120    1.9615860    0.0229150  
H     8.1886590    2.0728050   -0.0578980  
H    11.0087050   -0.0406280   -0.5027130  
H     9.9683120   -2.8676490   -0.7390020  
H     7.6112280   -2.9045620   -0.5217080  
C     1.2128370   -2.4756900    1.4244770  
C     0.1955550   -1.5881250    1.1787310  
C     0.7910270   -0.4041940    0.6318300  
C     2.1857440   -0.6409880    0.5614870  
N     2.4094970   -1.9165740    1.0353490  
C     3.1346060    0.3107840    0.1148470  
C     2.5994810    1.5688430   -0.2017810  
O     3.4281350    2.5760070   -0.6262450  
C     1.2170320    1.8373290   -0.1381570  
O     0.8980910    3.1159280   -0.5438130  
C     0.2751820    0.8726220    0.2594270  
H    -0.8512850   -1.7583740    1.3794520  
H     3.3264490   -2.2834400    1.2407630  
H     2.8571610    3.3228170   -0.8834120  
H    -0.0589800    3.1714220   -0.7275570  
H     1.1814410   -3.4728120    1.8402050  
C    -1.1439670    1.1602720    0.2719790  
C    -2.2197260    0.3361340    0.0571950  
C    -3.4287850    1.1083520    0.1530170  
C    -3.0045190    2.4906840    0.4484300  
N    -1.6006980    2.4996800    0.4429230  
C    -3.8414950    3.5325860    0.6527920  
C    -5.2802110    3.2905330    0.5459190  
O    -6.1105420    4.1729500    0.6882680  
C    -5.7655630    1.8312020    0.2344920  
O    -6.9627390    1.6022770    0.2570820  
C    -4.7537050    0.7750890    0.0035090  
H    -2.1583550   -0.7019500   -0.2316530  
H    -3.5032110    4.5441310    0.8562560  
H    -1.1205270    3.0947470    1.1107990  
C    -4.3065870   -3.0799000    2.1025580  
C    -5.0024480   -3.8811260    1.2559900  
C    -5.4651000   -3.0539400    0.1601410  
C    -4.9690010   -1.6856430    0.4405190  
N    -4.2443590   -1.7765860    1.6178590  
C    -5.2258860   -0.5816860   -0.3199630  
C    -6.0204550   -0.7990390   -1.5510660  
O    -6.2196600    0.0831890   -2.3663630  
C    -6.5729860   -2.2403610   -1.8518830  
O    -7.2688570   -2.4049570   -2.8416200  
C    -6.2240450   -3.3243330   -0.9358160  
H    -5.1841880   -4.9391760    1.3764280  
H    -6.6090590   -4.3157560   -1.1539090  
H    -3.8207490   -3.3270250    3.0374970  
H    -3.9174530   -0.9758170    2.1363290  
