60


C     5.4605570   -2.3566340    0.2662920  
C     5.0065770   -1.0562000    0.0808040  
C     6.1859560   -0.2591620   -0.2192300  
C     7.2970090   -1.1370510   -0.1780730  
N     6.8156720   -2.4048520    0.1110300  
C     8.6169000   -0.7209470   -0.3818310  
C     8.8273370    0.6257540   -0.6314620  
O    10.0898530    1.0916690   -0.8442210  
C     7.7308100    1.5266950   -0.6671090  
O     8.0946150    2.8336360   -0.9251600  
C     6.4302000    1.1065150   -0.4636450  
H     7.3724500   -3.2456200    0.1358320  
H     9.4609520   -1.4020670   -0.3487580  
H    10.0197210    2.0482590   -1.0080890  
H     7.2992400    3.3824180   -0.9943480  
H     5.6110730    1.8147460   -0.5232930  
H     4.8868010   -3.2535220    0.4479420  
C     1.6489160   -2.4498700    2.6587270  
C     2.9024510   -2.2123850    2.1994270  
C     2.7378830   -1.2613700    1.1029190  
C     1.2795130   -1.0123350    1.0710640  
N     0.6427790   -1.7235820    1.9611860  
C     0.6676320   -0.0945530    0.1232550  
C     1.5053310    0.5115800   -0.7558840  
O     1.1003860    1.4032970   -1.6797350  
C     2.9870200    0.2816140   -0.7488340  
O     3.6427430    0.9218350   -1.5716580  
C     3.6025790   -0.6953320    0.2069330  
H     3.8346610   -2.6052030    2.5786460  
H     1.9193680    1.6638540   -2.1552610  
H     1.3482980   -3.0962100    3.4747510  
C    -1.8879210    1.7189680    3.1781250  
C    -3.1247140    1.5998170    2.6377100  
C    -2.9122620    0.9825210    1.3316640  
C    -1.4392340    0.7678870    1.2746100  
N    -0.8453850    1.2217630    2.3413710  
C    -0.7891100    0.1484920    0.1322520  
C    -1.5932320   -0.1870800   -0.9102500  
O    -1.1478190   -0.7734260   -2.0341210  
C    -3.0758220    0.0361150   -0.8936750  
O    -3.7019260   -0.3046610   -1.8961540  
C    -3.7347520    0.6648870    0.2934890  
H    -4.0722500    1.8688530    3.0819380  
H    -1.9419700   -0.8917000   -2.5993260  
H    -1.6209220    2.1260350    4.1462280  
C    -5.6782550    2.1818150    0.6858430  
C    -5.1573920    0.9941160    0.2427230  
C    -6.2996220    0.1961560   -0.2208970  
C    -7.5048810    1.0328350    0.0038230  
N    -7.0499310    2.2197570    0.5528090  
C    -8.7775740    0.6636380   -0.2838180  
C    -9.0022750   -0.6652830   -0.8446470  
O   -10.1093570   -1.0885270   -1.1381660  
C    -7.7484980   -1.5845160   -1.0651950  
O    -7.9093810   -2.7080210   -1.5126670  
C    -6.4194290   -1.0578600   -0.7242040  
H    -9.6380100    1.3021000   -0.1083650  
H    -5.5685930   -1.7002580   -0.9145760  
H    -5.1451650    3.0382370    1.0763730  
H    -7.6306950    3.0190800    0.7551650  
