62


C     4.2587320   -0.5292690    0.2483650  
C     4.7134110   -1.6528600    0.8934220  
C     6.0368110   -1.9059670    0.4001380  
C     6.3367470   -0.8876720   -0.5426840  
N     5.2383390   -0.0467980   -0.6072970  
C     7.5567340   -0.8211630   -1.2234980  
C     8.4959200   -1.8039410   -0.9483190  
O     9.6995960   -1.7907650   -1.5894660  
C     8.2182250   -2.8260880   -0.0016870  
O     9.2544820   -3.7241960    0.1661130  
C     7.0119100   -2.8864400    0.6711250  
H     4.1789190   -2.1998430    1.6571640  
H     5.0796070    0.6611560   -1.3083250  
H     7.7887870   -0.0446640   -1.9450100  
H    10.2104360   -2.5503150   -1.2601760  
H     9.0012930   -4.3940310    0.8182630  
H     6.8224970   -3.6787580    1.3924460  
C     1.7980090   -0.5536460    0.3312980  
C     0.7589850    0.3490800    0.4294710  
C     1.3702820    1.6629840    0.4995770  
C     2.7721490    1.4777190    0.4445540  
N     3.0144210    0.1046260    0.3308640  
C     3.6826270    2.5359010    0.5483020  
C     3.1644270    3.8144310    0.6934750  
O     4.0080400    4.8794990    0.7902680  
C     1.7617600    4.0218150    0.7545340  
O     1.4009070    5.3432470    0.9147480  
C     0.8689390    2.9682020    0.6710910  
H     4.7567600    2.3910290    0.5426550  
H     3.4604070    5.6751240    0.9072000  
H     0.4364430    5.4166330    0.9687320  
H    -0.1994020    3.1508690    0.7547060  
H     1.7683850   -1.6248980    0.1970060  
C    -1.2389380   -1.0734960    1.0753100  
C    -0.6464820   -0.0111210    0.4597900  
C    -1.7624060    0.6463030   -0.2641740  
C    -2.9561060   -0.1774590    0.0688620  
N    -2.6357130   -1.1790690    0.8393040  
C    -4.2738350    0.1301690   -0.4598790  
C    -4.3581410    1.2037790   -1.2986610  
O    -5.5104090    1.6426450   -1.8290040  
C    -3.1649550    2.0221200   -1.6788410  
O    -3.3410500    2.9763540   -2.4380200  
C    -1.8403200    1.6754030   -1.1276690  
H    -5.2607670    2.4055040   -2.3962840  
H    -0.9957180    2.2804740   -1.4413440  
H    -0.7649100   -1.8068300    1.7162320  
C    -6.3857590   -1.1323200    3.2915990  
C    -5.4786830   -0.5751040    2.4573820  
C    -5.8997200   -0.9695430    1.1165640  
C    -7.1283000   -1.7924020    1.3544700  
N    -7.4099140   -1.8795930    2.6222480  
C    -7.8785460   -2.3705610    0.2696850  
C    -7.4338230   -2.1481320   -0.9872170  
O    -8.0211130   -2.6339630   -2.0938520  
C    -6.1965200   -1.3348140   -1.2640560  
O    -5.8355010   -1.2496710   -2.4340610  
C    -5.4498900   -0.7008340   -0.1341760  
H    -4.6106520    0.0150030    2.7092670  
H    -8.7631680   -2.9628500    0.4753980  
H    -7.4595450   -2.3278850   -2.8397310  
H    -6.4183760   -1.0755250    4.3732260  
