64


C     4.0281910   -0.7305260   -2.0488310  
C     4.7671620   -1.8586420   -2.2527270  
C     5.7084770   -1.9547260   -1.1698180  
C     5.4991500   -0.8319180   -0.3309810  
N     4.4596420   -0.0790720   -0.8886690  
C     6.2172400   -0.6414300    0.8546080  
C     7.1806590   -1.5833220    1.1816540  
O     7.9131150   -1.4342450    2.3250030  
C     7.4147290   -2.7029320    0.3430690  
O     8.4045030   -3.5517810    0.8016370  
C     6.6913620   -2.8983710   -0.8196300  
H     4.6658370   -2.5397660   -3.0868820  
H     6.0669330    0.2095810    1.5066580  
H     8.5338100   -2.1816270    2.3679250  
H     8.5314600   -4.2713870    0.1660070  
H     6.8743650   -3.7714210   -1.4432110  
H     3.2405490   -0.2886830   -2.6410490  
C     0.2582740    1.1333850   -0.1674500  
C     1.3882130    0.3916600   -0.4737910  
C     2.5060260    1.2467970   -0.2689020  
C     1.9224540    2.5449030    0.1776040  
N     0.6224480    2.4662750    0.2392070  
C     2.7271270    3.6864310    0.5088310  
C     4.0673210    3.5382670    0.3985290  
O     4.9567860    4.4921620    0.6802900  
C     4.7159060    2.2463230   -0.0795010  
O     5.9441140    2.2750690   -0.1918630  
C     3.8703760    1.0925250   -0.3839700  
H     1.4402950   -0.6465990   -0.7520800  
H     2.2696880    4.6121320    0.8386580  
H     5.8327900    4.0892970    0.4680000  
C    -2.0630670   -2.4938130   -1.5702190  
C    -1.0512880   -1.5989400   -1.3053060  
C    -1.6380770   -0.4644720   -0.6557510  
C    -3.0224760   -0.7342990   -0.5582650  
N    -3.2499200   -1.9774590   -1.1111100  
C    -3.9825190    0.1600960   -0.0297910  
C    -3.4882030    1.3852830    0.4097680  
O    -4.3233930    2.3020910    0.9614090  
C    -2.1049040    1.7051280    0.3351670  
O    -1.8229260    2.9327970    0.8240550  
C    -1.1361290    0.7927700   -0.1714090  
H    -0.0199990   -1.7457720   -1.5828610  
H    -4.1624870   -2.3955020   -1.2133740  
H    -3.7704030    3.0743720    1.1831390  
H    -0.8318270    3.0831110    0.7097700  
H    -2.0274030   -3.4614700   -2.0499140  
C    -5.9403640   -3.1556470    2.1250340  
C    -7.2317980   -2.8939450    1.7486560  
C    -7.1987260   -1.7353820    0.9005670  
C    -5.8410930   -1.3382010    0.7940010  
N    -5.0951090   -2.2284300    1.5418020  
C    -5.4134730   -0.2094930    0.0590550  
C    -6.4154060    0.5174650   -0.5876850  
O    -6.0877670    1.5929340   -1.3532380  
C    -7.7782790    0.1290140   -0.4929310  
O    -8.6355910    0.9506330   -1.2027450  
C    -8.1794690   -0.9764200    0.2317390  
H    -8.1063830   -3.4582510    2.0420680  
H    -4.1061970   -2.1405310    1.7191570  
H    -6.9204660    1.9807520   -1.6740460  
H    -9.5512080    0.6841150   -1.0340740  
H    -9.2317340   -1.2491910    0.2838670  
H    -5.5421560   -3.9350380    2.7593150  
