62


C     4.1989220   -0.3714720    0.0720830  
C     4.5501790   -1.5463980    0.7073030  
C     5.8594150   -1.9099230    0.2596150  
C     6.2743420   -0.9104180   -0.6609780  
N     5.2609080    0.0244410   -0.7375690  
C     7.5131260   -0.9478710   -1.3113290  
C     8.3538610   -2.0121390   -1.0240090  
O     9.5718990   -2.1001700   -1.6323640  
C     7.9617210   -3.0156460   -0.0968020  
O     8.9104490   -4.0045760    0.0860120  
C     6.7380670   -2.9759640    0.5438280  
H     3.9511600   -2.0602620    1.4471910  
H     5.1969910    0.7489880   -1.4365830  
H     7.8327230   -0.1872770   -2.0162480  
H    10.0048600   -2.9033550   -1.2953670  
H     8.5843930   -4.6493630    0.7308660  
H     6.4602370   -3.7574680    1.2485360  
C     1.7154470   -0.1044450    0.3288080  
C     2.9711030    0.3988810    0.1439670  
C     2.8182110    1.8474860    0.0356740  
C     1.3686100    2.1273560    0.1636010  
N     0.7401560    0.8954450    0.3551470  
C     0.8290510    3.3702270    0.1472930  
C     1.7189850    4.5165080   -0.0259270  
O     1.3189430    5.6701430   -0.0532790  
C     3.2586780    4.2431060   -0.1626970  
O     4.0222410    5.1859610   -0.2993660  
C     3.7210340    2.8531340   -0.1068930  
H    -0.2330450    3.5603610    0.2474980  
H     4.7916930    2.6819660   -0.1522160  
H     1.4104930   -1.1382710    0.4153100  
C    -1.5319930   -1.2784390    3.4036900  
C    -0.5462040   -0.6515850    2.6999880  
C    -1.1635840   -0.0512940    1.5434950  
C    -2.5992640   -0.3658960    1.6276560  
N    -2.7604850   -1.0918420    2.8008800  
C    -3.5722000   -0.0006390    0.7306070  
C    -3.0882010    0.7672280   -0.4359500  
O    -3.8254060    1.2114020   -1.2994830  
C    -1.5454570    1.0578350   -0.5968330  
O    -1.1634130    1.5669070   -1.6376360  
C    -0.6452450    0.6676750    0.4915550  
H     0.4973890   -0.5979460    2.9714090  
H    -1.4607040   -1.8436950    4.3236920  
H    -3.6115470   -1.5889360    3.0209030  
C    -5.6486780   -0.2457480    2.1462800  
C    -4.9923000   -0.2894410    0.9232320  
C    -5.9900310   -0.6897200   -0.0525030  
C    -7.2057760   -0.8795340    0.6489740  
N    -6.9646620   -0.5988020    1.9822050  
C    -8.3914840   -1.2956630    0.0309510  
C    -8.3492520   -1.5225830   -1.3347260  
O    -9.4720820   -1.9175040   -1.9963280  
C    -7.1387320   -1.3407780   -2.0575410  
O    -7.2551440   -1.6025740   -3.4081320  
C    -5.9717700   -0.9376650   -1.4397270  
H    -7.6666440   -0.5715630    2.7056330  
H    -9.3211980   -1.4352510    0.5727750  
H    -9.2406440   -1.9838780   -2.9394350  
H    -6.4549110   -1.3037040   -3.8657390  
H    -5.0707230   -0.7781320   -2.0221950  
H    -5.2853000    0.0893480    3.1078390  
