62


C     5.1687050    0.2978780    0.0675850  
C     5.5409960   -1.0029600   -0.2302480  
C     6.9010940   -1.1639400    0.1596690  
C     7.3297590    0.0795540    0.7027670  
N     6.2764600    0.9666760    0.5969640  
C     8.6156360    0.2750590    1.2175940  
C     9.4907370   -0.7990580    1.1697590  
O    10.7530340   -0.6654040    1.6554420  
C     9.0862390   -2.0469720    0.6107320  
O    10.0780720   -3.0040780    0.6329830  
C     7.8165950   -2.2386510    0.1075680  
H     4.9125240   -1.7335810   -0.7206690  
H     6.1971020    1.8075620    1.1512770  
H     8.9471980    1.2182890    1.6388390  
H    11.2075680   -1.5168110    1.5297880  
H     9.7476710   -3.8293940    0.2479920  
H     7.5262910   -3.1997630   -0.3109990  
C     3.9199250    0.9707150   -0.1371660  
C     2.6496000    0.4602580   -0.2783320  
C     1.7347210    1.5489980   -0.4462780  
C     2.5531260    2.7745390   -0.3867100  
N     3.8625470    2.3738300   -0.1541640  
C     2.0931530    4.0438320   -0.5428690  
C     0.6665210    4.2261840   -0.7105160  
O     0.1305510    5.3123760   -0.8739540  
C    -0.2534860    2.9515780   -0.6475090  
O    -1.4642210    3.1502620   -0.6257670  
C     0.3563940    1.6019260   -0.6176480  
H     2.3932960   -0.5807870   -0.1655050  
H     2.7338230    4.9198090   -0.5290980  
H     4.6459360    2.9384530   -0.4537650  
C    -0.4832610    0.4322250   -0.7781910  
C    -0.1675400   -0.8848560   -1.1164970  
C    -1.3815020   -1.6189090   -1.1778950  
C    -2.4356040   -0.7095080   -0.8733310  
N    -1.8626030    0.5100250   -0.6367850  
C    -3.8005840   -1.0851560   -0.8233980  
C    -4.0605490   -2.4314740   -1.1030820  
O    -5.3458410   -2.8913420   -1.1152320  
C    -3.0177410   -3.3490000   -1.4073170  
O    -3.4731230   -4.6315160   -1.6545040  
C    -1.6940680   -2.9676640   -1.4519130  
H     0.8138620   -1.2630040   -1.3573010  
H    -2.3241840    1.3903140   -0.4435390  
H    -5.3104340   -3.8288410   -1.3762940  
H    -2.7416560   -5.1787350   -1.9760190  
H    -0.9150920   -3.6903100   -1.6855300  
C    -4.9468010    1.1803530   -0.9621710  
C    -4.8567220   -0.1108280   -0.5302120  
C    -6.0280380   -0.2656100    0.3637150  
C    -6.7037830    1.0625710    0.3160340  
N    -6.0715300    1.8946910   -0.4624890  
C    -7.9035400    1.3317000    1.0669670  
C    -8.3954460    0.3432890    1.8503970  
O    -9.4997280    0.4541060    2.6104980  
C    -7.7226980   -0.9963910    1.9381760  
O    -8.2271980   -1.8439380    2.6748820  
C    -6.5004640   -1.2525230    1.1471510  
H    -8.3740910    2.3064800    1.0009780  
H    -9.5932240   -0.4170960    3.0548270  
H    -6.0614650   -2.2404410    1.2189350  
H    -4.2798750    1.6946110   -1.6443720  
