60


C    -4.5023910   -0.1811160    0.1047560  
C    -4.9694960   -1.4248740    0.5440960  
C    -6.3480150   -1.5098090    0.2101150  
C    -6.6937190   -0.2863780   -0.4363630  
N    -5.5648530    0.4898330   -0.4808980  
C    -7.9858060   -0.0218020   -0.9071250  
C    -8.9433300   -1.0066700   -0.7280870  
O   -10.2148760   -0.8052680   -1.1669680  
C    -8.6152020   -2.2387300   -0.0867470  
O    -9.6825860   -3.1078680    0.0104140  
C    -7.3439860   -2.4986670    0.3788130  
H    -4.3680000   -2.2232160    0.9556350  
H    -5.4330940    1.3826920   -0.9410520  
H    -8.2536390    0.9068500   -1.3994610  
H   -10.7273520   -1.6051360   -0.9560020  
H    -9.3966620   -3.9303840    0.4346880  
H    -7.1168350   -3.4453870    0.8647910  
C    -1.0699450   -1.0345670    2.6944410  
C    -0.1594990   -0.1817200    2.1527380  
C    -0.8096190    0.5138790    1.0649520  
C    -2.1778030   -0.0171530    1.0068530  
N    -2.2653260   -0.9883590    1.9892480  
C    -3.1834970    0.4069930    0.1615660  
C    -2.8345900    1.5799960   -0.6629220  
O    -3.6547660    2.2248400   -1.3049970  
C    -1.3371230    2.0429400   -0.7490600  
O    -1.0389690    2.7955880   -1.6604990  
C    -0.3654950    1.5148930    0.2238100  
H     0.8597190   -0.0413230    2.4781410  
H    -0.9686900   -1.7023840    3.5396720  
H    -3.1540110   -1.3074440    2.3493950  
C     3.7859180   -0.2113360   -0.0895020  
C     2.4106940   -0.1156560    0.0023360  
C     2.1475970    1.2833810    0.1202930  
C     3.5046190    1.9202930    0.0804800  
N     4.4550210    1.0278590   -0.0399370  
C     3.6941270    3.3389670    0.1367660  
C     2.5795940    4.1023980    0.2295520  
O     2.5848000    5.4336230    0.2944700  
C     1.1849030    3.5003970    0.3089910  
O     0.2744520    4.2987260    0.5204550  
C     1.0009620    2.0392490    0.2040510  
H     1.6760460   -0.9048440   -0.0192800  
H     4.6906740    3.7638340    0.0981380  
H     1.6371290    5.6881890    0.3958240  
C     3.9700860   -2.6373530   -0.3553540  
C     4.9128020   -3.5967690   -0.4795230  
C     6.2069180   -2.9506600   -0.4421010  
C     5.9467350   -1.4993500   -0.2840750  
N     4.5392460   -1.3569950   -0.2335520  
C     6.9276320   -0.5693400   -0.2074030  
C     8.3236280   -1.0208520   -0.2850320  
O     9.2625600   -0.2445050   -0.2207730  
C     8.6133900   -2.5516370   -0.4536420  
O     9.7685330   -2.9399170   -0.5187650  
C     7.4634870   -3.4563790   -0.5239200  
H     4.7326420   -4.6565000   -0.5917710  
H     6.7242090    0.4862090   -0.0949780  
H     7.6595220   -4.5180150   -0.6397090  
H     2.8950960   -2.7366720   -0.3472830  
