60


C     7.1566170   -1.3429110    1.9073500  
C     7.0668050   -2.6429970    1.4837470  
C     5.9350360   -2.7197210    0.6047610  
C     5.3796560   -1.4193640    0.5230350  
N     6.1504840   -0.5999930    1.3171970  
C     4.2078510   -1.1097110   -0.2169000  
C     3.6121170   -2.1893070   -0.8969990  
O     2.5305860   -1.9965310   -1.6872330  
C     4.1731120   -3.4925270   -0.8289310  
O     3.4748510   -4.4286210   -1.5700180  
C     5.3126750   -3.7688720   -0.1003430  
H     7.7258100   -3.4526170    1.7656220  
H     5.9082480    0.3531490    1.5431980  
H     2.2856060   -2.8645730   -2.0545510  
H     3.9079170   -5.2913880   -1.4947820  
H     5.7160050   -4.7793190   -0.0711140  
H     7.8636330   -0.8722130    2.5756390  
C     3.6752220    0.2405850   -0.2544680  
C     4.3741420    1.4239310   -0.2094180  
C     3.3842510    2.4697840   -0.2354110  
C     2.0777800    1.7323240   -0.2509970  
N     2.2484850    0.4470270   -0.2874070  
C     0.8041970    2.4320320   -0.2560460  
C     0.8622850    3.7888150   -0.3239970  
O    -0.2150480    4.5835190   -0.3504160  
C     2.1666620    4.5524760   -0.3433320  
O     2.0863970    5.7828060   -0.3921480  
C     3.4300310    3.8229480   -0.2891800  
H     5.4452400    1.5597880   -0.2728350  
H     0.1508360    5.4973480   -0.3911220  
H     4.3458900    4.4057540   -0.2992360  
C    -0.8682390   -0.1443180    2.8643320  
C    -2.0246140   -0.5725270    2.3105660  
C    -2.0874250    0.0812410    1.0077160  
C    -0.8194350    0.8781920    0.9429760  
N    -0.1211000    0.7511160    2.0312470  
C    -0.4700250    1.6853340   -0.2118500  
C    -1.3815880    1.7199630   -1.2187000  
O    -1.2203010    2.4305730   -2.3458400  
C    -2.6708620    0.9490770   -1.1753070  
O    -3.4377470    1.0901440   -2.1248180  
C    -2.9839110    0.0741990   -0.0074880  
H    -2.7708460   -1.2259980    2.7362830  
H    -2.0363590    2.2699150   -2.8691550  
H    -0.4626430   -0.3957040    3.8372330  
C    -6.4556520    0.1150780    2.7114780  
C    -7.2956340   -0.7638410    2.1200060  
C    -6.5793020   -1.2383290    0.9399310  
C    -5.2705220   -0.5052330    0.9889180  
N    -5.2083370    0.2808610    2.0218580  
C    -4.2498840   -0.6866030   -0.0320190  
C    -4.5432940   -1.5697010   -1.0276740  
O    -3.6967950   -1.8805100   -2.0161560  
C    -5.8497530   -2.3178760   -1.0949500  
O    -6.0083470   -3.0927370   -2.0359280  
C    -6.8672640   -2.1017370   -0.0522750  
H    -8.2866250   -1.0614270    2.4331730  
H    -4.1795860   -2.5214460   -2.5845500  
H    -7.7975130   -2.6544880   -0.1411100  
H    -6.6173410    0.6885620    3.6163010  
