64


C     4.1619090   -1.7206180   -2.2822640  
C     4.0882840   -1.0838340   -1.0657090  
C     5.2999160   -1.3803790   -0.3456940  
C     6.0763900   -2.2106260   -1.1924300  
N     5.3557480   -2.4075360   -2.3550920  
C     7.3335260   -2.7019110   -0.8165170  
C     7.8097740   -2.3477640    0.4354740  
O     9.0303210   -2.7939030    0.8502310  
C     7.0390430   -1.5204100    1.2977830  
O     7.6477500   -1.2638750    2.5111140  
C     5.7989480   -1.0379210    0.9267790  
H     5.6598400   -2.9585440   -3.1421590  
H     7.9352800   -3.3351270   -1.4604410  
H     9.1830550   -2.4284010    1.7387970  
H     7.1064480   -0.6413900    3.0189680  
H     5.2239690   -0.4054330    1.5985760  
H     3.4534890   -1.7312680   -3.0977120  
C     1.6917040   -0.7866290   -0.4747600  
C     0.8607660    0.2119800   -0.0230790  
C     1.6954380    1.3803220    0.1476440  
C     3.0132020    1.0166120   -0.2277040  
N     2.9936530   -0.3229250   -0.6012050  
C     4.0841670    1.9195460   -0.1959470  
C     3.8233080    3.2071900    0.2471880  
O     4.8335780    4.1263210    0.3043810  
C     2.5150410    3.5821560    0.6502180  
O     2.4133590    4.8955530    1.0765690  
C     1.4577270    2.6917690    0.6055070  
H     5.0884190    1.6438690   -0.4971760  
H     4.4504970    4.9502320    0.6511950  
H     1.5206690    5.0525890    1.4177960  
H     0.4634820    2.9985730    0.9230340  
H     1.4635020   -1.8123760   -0.7273820  
C    -1.1890100   -0.8962480    0.9853260  
C    -0.5741200    0.0869780    0.2451730  
C    -1.6341910    0.9477600   -0.2339300  
C    -2.8571110    0.4231480    0.2575520  
N    -2.5579630   -0.6926380    1.0062200  
C    -4.0988270    1.0197280   -0.0355900  
C    -4.0914210    2.1638230   -0.8338520  
O    -5.2682290    2.7826770   -1.1409930  
C    -2.8708840    2.6939380   -1.3197600  
O    -3.0344910    3.8328830   -2.0876250  
C    -1.6533630    2.1029680   -1.0380780  
H    -3.2366670   -1.3254390    1.4006110  
H    -5.0504260    3.5194830   -1.7393350  
H    -2.2061010    4.0332520   -2.5482250  
H    -0.7287310    2.5239020   -1.4246930  
H    -0.7490080   -1.7233420    1.5240200  
C    -6.2522900    1.2335490    1.2194880  
C    -7.3228920    0.4775320    1.5647570  
C    -7.1184130   -0.8397890    1.0041860  
C    -5.8182250   -0.7835600    0.2865480  
N    -5.3226500    0.5024710    0.4670580  
C    -5.2827630   -1.8262830   -0.4034570  
C    -6.0141720   -3.0904370   -0.4322500  
O    -5.6095010   -4.0786700   -1.0266510  
C    -7.3803660   -3.1768970    0.3412230  
O    -7.9945490   -4.2327570    0.3420530  
C    -7.8613670   -1.9777280    1.0301100  
H    -8.1748100    0.7995680    2.1458360  
H    -4.3526450   -1.7590280   -0.9568750  
H    -8.8165410   -2.0407250    1.5428570  
H    -6.0394900    2.2703780    1.4372150  
