60


C     2.5022890   -1.5659180   -0.0553930  
C     3.5426190   -0.6769040   -0.3575210  
C     4.7648990   -1.3785980   -0.2075240  
C     4.4365270   -2.7100060    0.1895710  
N     3.0718740   -2.7884270    0.2745630  
C     5.4116200   -3.6861990    0.4258420  
C     6.7364090   -3.3159360    0.2573240  
O     7.7270800   -4.2222030    0.4720800  
C     7.0834750   -1.9888030   -0.1407110  
O     8.4439660   -1.7910100   -0.2598320  
C     6.1248010   -1.0274390   -0.3727700  
H     3.4458100    0.3362110   -0.7201630  
H     2.4973460   -3.6012230    0.4625440  
H     5.1696830   -4.6996720    0.7272980  
H     8.5739870   -3.7739120    0.3014350  
H     8.6175380   -0.8774090   -0.5314800  
H     6.4084790   -0.0212260   -0.6736050  
C     0.0429700    2.0728240   -0.0395440  
C    -1.1973430    1.4696980   -0.2127210  
C    -1.0130850    0.0557160   -0.2522000  
C     0.4264250   -0.1634700   -0.1068030  
N     1.0049430    1.0770400   -0.0084700  
C     1.0705550   -1.3906630   -0.0713740  
C     0.1622370   -2.5429680    0.0057210  
O     0.5329490   -3.6896380    0.2312730  
C    -1.3902300   -2.3434470   -0.1984220  
O    -2.0578030   -3.3667020   -0.2164080  
C    -1.9401430   -0.9911930   -0.3666010  
H    -2.1380450    1.9725920   -0.3574920  
H     1.9804770    1.2846420    0.1582720  
C    -2.3577660    5.6518120    0.9043140  
C    -1.4049260    6.6018000    0.7438040  
C    -0.1725440    5.9209880    0.4047240  
C    -0.4948560    4.4785100    0.3605370  
N    -1.8328110    4.3818880    0.6471160  
C     0.4081400    3.4673170    0.0835710  
C     1.8149830    3.8939090   -0.0515250  
O     2.7558480    3.1113600   -0.1190400  
C     2.1530510    5.4275360   -0.1051780  
O     3.3024770    5.7544750   -0.3510830  
C     1.0839780    6.3832980    0.1579620  
H    -1.5319790    7.6687070    0.8539180  
H     1.3337480    7.4394640    0.1564970  
H    -3.4005160    5.7530830    1.1730250  
H    -2.2924700    3.5149570    0.8848280  
C    -3.8596390    0.2766270   -1.4020610  
C    -3.3319930   -0.7736860   -0.6752990  
C    -4.5453470   -1.5423450   -0.2621480  
C    -5.6741880   -0.7645140   -0.8276350  
N    -5.2512520    0.2819660   -1.5030210  
C    -7.0425430   -1.1489400   -0.6408250  
C    -7.2971720   -2.2550810    0.1033470  
O    -8.5290710   -2.7237200    0.3690460  
C    -6.1880880   -3.0537950    0.7068880  
O    -6.4888080   -4.0408110    1.3817690  
C    -4.7841950   -2.6458740    0.4754320  
H    -7.8353270   -0.5535800   -1.0804390  
H    -8.3825900   -3.5233150    0.9217640  
H    -4.0124490   -3.2814740    0.8891770  
H    -3.3015970    1.0353480   -1.9360350  
