64


C     4.5321470   -1.6055540   -2.3780530  
C     4.4385890   -1.0293870   -1.1329500  
C     5.6777560   -1.2756800   -0.4425220  
C     6.4911870   -2.0167720   -1.3356870  
N     5.7649260   -2.2102580   -2.4959860  
C     7.7838360   -2.4401210   -1.0000600  
C     8.2584870   -2.1072030    0.2583190  
O     9.5119910   -2.4889610    0.6347680  
C     7.4514760   -1.3674990    1.1665380  
O     8.0646660   -1.1214350    2.3789930  
C     6.1760390   -0.9528970    0.8353850  
H     6.0952010   -2.6958330   -3.3151300  
H     8.4141950   -3.0043280   -1.6796940  
H     9.6603030   -2.1462830    1.5331950  
H     7.5031100   -0.5421320    2.9152170  
H     5.5743720   -0.3861670    1.5416880  
H     3.8140200   -1.6228640   -3.1849130  
C     2.0495990   -0.9174440   -0.4669440  
C     1.1847020    0.0216830    0.0422900  
C     1.9245180    1.2440940    0.2155200  
C     3.2453000    0.9744880   -0.2188310  
N     3.3053030   -0.3572460   -0.6217160  
C     4.2509730    1.9503270   -0.2157990  
C     3.9139090    3.2124940    0.2465110  
O     4.8530630    4.2015750    0.2705590  
C     2.5946180    3.4939660    0.6962430  
O     2.4203830    4.7926350    1.1324230  
C     1.6027790    2.5319510    0.6869920  
H     5.2574010    1.7510750   -0.5655510  
H     4.4099910    5.0104120    0.5807900  
H     1.4774360    4.9636560    1.2748570  
H     0.5973690    2.7679410    1.0265350  
H     1.8800670   -1.9530920   -0.7231330  
C    -0.6144040   -1.1540400    1.3124910  
C    -1.9678640   -1.1575540    1.4014050  
C    -2.4682160   -0.1567890    0.4806450  
C    -1.2738740    0.4185540   -0.1746630  
N    -0.1668250   -0.2071690    0.3848270  
C    -1.2932470    1.3635820   -1.1566790  
C    -2.5816760    1.8474690   -1.5991410  
O    -2.7349330    2.6685310   -2.4948810  
C    -3.8755950    1.2806220   -0.8966450  
O    -4.9524380    1.7200830   -1.2656450  
C    -3.7465560    0.2579020    0.1769440  
H    -2.5633990   -1.8072390    2.0236630  
H    -0.3944480    1.7491130   -1.6241370  
H     0.1186520   -1.7534590    1.8352740  
C    -4.9616590   -0.4539580    2.2597740  
C    -4.9293100   -0.2131450    0.8949810  
C    -6.2570540   -0.5421910    0.4020100  
C    -7.0165210   -0.9854120    1.5131000  
N    -6.1999140   -0.9139190    2.6285120  
C    -8.3447190   -1.4171370    1.4142040  
C    -8.9258200   -1.4020040    0.1567200  
O   -10.2207000   -1.8004470   -0.0047790  
C    -8.1816620   -0.9677110   -0.9715130  
O    -8.8928670   -1.0059550   -2.1570810  
C    -6.8702370   -0.5474610   -0.8663430  
H    -6.4908850   -1.1042520    3.5747820  
H    -8.9209150   -1.7508390    2.2712110  
H   -10.4380490   -1.6811630   -0.9458170  
H    -8.3858480   -0.5529980   -2.8474680  
H    -6.3373260   -0.1912670   -1.7411750  
H    -4.1940090   -0.2813670    3.0000340  
