64


C     4.9742870    0.1648330   -0.0897550  
C     5.3521940   -0.7874400   -1.0072970  
C     6.6685360   -1.2445970   -0.6607130  
C     7.0638160   -0.5306740    0.4963260  
N     6.0489810    0.3737870    0.8015290  
C     8.2889600   -0.7421140    1.1342250  
C     9.1414020   -1.6899660    0.5845260  
O    10.3482760   -1.9387230    1.1701560  
C     8.7718370   -2.3999720   -0.5876310  
O     9.7282430   -3.2989750   -1.0190040  
C     7.5563690   -2.1879200   -1.2136790  
H     4.7739560   -1.0809270   -1.8724930  
H     5.8811100    0.6838560    1.7509240  
H     8.5940780   -0.1992550    2.0230610  
H    10.7941730   -2.6172240    0.6343460  
H     9.4207110   -3.7363940   -1.8265910  
H     7.2934100   -2.7470300   -2.1094750  
C     0.6641720   -0.8361970   -0.7746010  
C     2.0232890   -0.8923310   -0.6438440  
C     2.4751370    0.4253860   -0.2929540  
C     1.3286670    1.2539240   -0.2218410  
N     0.2172750    0.4652240   -0.5250880  
C     1.3852360    2.5973930    0.1630470  
C     2.6349840    3.1161760    0.4614150  
O     2.7561880    4.4248130    0.8225960  
C     3.7999600    2.3119350    0.3866970  
O     4.9620840    2.9900940    0.6982250  
C     3.7536150    0.9660400    0.0112280  
H     2.6369250   -1.7695700   -0.7876400  
H     0.5141630    3.2392720    0.2028520  
H     3.7077180    4.6061760    0.9181480  
H     5.7263610    2.4505090    0.4247460  
H    -0.0420290   -1.5931080   -1.0860570  
C    -3.0786460   -1.2593020    1.6612180  
C    -4.0936170   -0.4907910    1.1733210  
C    -3.5089740    0.4690890    0.2455490  
C    -2.0611900    0.1796360    0.2412030  
N    -1.8641980   -0.8708690    1.1158620  
C    -1.1365560    0.8535390   -0.5051640  
C    -1.6252310    1.9487310   -1.3643600  
O    -0.8992270    2.5846440   -2.1069450  
C    -3.1625780    2.3012630   -1.3146000  
O    -3.5528190    3.2566090   -1.9650710  
C    -4.0463200    1.4789840   -0.4889090  
H    -5.1069060    1.7063470   -0.4854910  
H    -3.1290930   -2.0695440    2.3758510  
H    -0.9605980   -1.2630100    1.3347500  
C    -5.9512920   -0.3235000    2.8207420  
C    -7.3065000   -0.4957320    2.8260310  
C    -7.6944950   -0.8675330    1.4932100  
C    -6.5134750   -0.9079100    0.7109620  
N    -5.4465380   -0.5682950    1.5422130  
C    -6.5134520   -1.2616390   -0.6438050  
C    -7.7354510   -1.5662200   -1.2239690  
O    -7.7931290   -1.9150660   -2.5420510  
C    -8.9312170   -1.5223830   -0.4590710  
O   -10.0649400   -1.8524670   -1.1774520  
C    -8.9237450   -1.1819770    0.8809650  
H    -7.9579810   -0.3654360    3.6794380  
H    -5.6104630   -1.3018310   -1.2425950  
H    -8.7285110   -2.0718200   -2.7579000  
H   -10.8447330   -1.7628310   -0.6100950  
H    -9.8517190   -1.1623640    1.4492580  
H    -5.2749390   -0.0245650    3.6088810  
