60


C     5.4841310    0.0770670    2.3556310  
C     5.0096590   -0.0535510    1.0558520  
C     6.1702860   -0.3499440    0.2345250  
C     7.2950430   -0.3678920    1.0950330  
N     6.8421010   -0.1088540    2.3771840  
C     8.6016670   -0.5963930    0.6470740  
C     8.7775820   -0.8171810   -0.7091070  
O    10.0223740   -1.0570870   -1.2058710  
C     7.6630520   -0.8003910   -1.5910250  
O     7.9958740   -1.0390330   -2.9092900  
C     6.3783620   -0.5666570   -1.1422610  
H     7.4097960   -0.1387230    3.2102090  
H     9.4587120   -0.6124940    1.3123640  
H     9.9238920   -1.2199250   -2.1604510  
H     7.1880760   -1.1733590   -3.4275310  
H     5.5430230   -0.5907000   -1.8334250  
H     4.9324730    0.2113070    3.2756400  
C     1.9862340    2.7611100    2.4609170  
C     0.8972510    2.3041600    1.7804930  
C     1.3323880    1.2036560    0.9560340  
C     2.7727760    1.0366840    1.2269960  
N     3.1014150    1.9987090    2.1726280  
C     3.6107730    0.1048370    0.6664550  
C     2.9740550   -0.7880980   -0.3276200  
O     3.5767700   -1.6685080   -0.9169140  
C     1.4448500   -0.6148250   -0.6590370  
O     0.9936160   -1.2709210   -1.5829680  
C     0.6529960    0.3756950    0.0870980  
H    -0.1057130    2.6971920    1.8444780  
H     2.0589610    3.5839980    3.1599670  
H     4.0559850    2.2342720    2.4025040  
C    -2.2145370    3.5547720   -1.2672070  
C    -1.0755120    2.9348460   -0.8776040  
C    -1.4724100    1.5695240   -0.5565500  
C    -2.9388920    1.5453690   -0.8189950  
N    -3.3606800    2.7094440   -1.2338860  
C    -3.7579240    0.3442410   -0.6482820  
C    -3.0645590   -0.7806570   -0.2992930  
O    -3.6315200   -1.9955960   -0.1619630  
C    -1.6013470   -0.7844090   -0.0015300  
O    -1.1199890   -1.8304880    0.4290710  
C    -0.7846670    0.4597930   -0.1790760  
H    -0.0769310    3.3435320   -0.8241780  
H    -2.9021380   -2.5843860    0.1371050  
H    -2.3387290    4.5797090   -1.5961420  
C    -5.8155050    1.2391560   -1.7699610  
C    -5.2023100    0.3999350   -0.8742730  
C    -6.2800340   -0.3283610   -0.1970710  
C    -7.5487020    0.1462660   -0.8085520  
N    -7.1864600    1.0804850   -1.7589310  
C    -8.7916400   -0.2701990   -0.4586090  
C    -8.9183630   -1.2456350    0.6176030  
O    -9.9924940   -1.6817040    1.0042120  
C    -7.5982730   -1.7358780    1.3117750  
O    -7.6772070   -2.5345970    2.2326230  
C    -6.3131580   -1.2162200    0.8313240  
H    -9.6972600    0.1002770   -0.9294630  
H    -5.4186050   -1.5878770    1.3127070  
H    -5.3511340    1.9675970   -2.4165260  
H    -7.8340610    1.6096450   -2.3219820  
