62


C     4.3408750   -1.9260450   -2.2416230  
C     5.5275750   -2.5762910   -2.4229620  
C     6.3716560   -2.2449550   -1.3078460  
C     5.6326940   -1.3763440   -0.4671410  
N     4.3830720   -1.1823850   -1.0591380  
C     6.1381400   -0.8828090    0.7419310  
C     7.4263210   -1.2558060    1.0954390  
O     7.9675950   -0.7996530    2.2610240  
C     8.1882540   -2.1129340    0.2577450  
O     9.4498080   -2.3915060    0.7461020  
C     7.6779240   -2.6095520   -0.9273550  
H     5.7789620   -3.2123160   -3.2607530  
H     5.5713210   -0.2324460    1.3983440  
H     8.8693080   -1.1594000    2.3218600  
H     9.9230160   -2.9580480    0.1190320  
H     8.2748820   -3.2742870   -1.5486480  
H     3.4551920   -1.8887850   -2.8597200  
C     2.0650490   -0.8572570   -0.2980130  
C     3.3257190   -0.4149700   -0.5514980  
C     3.3450470    1.0189140   -0.2927640  
C     1.9761450    1.3668190    0.1522470  
N     1.2216480    0.1901180    0.0932140  
C     1.6043980    2.6062780    0.5579860  
C     2.5918910    3.6854800    0.4964960  
O     2.3415310    4.8288790    0.8417860  
C     4.0275110    3.3472510   -0.0428170  
O     4.8510840    4.2412490   -0.1400560  
C     4.3223890    1.9536870   -0.4002360  
H     0.6134450    2.8440350    0.9278830  
H     5.3282650    1.7127350   -0.7276510  
H     1.6620810   -1.8561300   -0.3926570  
C    -0.6171480   -0.9564780    1.2930430  
C    -0.1102240    0.0180750    0.4925290  
C    -1.2816180    0.7592870   -0.0111460  
C    -2.4275180    0.0757980    0.6468460  
N    -2.0304160   -0.9174580    1.3928500  
C    -3.8005990    0.5090910    0.4230750  
C    -3.9863000    1.5566960   -0.4393600  
O    -5.1915570    2.0896970   -0.7131650  
C    -2.8566630    2.2048260   -1.1499790  
O    -3.1064110    3.1437670   -1.9091030  
C    -1.4676250    1.7541890   -0.8948460  
H    -5.0129920    2.8120890   -1.3551680  
H    -0.6734200    2.2767790   -1.4182120  
H    -0.0713860   -1.7217970    1.8313810  
C    -4.8682400   -0.5105130    2.4133560  
C    -6.0354840   -1.1438130    2.7157350  
C    -6.8025170   -1.2386480    1.5020550  
C    -6.0445110   -0.6221410    0.4768970  
N    -4.8509910   -0.1662640    1.0564320  
C    -6.4704790   -0.5969980   -0.8545420  
C    -7.6984650   -1.1752220   -1.1482650  
O    -8.1574580   -1.1652070   -2.4345270  
C    -8.4781920   -1.7765120   -0.1308540  
O    -9.6734370   -2.3071460   -0.5758780  
C    -8.0424940   -1.8173490    1.1833380  
H    -6.3207790   -1.5089560    3.6929290  
H    -5.8989770   -0.1392370   -1.6506550  
H    -9.0240080   -1.6067840   -2.4342140  
H   -10.1570800   -2.6873480    0.1722060  
H    -8.6455050   -2.3011380    1.9492680  
H    -4.0257960   -0.2582270    3.0369670  
