60


C     4.7113010   -0.0192400    0.0582500  
C     4.4827840   -1.2772370   -0.5011930  
C     5.7105200   -1.9849190   -0.4834680  
C     6.6852590   -1.1217410    0.1013170  
N     6.0565490    0.0522460    0.4181340  
C     8.0214670   -1.5037290    0.2755730  
C     8.3805020   -2.7738330   -0.1457490  
O     9.6649210   -3.1994430   -0.0021960  
C     7.4196770   -3.6517310   -0.7327860  
O     7.9454350   -4.8768770   -1.0946980  
C     6.1056900   -3.2766920   -0.9040390  
H     3.5280190   -1.6151140   -0.8702270  
H     6.4727630    0.8698340    0.8397210  
H     8.7683300   -0.8533300    0.7184520  
H     9.7119410   -4.1044240   -0.3570870  
H     7.2519550   -5.4211010   -1.4961460  
H     5.3881490   -3.9598990   -1.3536860  
C     0.4392770    0.3372060   -0.7738370  
C     0.1414140    1.6146810   -0.3630500  
C     1.4464370    2.1362600    0.1103380  
C     2.3925490    1.0067230   -0.0880920  
N     1.7832330   -0.0242560   -0.6177540  
C     3.8101000    1.0889440    0.2763670  
C     4.1923570    2.2853960    0.8426580  
O     5.4626050    2.5469070    1.2537110  
C     3.2755660    3.4090600    1.0679490  
O     3.7254220    4.4364690    1.5964350  
C     1.8585310    3.2915380    0.6633570  
H     5.4160780    3.4653480    1.6084770  
H     1.2266330    4.1577350    0.8113880  
H    -0.2360650   -0.3713100   -1.2368830  
C    -3.9438880   -0.0383190    0.2861210  
C    -2.5796150    0.1738450    0.2317380  
C    -2.3393910    1.5184180   -0.1831950  
C    -3.6729710    2.1294860   -0.3617360  
N    -4.6028050    1.1245190   -0.1402380  
C    -3.9067180    3.4298140   -0.6698660  
C    -2.7587890    4.3021770   -0.8452690  
O    -2.8486110    5.4913210   -1.1067710  
C    -1.3192600    3.6838990   -0.6905190  
O    -0.3708280    4.4386980   -0.8350620  
C    -1.1678810    2.2383790   -0.3902980  
H    -1.8313010   -0.5729860    0.4463380  
H    -4.9009870    3.8484270   -0.7900820  
H    -5.5551290    1.3314200    0.1256840  
C    -4.2288300   -2.2557260    1.4556770  
C    -4.6678420   -1.2103360    0.6758260  
C    -6.0563410   -1.5824430    0.3285420  
C    -6.2592210   -2.8888310    1.0145900  
N    -5.1784890   -3.2633810    1.6607570  
C    -7.4944410   -3.6082280    0.9229900  
C    -8.4876340   -3.0729570    0.1669210  
O    -9.6898400   -3.6400380   -0.0029040  
C    -8.3068350   -1.7744280   -0.5638390  
O    -9.2459310   -1.3513600   -1.2353380  
C    -7.0194620   -1.0530560   -0.4513390  
H    -7.6107770   -4.5537040    1.4407920  
H   -10.1882950   -3.0375340   -0.5975530  
H    -6.9250750   -0.1372810   -1.0264300  
H    -3.2569040   -2.3496790    1.9258980  
