60


C     2.0637130   -1.4373180   -1.1643310  
C     3.2518140   -1.0685500   -0.5239610  
C     3.8265200   -2.3084780   -0.0203790  
C     2.9338750   -3.3512170   -0.3675630  
N     1.8789540   -2.7823410   -1.0703000  
C     3.1289190   -4.6882370   -0.0133840  
C     4.2685670   -4.9899000    0.7190170  
O     4.5210580   -6.2743650    1.0850300  
C     5.1752930   -3.9618480    1.0867630  
O     6.2594340   -4.4124220    1.8092940  
C     4.9690360   -2.6414570    0.7341850  
H     1.1420120   -3.3002650   -1.5252080  
H     2.4371870   -5.4786650   -0.2854410  
H     5.3672170   -6.2766950    1.5666390  
H     6.8907720   -3.6876650    1.9344110  
H     5.6955830   -1.8818210    0.9960390  
H     1.3906030   -0.8217650   -1.7426900  
C     1.0628400    2.8152000   -0.1678030  
C     1.4478900    1.4674420   -0.1480620  
C     2.8414200    1.3883910   -0.3963030  
C     3.3091320    2.7827450   -0.5471450  
N     2.1970890    3.5768770   -0.4382300  
C     4.6026340    3.1575330   -0.7451260  
C     5.6142370    2.1230500   -0.7749050  
O     6.8076390    2.3357720   -0.9329090  
C     5.1628350    0.6280580   -0.5674310  
O     6.0409350   -0.2179010   -0.5101660  
C     3.7154990    0.3016990   -0.4689140  
H     0.8187190    0.6402050    0.1340840  
H     4.9095810    4.1918070   -0.8606720  
H     2.1577350    4.5904020   -0.3940020  
C    -3.1378980    1.2148620    0.1127500  
C    -1.7739480    1.3748070   -0.1387490  
C    -1.4211880    2.7096480    0.1563710  
C    -2.6692060    3.3756020    0.5879510  
N    -3.6523600    2.4148330    0.5630160  
C    -2.7845810    4.6878480    0.9318600  
C    -1.6102570    5.5292200    0.8392080  
O    -1.5989330    6.7177770    1.1248040  
C    -0.2763770    4.8828030    0.3296470  
O     0.6719440    5.6432140    0.1536180  
C    -0.2065040    3.4219700    0.0939930  
H    -1.1357210    0.6027090   -0.5362080  
H    -3.7170960    5.1340940    1.2617090  
H    -4.6349960    2.5298000    0.7712310  
C    -4.0001420    0.0892230   -0.0298000  
C    -3.7173100   -1.1975400   -0.4384810  
C    -4.9686400   -1.8968640   -0.3878360  
C    -5.9525600   -0.8709710    0.0855970  
N    -5.3792440    0.2844350    0.2925900  
C    -7.3410090   -1.1907750    0.2669690  
C    -7.7322640   -2.4603450   -0.0051240  
O    -8.9885490   -2.9009900    0.1180420  
C    -6.7644620   -3.5207300   -0.4840470  
O    -7.2313080   -4.6429080   -0.7018270  
C    -5.3594640   -3.1728030   -0.6618360  
H    -2.7594500   -1.6049300   -0.7302020  
H    -8.0380090   -0.4344680    0.6100400  
H    -8.9538830   -3.8489680   -0.1484790  
H    -4.6895770   -3.9542300   -1.0066480  
