62


C    -0.0148280    0.4286730    0.9784740  
C     0.0050630    1.6994730    0.4195030  
C    -1.2918690    1.8796840   -0.2065810  
C    -2.0267260    0.6893370    0.0083750  
N    -1.2268120   -0.1675090    0.7414400  
C    -3.3283210    0.4590510   -0.4854370  
C    -3.8872080    1.4984850   -1.2267570  
O    -5.1517240    1.3872080   -1.7140280  
C    -3.1624270    2.6991990   -1.4587870  
O    -3.8629310    3.6304720   -2.2032130  
C    -1.8892360    2.9035730   -0.9676810  
H    -1.5045190   -1.0887510    1.0462320  
H    -5.3503260    2.2185350   -2.1795340  
H    -3.3803430    4.4706390   -2.2002390  
H    -1.3784240    3.8458840   -1.1338950  
H     0.7254800   -0.0588220    1.5973120  
C     4.2817550    0.9190840   -0.1132500  
C     4.7612670    2.1882380    0.0919700  
C     3.6448110    3.0517440    0.3688340  
C     2.4462210    2.1928570    0.3256230  
N     2.8989140    0.8959450    0.0939670  
C     1.1498470    2.6117600    0.4599680  
C     0.9798200    4.0672900    0.6916580  
O    -0.1134070    4.5929780    0.8232530  
C     2.2540560    4.9941920    0.7903860  
O     2.0745100    6.1896980    0.9828020  
C     3.5621600    4.3917460    0.6214440  
H     5.8026450    2.4784680    0.0974800  
H     4.4343670    5.0359640    0.6700120  
H     2.2857430    0.2004530   -0.3129520  
C     6.1624680   -0.3290400   -1.1999620  
C     4.9963600   -0.2856960   -0.4814430  
C     4.6440920   -1.6732250   -0.1823650  
C     5.7051450   -2.5099760   -0.7953670  
N     6.5961250   -1.6252250   -1.3816810  
C     5.7452260   -3.8637270   -0.7509220  
C     4.6742430   -4.5668460   -0.0446060  
O     4.6210880   -5.7826420    0.0405380  
C     3.5533850   -3.7031160    0.6370830  
O     2.6567830   -4.2641980    1.2448250  
C     3.6271120   -2.2418620    0.5158550  
H     6.5348030   -4.4543020   -1.2051880  
H     2.8562760   -1.6636130    1.0132850  
H     6.7208100    0.4962080   -1.6215930  
H     7.4028390   -1.8954790   -1.9234000  
C    -4.6386150   -1.2309420    3.3654520  
C    -5.1864620   -2.3953210    2.8936960  
C    -5.0283570   -2.3896810    1.4659170  
C    -4.3647350   -1.1822420    1.1282580  
N    -4.1249290   -0.5022750    2.3071880  
C    -4.0481230   -0.8061570   -0.1945570  
C    -4.4266680   -1.7033240   -1.1931300  
O    -4.1343470   -1.4343000   -2.4969900  
C    -5.0924130   -2.9163630   -0.8728150  
O    -5.3886720   -3.6928820   -1.9801380  
C    -5.3916850   -3.2710690    0.4285790  
H    -5.6477630   -3.1688030    3.4924650  
H    -3.7643460    0.4383860    2.3596950  
H    -4.5104730   -2.1581840   -3.0269270  
H    -5.8727910   -4.4825590   -1.6976520  
H    -5.9002850   -4.2095240    0.6412120  
H    -4.5593290   -0.8565240    4.3763910  
