62


C     2.2063170   -5.6097230    1.6167620  
C     3.5214590   -5.5293730    1.2468190  
C     3.6420570   -4.3813870    0.3948330  
C     2.3488100   -3.7934750    0.2958710  
N     1.5026590   -4.5484710    1.0810890  
C     2.0881440   -2.6066770   -0.4423390  
C     3.1989310   -2.0969970   -1.1320540  
O     3.0747860   -0.9727900   -1.9259040  
C     4.4848940   -2.6779940   -1.0479750  
O     5.4469260   -2.0051050   -1.7858800  
C     4.7268080   -3.8010180   -0.2843220  
H     4.3155380   -6.1998860    1.5450540  
H     0.5034900   -4.5508500    0.9185270  
H     3.9311090   -0.8639460   -2.3809280  
H     6.2263470   -2.5700590   -1.8920810  
H     5.7270210   -4.2232220   -0.2163090  
H     1.6991450   -6.3415210    2.2300360  
C     1.0743690    1.6587610    0.0297670  
C    -0.2885080    1.5669940   -0.0974140  
C    -0.6445990    0.1969620   -0.3188310  
C     0.6221470   -0.5579070   -0.3039670  
N     1.6459280    0.3608220   -0.0539100  
C     0.7752720   -1.9149460   -0.4643290  
C    -0.4904940   -2.6487240   -0.5844840  
O    -0.5737180   -3.8713380   -0.6036500  
C    -1.8587760   -1.8690510   -0.6498640  
O    -2.8580780   -2.5481000   -0.8335550  
C    -1.8790300   -0.4088570   -0.4913180  
H    -0.9808790    2.3810190    0.0467010  
H     2.4791060    0.2358570   -0.6379490  
C    -3.2979660    1.5818350   -1.1450840  
C    -3.1238020    0.3346710   -0.6021690  
C    -4.4861200   -0.0269340   -0.1264230  
C    -5.3180640    1.1588430   -0.4735200  
N    -4.6147380    2.0807540   -1.0791250  
C    -6.7205530    1.2286350   -0.1647400  
C    -7.2800540    0.1779380    0.4818360  
O    -8.5722830    0.1081380    0.8423550  
C    -6.4681420   -1.0257060    0.8613970  
O    -7.0404610   -1.9375020    1.4571650  
C    -5.0310660   -1.0799740    0.5116270  
H    -7.2906140    2.1085550   -0.4416330  
H    -8.6686370   -0.7630010    1.2869690  
H    -4.4969880   -1.9873540    0.7635870  
H    -2.5464290    2.1822200   -1.6422420  
C     0.7007180    6.0226690   -0.9726970  
C     0.4891710    4.6686460   -0.8838840  
C     1.5619430    4.1212120   -0.1069090  
C     2.4089240    5.2048070    0.2405910  
N     1.8546870    6.3496030   -0.2936010  
C     3.5881700    5.0487860    0.9773860  
C     3.9299950    3.7661300    1.3744800  
O     5.0616030    3.5620760    2.1056010  
C     3.1127840    2.6562300    1.0421570  
O     3.5852300    1.4706620    1.5447150  
C     1.9210670    2.8023490    0.3068640  
H    -0.3287070    4.1333120   -1.3416130  
H     2.2425730    7.2763620   -0.2119230  
H     4.2298460    5.8816530    1.2465470  
H     5.1006550    2.6111030    2.3107390  
H     2.9390910    0.7566540    1.3690100  
H     0.1177050    6.7854470   -1.4688340  
