60


C     0.1286750    4.3078350   -1.0248230  
C    -0.4923780    3.1605710   -0.5585350  
C    -1.8506850    3.5371940   -0.2157980  
C    -1.9782920    4.9170510   -0.5070150  
N    -0.7553050    5.3506670   -0.9940780  
C    -3.1575780    5.6372040   -0.2885910  
C    -4.2363540    4.9489900    0.2443040  
O    -5.4076940    5.6001970    0.4761990  
C    -4.1243110    3.5683960    0.5643450  
O    -5.2733020    3.0319850    1.1022850  
C    -2.9545110    2.8624190    0.3459190  
H    -0.5565710    6.2865660   -1.3142990  
H    -3.2518480    6.6954060   -0.5088190  
H    -6.0248460    4.9624350    0.8754330  
H    -5.1139290    2.1204330    1.3896090  
H    -2.8909050    1.8164790    0.6363640  
H     1.1300820    4.4347310   -1.4103560  
C     0.1256740    1.8604680   -0.4754840  
C     1.4436810    1.5027150   -0.3150090  
C     1.5314980    0.0680030   -0.3354340  
C     0.1497100   -0.4208180   -0.5428420  
N    -0.6564430    0.7014690   -0.5653660  
C    -0.2216480   -1.7258270   -0.7025940  
C     0.8471280   -2.7306990   -0.5804950  
O     0.6427420   -3.9276170   -0.7002060  
C     2.3073210   -2.2472230   -0.2624590  
O     3.1478740   -3.0954530   -0.0192540  
C     2.5928590   -0.7981480   -0.2132310  
H     2.2642430    2.1879690   -0.1636920  
H    -1.6037910    0.6934360   -0.9111490  
C    -2.3338500   -1.7748130   -2.1005880  
C    -1.5986850   -2.1413550   -1.0109070  
C    -2.4542030   -3.0296350   -0.2217900  
C    -3.7420150   -3.1289530   -0.9499220  
N    -3.6111310   -2.3246960   -2.0677080  
C    -4.8032820   -3.8710560   -0.5434830  
C    -4.6899720   -4.6123250    0.7088090  
O    -5.5936000   -5.2968770    1.1638040  
C    -3.3412980   -4.5017580    1.5109250  
O    -3.2381630   -5.0860310    2.5770300  
C    -2.2580090   -3.6840740    0.9496270  
H    -5.7348710   -3.9357970   -1.0974700  
H    -1.3211610   -3.6446920    1.4947100  
H    -2.0349110   -1.1592640   -2.9398520  
H    -4.2640240   -2.3067200   -2.8360290  
C     4.5074960    1.6258190    2.9405890  
C     5.7925000    1.5932500    2.5020470  
C     5.8100930    0.8235910    1.2751940  
C     4.4079890    0.4086750    1.0298410  
N     3.6679740    0.9408620    2.0699320  
C     3.9851230   -0.3691510   -0.0106420  
C     5.0175120   -0.7713290   -0.9934340  
O     4.7455820   -1.3528690   -2.0285700  
C     6.5151980   -0.3716240   -0.7277990  
O     7.3701780   -0.7563650   -1.5103970  
C     6.8176960    0.4543270    0.4385850  
H     6.6467440    2.0487660    2.9812660  
H     7.8535600    0.7315450    0.6085700  
H     4.0956870    2.0938010    3.8251600  
H     2.6834770    0.7747120    2.2081270  
