62


C     3.0428500   -0.5668210   -1.9839900  
C     1.7492780   -0.5039780   -1.5476980  
C     1.7215950    0.3506330   -0.3891530  
C     3.0466210    0.7938590   -0.1635500  
N     3.8372360    0.2153430   -1.1502680  
C     3.4040430    1.6692260    0.8643120  
C     2.3831410    2.1079980    1.6925890  
O     2.6620230    2.9612880    2.7172190  
C     1.0451180    1.6709460    1.5018330  
O     0.1748430    2.1647760    2.4535420  
C     0.6865960    0.7959730    0.4756740  
H     0.9053690   -0.9952800   -2.0109180  
H     4.4221740    2.0058800    1.0228900  
H     1.8184950    3.1618440    3.1596170  
H    -0.7442910    2.0071390    2.1859710  
H     3.4949780   -1.0898350   -2.8138200  
C    -1.1064410   -0.9775230    0.2028230  
C    -0.7006990    0.3224350    0.3159370  
C    -1.9148360    1.1307920    0.2349470  
C    -3.0468270    0.1850990    0.0895730  
N    -2.4839600   -1.0760060    0.0753580  
C    -4.3589420    0.5409040   -0.0420280  
C    -4.6623390    1.9901880    0.0215350  
O    -5.8009430    2.4185500    0.0648840  
C    -3.4699680    3.0085020    0.0977590  
O    -3.7147770    4.2028210    0.0521370  
C    -2.1115160    2.4802130    0.2311360  
H    -1.2936620    3.1936970    0.2681430  
H    -0.4981060   -1.8721100    0.2166400  
H    -3.0041570   -1.9306880   -0.0473120  
C    -5.8399730   -2.9502150    2.3194590  
C    -5.1382390   -1.8731700    1.8766160  
C    -5.7429810   -1.4452120    0.6302320  
C    -6.8738700   -2.3738440    0.3865320  
N    -6.8602460   -3.2751300    1.4365260  
C    -7.7366590   -2.2956880   -0.6583980  
C    -7.5429350   -1.2273140   -1.6301400  
O    -8.2826250   -1.0475880   -2.5844180  
C    -6.3064890   -0.2764880   -1.4463710  
O    -6.0370480    0.5073690   -2.3370110  
C    -5.4629380   -0.4129800   -0.2269040  
H    -4.3045340   -1.4064250    2.3789600  
H    -8.5729400   -2.9740720   -0.7961590  
H    -5.6997930   -3.5354540    3.2188090  
H    -7.5604310   -3.9836280    1.5916510  
C     5.7922270    1.4098910   -2.0233840  
C     7.1484200    1.2745590   -1.9334200  
C     7.4167490    0.1253940   -1.1090030  
C     6.1680340   -0.4129360   -0.7138950  
N     5.1879040    0.3903520   -1.2882500  
C     6.0403130   -1.5436120    0.0977950  
C     7.2125430   -2.1493190    0.5244820  
O     7.1552940   -3.2570810    1.3195830  
C     8.4779200   -1.6291100    0.1420870  
O     9.5486160   -2.3440150    0.6457940  
C     8.5922310   -0.5098630   -0.6618660  
H     7.8796900    1.9198430   -2.4008100  
H     5.0788100   -1.9451870    0.3974370  
H     8.0718310   -3.5183860    1.5142300  
H    10.3764210   -1.9219800    0.3726490  
H     9.5730590   -0.1303510   -0.9418390  
H     5.1753000    2.1328640   -2.5366750  
