62


C     4.8665630   -0.2737420   -0.0831740  
C     5.7280690   -0.6630990   -1.0824970  
C     7.0665550   -0.3581300   -0.6638420  
C     6.9756180    0.2267350    0.6220190  
N     5.6228970    0.3362690    0.9445790  
C     8.0975390    0.6214490    1.3544850  
C     9.3423990    0.4324790    0.7691920  
O    10.4707280    0.7969070    1.4422140  
C     9.4522780   -0.1311390   -0.5294020  
O    10.7532540   -0.2426330   -0.9787300  
C     8.3373650   -0.5224430   -1.2487780  
H     5.4278380   -1.0658930   -2.0397010  
H     5.3102550    0.2823770    1.9070770  
H     8.0326290    1.0659680    2.3423600  
H    11.2289050    0.5913170    0.8682720  
H    10.7591020   -0.6400440   -1.8620500  
H     8.4459140   -0.9562390   -2.2407670  
C     1.8527370   -3.2568470   -1.5509880  
C     3.0186610   -2.6084440   -1.2364680  
C     2.6580170   -1.3933820   -0.5624390  
C     1.2431660   -1.3699330   -0.4823770  
N     0.7817030   -2.5205740   -1.0855780  
C     0.4981010   -0.3217560    0.1104070  
C     1.2661370    0.7262280    0.6329270  
O     0.6527790    1.7912090    1.2315870  
C     2.6786030    0.7182630    0.5780020  
O     3.2524400    1.8385390    1.1513350  
C     3.4088200   -0.3217110   -0.0073230  
H     4.0177210   -2.9633920   -1.4409650  
H    -0.1916900   -2.7127320   -1.2677780  
H     1.3613870    2.4045300    1.4987950  
H     4.1958870    1.8718300    0.9058000  
H     1.6921480   -4.1967230   -2.0598770  
C    -1.7503820   -1.4551040    0.4365580  
C    -0.9627540   -0.3691020    0.1813100  
C    -1.9388360    0.7113020   -0.0976970  
C    -3.2699320    0.0581920    0.0539510  
N    -3.1446420   -1.2017610    0.3700090  
C    -4.5158620    0.7774620   -0.1544900  
C    -4.4005010    2.0883830   -0.5173930  
O    -5.4505240    2.8996280   -0.7077930  
C    -3.0746430    2.7601010   -0.7004800  
O    -3.0738100    3.9482850   -1.0239620  
C    -1.8309240    1.9962490   -0.4784290  
H    -5.0666960    3.7619370   -0.9817370  
H    -0.8912920    2.5210320   -0.6009820  
H    -1.4226800   -2.4507200    0.7132400  
C    -6.5923450   -1.4400820    3.1087600  
C    -5.6961620   -0.7396040    2.3697790  
C    -6.2755140   -0.5421650    1.0578050  
C    -7.6095310   -1.1932280    1.0980300  
N    -7.7355680   -1.7244250    2.3651860  
C    -8.4996450   -1.2137470    0.0723510  
C    -8.1260320   -0.5578220   -1.1700330  
O    -8.8592300   -0.4972930   -2.1458390  
C    -6.7009540    0.1020380   -1.2622670  
O    -6.3473220    0.5606940   -2.3336960  
C    -5.8278950    0.1088490   -0.0591220  
H    -4.7198750   -0.4115590    2.6891190  
H    -9.4775660   -1.6807850    0.1381330  
H    -6.5199640   -1.7817410    4.1328350  
H    -8.5515860   -2.2059380    2.7076910  
