62


C     1.5669400   -0.3129900    0.0976340  
C     0.9619740    0.9227610   -0.0382550  
C     2.0149710    1.8586510   -0.3807020  
C     3.2203610    1.1185280   -0.4310940  
N     2.9191590   -0.2117770   -0.1222930  
C     4.4481310    1.6919800   -0.7843030  
C     4.4594520    3.0472440   -1.0824720  
O     5.6281300    3.6540300   -1.4296130  
C     3.2597850    3.8045890   -1.0448590  
O     3.4280500    5.1315730   -1.3792150  
C     2.0472040    3.2283510   -0.7074660  
H     5.3633060    1.1165770   -0.8624530  
H     5.4211700    4.5786680   -1.6513720  
H     2.5641800    5.5581780   -1.4820920  
H     1.1369080    3.8222270   -0.7339610  
H     1.1321820   -1.2636150    0.3664790  
C    -0.4421370    1.1820620    0.1542580  
C    -1.5290600    0.3519870    0.0120180  
C    -2.7117680    1.0850850    0.3628880  
C    -2.2518010    2.4444380    0.7344750  
N    -0.8793580    2.4597520    0.5395220  
C    -3.0557920    3.4498630    1.1586880  
C    -4.4909090    3.2019010    1.2271490  
O    -5.2970370    4.0517880    1.5733980  
C    -5.0144730    1.7743410    0.8368690  
O    -6.1997650    1.5306700    0.9939840  
C    -4.0477450    0.7592290    0.3664120  
H    -1.4970110   -0.6577130   -0.3688950  
H    -2.6904260    4.4390580    1.4180410  
H    -0.2703990    3.1219990    0.9979360  
C    -3.3651900   -3.4045190    1.8213380  
C    -3.3221470   -2.0604320    1.6402600  
C    -4.2156870   -1.7410440    0.5426610  
C    -4.7962410   -3.0314120    0.1004940  
N    -4.2192340   -4.0019490    0.8976790  
C    -5.7287650   -3.1757190   -0.8774820  
C    -6.1937970   -1.9798300   -1.5613740  
O    -7.0520850   -1.9921620   -2.4314390  
C    -5.5411850   -0.6045400   -1.1695470  
O    -5.8000290    0.3734910   -1.8458040  
C    -4.5747140   -0.5540000   -0.0359870  
H    -2.7354210   -1.3550850    2.2083670  
H    -6.1568310   -4.1330810   -1.1585950  
H    -2.8456910   -4.0173030    2.5462610  
H    -4.4895680   -4.9728090    0.8997360  
C     6.5119750   -0.6504040    2.3525420  
C     6.8630170   -1.9001250    1.9156820  
C     5.8840810   -2.2998300    0.9440690  
C     4.9546540   -1.2320680    0.8376860  
N     5.3521160   -0.2466650    1.7143100  
C     3.8465530   -1.2858070   -0.0292210  
C     3.6763890   -2.4417380   -0.7900660  
O     2.6171260   -2.5477810   -1.6407960  
C     4.5952530   -3.5162100   -0.6754310  
O     4.2807340   -4.5901450   -1.4859530  
C     5.6865360   -3.4603260    0.1706130  
H     7.7165320   -2.4741260    2.2485500  
H     4.9265900    0.6643820    1.7911890  
H     2.7109510   -3.3979680   -2.1060680  
H     5.0068460   -5.2310950   -1.4743930  
H     6.3720140   -4.3020370    0.2408220  
H     6.9897060   -0.0036070    3.0745700  
