60


C    -6.0228460   -1.6701550    3.4901680  
C    -6.8658810   -2.4257790    2.7189230  
C    -6.3437130   -2.4093500    1.3811040  
C    -5.1629050   -1.6234840    1.4071130  
N    -4.9819210   -1.1998730    2.7085620  
C    -4.3792760   -1.3575540    0.2637220  
C    -4.8337480   -1.9167240   -0.9319880  
O    -4.1253620   -1.7223600   -2.0850660  
C    -6.0115510   -2.7061450   -0.9747830  
O    -6.3053410   -3.1886960   -2.2377750  
C    -6.7628140   -2.9635780    0.1558600  
H    -7.7550660   -2.9366730    3.0619300  
H    -4.2985530   -0.5153310    2.9934690  
H    -4.6213410   -2.1601790   -2.7990090  
H    -7.1543730   -3.6541220   -2.2168120  
H    -7.6608870   -3.5749110    0.0943230  
H    -6.0671580   -1.4305410    4.5432440  
C    -2.0917060   -0.7513370    1.1706300  
C    -3.1512700   -0.5452700    0.3359170  
C    -2.8326010    0.6565710   -0.4354480  
C    -1.5003100    1.1114060    0.0212610  
N    -1.0995280    0.2055190    0.9827970  
C    -0.8485920    2.2274120   -0.4238320  
C    -1.5276990    3.0139120   -1.4744790  
O    -1.0028430    3.9632710   -2.0296800  
C    -2.9619750    2.5683550   -1.9390340  
O    -3.5464320    3.2490530   -2.7667740  
C    -3.5350350    1.3478890   -1.3689420  
H    -4.5147720    1.0355470   -1.7120600  
H    -1.9440960   -1.5472640    1.8893420  
H    -0.2585560    0.2967020    1.5311040  
C     3.1838690    0.3040340   -0.4271590  
C     1.8530790    0.5934030   -0.5850810  
C     1.6041970    1.8945390   -0.0190200  
C     2.9080720    2.3688900    0.4975710  
N     3.8134820    1.3374630    0.2826480  
C     3.1300180    3.5919420    1.0379420  
C     1.9988710    4.5068280    1.1545210  
O     2.1010540    5.6386990    1.5997620  
C     0.5818600    3.9940390    0.7107220  
O    -0.3893770    4.6882900    0.9520060  
C     0.4688950    2.6608950    0.0685230  
H     1.1151000   -0.0576720   -1.0301250  
H     4.1036810    3.9286240    1.3805040  
H     4.8109630    1.4927590    0.2438570  
C     3.6404330   -1.5964590   -1.9906560  
C     3.9351710   -0.8463520   -0.8809630  
C     5.1321470   -1.4395880   -0.2852050  
C     5.4966370   -2.5867890   -1.1527260  
N     4.5397100   -2.6255030   -2.1559390  
C     6.5582220   -3.4034550   -0.9503680  
C     7.4146000   -3.1529700    0.2099140  
O     8.3965990   -3.8286160    0.4676850  
C     7.0333000   -1.9633500    1.1617550  
O     7.7199700   -1.7456610    2.1455730  
C     5.8545070   -1.1520550    0.8290350  
H     6.8027520   -4.2393980   -1.5984030  
H     5.5953770   -0.3513700    1.5139050  
H     2.8401060   -1.4511180   -2.7042260  
H     4.5467450   -3.2684480   -2.9333410  
