62


C    -6.0896770    1.3616200   -0.4325900  
C    -6.2269050    2.7114900   -0.4010150  
C    -4.9072010    3.2831010   -0.2933150  
C    -3.9808810    2.2145950   -0.2567280  
N    -4.7304550    1.0141210   -0.3413500  
C    -2.6019700    2.4302550   -0.1816580  
C    -2.1616140    3.7487350   -0.1267610  
O    -0.8260250    4.0038180   -0.0507330  
C    -3.0793070    4.8265110   -0.1516780  
O    -2.4911650    6.0715740   -0.0881900  
C    -4.4445740    4.6059550   -0.2363840  
H    -7.1630270    3.2518350   -0.4441390  
H    -1.8877570    1.6194100   -0.1703640  
H    -0.7121260    4.9697670   -0.0476670  
H    -3.1701090    6.7586060   -0.1618050  
H    -5.1400270    5.4421980   -0.2629030  
H    -6.8377280    0.5871340   -0.4894690  
C    -4.2870080   -0.2819950   -0.3603720  
C    -5.0255950   -1.4257720   -0.5932430  
C    -4.0989580   -2.4979480   -0.4772700  
C    -2.7764100   -1.8299240   -0.1745870  
N    -2.9165130   -0.5296230   -0.0966490  
C    -1.5488380   -2.5666320    0.0091640  
C    -1.6929570   -3.9289330   -0.0334180  
O    -0.7065120   -4.7863080    0.1920630  
C    -3.0114850   -4.6356930   -0.3391550  
O    -2.9600830   -5.8708210   -0.3534910  
C    -4.2013150   -3.8543220   -0.5698470  
H    -6.0743450   -1.5104460   -0.8334500  
H    -1.1234690   -5.6763860    0.0734570  
H    -5.1263800   -4.3787510   -0.7842600  
C    -0.2108030    0.5500650    2.8936930  
C     1.1206910    0.5351120    2.5755160  
C     1.2877340   -0.4113880    1.5068780  
C     0.0043990   -0.9480850    1.2300420  
N    -0.8857250   -0.3737710    2.1163130  
C    -0.2353710   -1.9153770    0.2298010  
C     0.8755430   -2.2705540   -0.5416190  
O     0.7336430   -3.1417670   -1.5789480  
C     2.1672740   -1.7506000   -0.2735410  
O     3.1399640   -2.2786800   -1.1027110  
C     2.4092090   -0.8361000    0.7487610  
H     1.8903810    1.1387780    3.0351010  
H    -1.8762750   -0.3312300    1.9148590  
H     1.6184470   -3.2679810   -1.9646940  
H     3.9861810   -1.8277080   -0.9589600  
H    -0.7450300    1.1439690    3.6219530  
C     4.3745220   -0.3306420    2.2660480  
C     3.7670230   -0.3424030    1.0426490  
C     4.7262760    0.2511090    0.1126230  
C     5.9372590    0.5853520    0.9062180  
N     5.6508950    0.2150960    2.2041810  
C     7.0606500    1.1496840    0.3955910  
C     7.0961080    1.4633280   -1.0301860  
O     8.0669230    1.9612720   -1.5789920  
C     5.8162280    1.1469960   -1.8870660  
O     5.8172830    1.4237230   -3.0756760  
C     4.6647820    0.5282340   -1.2198450  
H     7.9345250    1.3868420    0.9948460  
H     3.7799340    0.3374380   -1.8195050  
H     3.9827250   -0.6874670    3.2092280  
H     6.2834800    0.3060880    2.9834930  
