62


C    -2.3369060    0.3956930    3.0683030  
C    -1.1930440    0.2495610    2.3216560  
C    -1.5960590    0.0435130    0.9534490  
C    -3.0139070    0.0930400    0.9414470  
N    -3.4337110    0.2972630    2.2409870  
C    -3.8020580   -0.0267170   -0.2204360  
C    -3.0885460   -0.1720730   -1.4094680  
O    -3.7430010   -0.2458480   -2.5942900  
C    -1.6666030   -0.2275010   -1.4325400  
O    -1.1488360   -0.3952050   -2.6944060  
C    -0.8909030   -0.1634450   -0.2712860  
H    -0.1840390    0.3285760    2.7005640  
H    -4.4003630    0.3673090    2.5210000  
H    -3.0432270   -0.3088690   -3.2736050  
H    -0.3627710    0.1975900   -2.7656000  
H    -2.4584180    0.5767640    4.1269580  
C     1.6641380   -2.7056230    2.2008630  
C     2.8939830   -2.3594690    1.7383340  
C     2.7001760   -1.3924760    0.6783220  
C     1.2369570   -1.1928580    0.5726300  
N     0.6711130   -2.0405750    1.4959170  
C     0.5803110   -0.3355980   -0.2867490  
C     1.4496630    0.3481700   -1.2314380  
O     1.0452050    1.0249980   -2.1794040  
C     3.0149590    0.2345780   -1.0912560  
O     3.6920780    0.9222000   -1.8354720  
C     3.5930730   -0.7144710   -0.1179520  
H     3.8401700   -2.7240290    2.1071220  
H     1.3943230   -3.3925900    2.9918220  
H    -0.3092750   -2.0147440    1.7405400  
C     5.6381590   -2.1680830   -0.0296220  
C     5.0386010   -0.9389390   -0.0793100  
C     6.1293540    0.0446620   -0.0589740  
C     7.3907920   -0.7341610    0.0125960  
N     7.0171700   -2.0649710    0.0306220  
C     8.6369510   -0.1985360    0.0544130  
C     8.7661780    1.2542730    0.0514610  
O     9.8423500    1.8311340    0.0895010  
C     7.4455160    2.1039910    0.0097900  
O     7.5240660    3.3212120    0.0386140  
C     6.1566000    1.4007670   -0.0575940  
H     9.5417100   -0.7969730    0.1008410  
H     5.2622560    2.0079030   -0.1272370  
H     5.1704140   -3.1432360   -0.0556330  
H     7.6589100   -2.8417650   -0.0056030  
C    -6.4359710    3.2813720    1.0375470  
C    -7.6396470    2.6534370    0.8511200  
C    -7.3568260    1.3296520    0.3700820  
C    -5.9454280    1.2111640    0.2902840  
N    -5.4083850    2.4101030    0.7201790  
C    -5.2823960    0.0529340   -0.1689640  
C    -6.1013210   -1.0098380   -0.5517480  
O    -5.5444390   -2.1774120   -0.9792400  
C    -7.5157670   -0.9087280   -0.4756720  
O    -8.1747050   -2.0569280   -0.8812270  
C    -8.1488470    0.2319960   -0.0206150  
H    -8.6153250    3.0825230    1.0342580  
H    -4.4318810    2.6537450    0.6522010  
H    -6.2760500   -2.7567060   -1.2543760  
H    -9.1264400   -1.8828200   -0.9224700  
H    -9.2351200    0.2774180    0.0284660  
H    -6.2170100    4.2822390    1.3822030  
