62


C     4.9654780    0.3352070    0.1163780  
C     5.2691670   -0.9405200   -0.3650270  
C     6.6796030   -1.0548760   -0.4176760  
C     7.2201290    0.1835060    0.0436010  
N     6.1667590    0.9995860    0.3579320  
C     8.5977230    0.4205780    0.1226500  
C     9.4429780   -0.6054030   -0.2689480  
O    10.7901930   -0.4325130   -0.2140940  
C     8.9212390   -1.8517610   -0.7332130  
O     9.9018250   -2.7591020   -1.0810420  
C     7.5667330   -2.0851010   -0.8108570  
H     4.5336280   -1.6799880   -0.6372090  
H     6.2142600    1.9454410    0.7081120  
H     9.0166890    1.3584570    0.4714800  
H    11.2026140   -1.2564550   -0.5279850  
H     9.4907770   -3.5795830   -1.3913200  
H     7.1875440   -3.0405650   -1.1670030  
C     0.9158070   -1.2245750   -0.3850690  
C     0.1286430   -0.1685580   -0.0056130  
C     1.1001870    0.8895230    0.3366840  
C     2.4288790    0.2576990    0.1101530  
N     2.2951080   -0.9702060   -0.3206270  
C     3.6899010    0.9663870    0.3587500  
C     3.5477820    2.2507360    0.8361210  
O     4.6029690    3.0592110    1.1272570  
C     2.2506950    2.8900870    1.0834070  
O     2.2387660    4.0501250    1.5209910  
C     1.0037460    2.1449980    0.8092720  
H     4.1882080    3.8949690    1.4434790  
H     0.0689870    2.6622760    0.9864780  
H     0.5786810   -2.1836960   -0.7584060  
C    -2.9364130   -3.2327310    0.9788030  
C    -1.7501590   -2.5856820    0.8825150  
C    -2.0793510   -1.2518070    0.3919390  
C    -3.5620180   -1.2634760    0.2828480  
N    -4.0507190   -2.4276080    0.6059210  
C    -4.3314480   -0.0995640   -0.1683410  
C    -3.5682300    0.9785080   -0.5106280  
O    -4.1048600    2.1520380   -0.9651240  
C    -2.0941560    1.0314130   -0.4116550  
O    -1.5467390    2.0961370   -0.7216050  
C    -1.3238250   -0.1715090    0.0380630  
H    -0.7668990   -2.9593040    1.1284030  
H    -3.3281280    2.7416710   -1.1036150  
H    -3.1209840   -4.2487920    1.3057090  
C    -7.6333090   -1.3126360    2.6684180  
C    -6.4120000   -1.0364830    2.1135600  
C    -6.6415250   -0.5934430    0.7679420  
C    -8.0485900   -0.6120120    0.5701240  
N    -8.6250840   -1.0652980    1.7376530  
C    -8.6651000   -0.2032890   -0.6168290  
C    -7.8399060    0.2671970   -1.6246480  
O    -8.3715440    0.6960630   -2.8031970  
C    -6.4324560    0.3237700   -1.4552860  
O    -5.7587840    0.7917950   -2.5655280  
C    -5.8011390   -0.1280900   -0.2860190  
H    -5.4579510   -1.1601360    2.6017880  
H    -9.6154570   -1.1585450    1.8973960  
H    -9.7405300   -0.2259720   -0.7619060  
H    -7.6098000    0.9896470   -3.3385650  
H    -5.1293080    1.4828640   -2.2677500  
H    -7.8837870   -1.6761900    3.6549970  
