62


C    -3.3202640    4.3837050   -1.8274640  
C    -2.5913290    3.2432930   -1.5913610  
C    -1.5442840    3.5914260   -0.6777800  
C    -1.6842760    4.9762420   -0.4040790  
N    -2.7773600    5.4286740   -1.1130030  
C    -0.8128150    5.6834400    0.4308110  
C     0.2351180    4.9829930    1.0067620  
O     1.1021270    5.6255030    1.8374490  
C     0.4140400    3.6000080    0.7536180  
O     1.4795530    3.0633990    1.4291810  
C    -0.4618340    2.8758270   -0.0796470  
H    -2.7771420    2.2796260   -2.0406140  
H    -3.1240480    6.3752520   -1.1063050  
H    -0.9303680    6.7409090    0.6447740  
H     1.7257810    4.9578260    2.1737460  
H     1.4842520    2.0907430    1.3259590  
H    -4.1889700    4.5352130   -2.4521310  
C    -0.2937460    1.4512640   -0.2725050  
C    -1.2250600    0.4682960   -0.5070230  
C    -0.5470910   -0.7870610   -0.5970530  
C     0.8896870   -0.5004170   -0.4087010  
N     0.9964130    0.8691050   -0.1480030  
C     1.9188130   -1.4053040   -0.4745440  
C     1.4989320   -2.7948090   -0.7293870  
O     2.2735850   -3.7415840   -0.7635850  
C    -0.0205230   -3.1359900   -0.9480080  
O    -0.3109880   -4.2906850   -1.2279130  
C    -1.0032930   -2.0682710   -0.8023660  
H    -2.2931620    0.6126280   -0.5340310  
H     1.7768690    1.3300580   -0.6279150  
C    -2.9100610   -3.2051030   -1.9281230  
C    -4.2367330   -3.4142450   -1.7485220  
C    -4.6220680   -2.7427090   -0.5289750  
C    -3.3869500   -2.1096030    0.0005970  
N    -2.3712760   -2.3963210   -0.9144610  
C    -3.3288040   -1.4332980    1.1763300  
C    -4.5557460   -1.2824860    1.9575770  
O    -4.5893210   -0.6935770    3.0274810  
C    -5.8818360   -1.9034030    1.3884150  
O    -6.9205300   -1.7583070    2.0149660  
C    -5.8083630   -2.6406200    0.1269310  
H    -4.8860180   -3.9866250   -2.3950580  
H    -2.4188310   -1.0007690    1.5748700  
H    -6.7199040   -3.1014900   -0.2416130  
H    -2.2583100   -3.5599140   -2.7118930  
C     5.1274710   -3.3058220    1.9852720  
C     6.1032490   -2.3723030    1.7658150  
C     5.5533830   -1.4028840    0.8621070  
C     4.2181840   -1.8048600    0.5756140  
N     3.9778870   -2.9516610    1.3043890  
C     3.3458140   -1.0583850   -0.2612830  
C     3.9274950    0.0748920   -0.8472290  
O     3.2014470    0.8618410   -1.7214180  
C     5.2550070    0.4783690   -0.5767430  
O     5.6268220    1.6381280   -1.2381770  
C     6.0701890   -0.2332140    0.2790420  
H     7.0947410   -2.3655300    2.1969330  
H     3.2562740   -3.6081300    1.0391090  
H     3.8241000    1.5255330   -2.0736060  
H     6.5892400    1.7393010   -1.1994190  
H     7.0832560    0.1021110    0.4899780  
H     5.1472110   -4.2068730    2.5822870  
