60


C     4.1451840   -0.8397000   -1.9454590  
C     4.8585170   -1.9573090   -2.2429690  
C     5.9588330   -2.0312370   -1.3155460  
C     5.8833630   -0.8967370   -0.4744670  
N     4.7523540   -0.1524660   -0.8776810  
C     6.7624820   -0.7098580    0.5956370  
C     7.7590860   -1.6574750    0.7859930  
O     8.6439450   -1.5013710    1.8091730  
C     7.8648740   -2.7827900   -0.0693800  
O     8.9032370   -3.6301590    0.2451050  
C     6.9737560   -2.9797820   -1.1108860  
H     4.6449890   -2.6459490   -3.0492070  
H     6.7209860    0.1422700    1.2602640  
H     9.2636260   -2.2506210    1.7787550  
H     8.9298120   -4.3672170   -0.3831670  
H     7.0496660   -3.8601800   -1.7452080  
H     3.2869290   -0.4031170   -2.4326310  
C     0.6328470    1.1532480    0.0976660  
C     1.6898560    0.3640820   -0.2836930  
C     2.8661780    1.1935640   -0.1380490  
C     2.3403840    2.4819340    0.3635260  
N     1.0421040    2.4621180    0.4954350  
C     3.2015320    3.5909680    0.6925010  
C     4.5326310    3.4284830    0.5247590  
O     5.4461260    4.3768690    0.7957560  
C     5.1173730    2.1532490   -0.0056360  
O     6.3264470    2.1229020   -0.2070020  
C     4.2090300    0.9938100   -0.3147730  
H     1.6508300   -0.6536990   -0.6421830  
H     2.7745560    4.5171170    1.0600370  
H     6.3129970    4.0013370    0.5321200  
C    -1.5917090   -2.5340980    1.2277320  
C    -0.5903530   -1.6480410    1.0108570  
C    -1.2409360   -0.4462880    0.5130030  
C    -2.6920000   -0.7923580    0.5114240  
N    -2.8821930   -2.0126340    0.9245670  
C    -3.7267450    0.1658230    0.1105450  
C    -3.2562800    1.4019220   -0.2490550  
O    -4.0423710    2.4209380   -0.6524310  
C    -1.8039740    1.7680980   -0.2865880  
O    -1.5379960    2.8855570   -0.7243370  
C    -0.7722410    0.7791200    0.1388980  
H     0.4659390   -1.7802200    1.1914930  
H    -3.4132970    3.1472960   -0.8810430  
H    -1.5207950   -3.5473600    1.6036450  
C    -5.1346610   -0.1920590    0.1045890  
C    -5.7302090   -1.3882160    0.4343010  
C    -7.1489450   -1.2372840    0.2618730  
C    -7.3675560    0.1557400   -0.2024620  
N    -6.1222010    0.7304740   -0.2768540  
C    -8.5869840    0.6876940   -0.4801130  
C    -9.7660060   -0.1536300   -0.3161730  
O   -10.9031600    0.2353120   -0.5411630  
C    -9.5581180   -1.6345400    0.1751380  
O   -10.5356610   -2.3542300    0.3181270  
C    -8.1939600   -2.0931260    0.4430740  
H    -5.2025950   -2.2678680    0.7640660  
H    -8.7284050    1.7094640   -0.8187510  
H    -8.0614370   -3.1162330    0.7818350  
H    -5.9202870    1.6767450   -0.5617160  
