62


C     0.7632880    4.5486700    0.7519770  
C     1.7513910    5.4820220    0.7998650  
C     2.9695960    4.8492800    0.3639190  
C     2.6599170    3.5028600    0.0564040  
N     1.2894680    3.3235250    0.3134150  
C     3.6124030    2.6184990   -0.4654190  
C     4.9079410    3.0927540   -0.6293870  
O     5.8664740    2.2635930   -1.1262530  
C     5.2394510    4.4303040   -0.2955210  
O     6.5628970    4.7477760   -0.5116280  
C     4.2857640    5.3095390    0.1869200  
H     1.6347830    6.5080390    1.1208110  
H     3.3871350    1.6073670   -0.7829150  
H     6.6891080    2.7779130   -1.2001850  
H     6.7110720    5.6867880   -0.3248420  
H     4.5503670    6.3395310    0.4161550  
H    -0.2779260    4.6088370    1.0302150  
C     0.5391020    2.1714460    0.1943320  
C    -0.8052850    2.0388690   -0.0636650  
C    -1.1189850    0.6417670   -0.0363650  
C     0.1411480   -0.0540040    0.2792620  
N     1.1172600    0.9273190    0.3744240  
C     0.3178630   -1.4013130    0.4594610  
C    -0.8913100   -2.2131460    0.2516360  
O    -0.9039390   -3.4306270    0.3354940  
C    -2.2580720   -1.5033200   -0.0952270  
O    -3.2241470   -2.2385990   -0.2429920  
C    -2.3125920   -0.0412670   -0.2417830  
H    -1.4825030    2.8484570   -0.2797660  
H     2.0583260    0.7528250    0.6915730  
C     2.4497130   -1.4869150    1.8177810  
C     1.5948250   -2.0003950    0.8537460  
C     2.2432650   -3.1894740    0.3364640  
C     3.4791590   -3.3213490    1.0161700  
N     3.5733140   -2.2730460    1.9126300  
C     4.3899280   -4.3529190    0.7544050  
C     4.0398500   -5.2773210   -0.2156840  
O     4.8782740   -6.3110790   -0.5085550  
C     2.8042050   -5.1621620   -0.9091450  
O     2.5958900   -6.1606440   -1.8408560  
C     1.9145010   -4.1387590   -0.6516950  
H     4.3203090   -2.1407620    2.5765750  
H     5.3347730   -4.4524610    1.2786590  
H     4.4359660   -6.8545980   -1.1839310  
H     1.6861470   -6.1082680   -2.1703670  
H     0.9640370   -4.0911840   -1.1727140  
H     2.2988900   -0.6637410    2.5031850  
C    -3.6657150    1.7459680   -1.4178210  
C    -3.5424180    0.6255050   -0.6354100  
C    -4.9492970    0.3167440   -0.2534040  
C    -5.7460300    1.3901680   -0.9048420  
N    -4.9864930    2.2056510   -1.5909550  
C    -7.1754770    1.4717200   -0.7716240  
C    -7.7957670    0.5428130   -0.0048710  
O    -9.1217780    0.5018880    0.2173340  
C    -7.0225020   -0.5419100    0.6803620  
O    -7.6497640   -1.3460740    1.3705760  
C    -5.5541990   -0.6158420    0.5071180  
H    -7.7188150    2.2668890   -1.2702350  
H    -9.2576120   -0.2749860    0.8035990  
H    -5.0435090   -1.4443030    0.9812800  
H    -2.8706090    2.2666340   -1.9364070  
