62


C    -2.0612350   -0.3085420    0.4748190  
C    -3.3653410   -0.2773250    0.0458410  
C    -3.6353780    1.1020910   -0.3176060  
C    -2.4558090    1.8492980   -0.0827190  
N    -1.4900330    0.9656940    0.4105460  
C    -2.3665670    3.2173500   -0.3583130  
C    -3.4992730    3.8479220   -0.8506830  
O    -3.4622610    5.1794350   -1.1287190  
C    -4.7016540    3.1216750   -1.0611200  
O    -5.7414440    3.8904180   -1.5368640  
C    -4.7828010    1.7660970   -0.8009200  
H    -1.4752000    3.8015150   -0.1688720  
H    -4.3535030    5.4436500   -1.4159630  
H    -6.5510350    3.3594780   -1.5762600  
H    -5.7142410    1.2280650   -0.9578940  
H    -1.4967550   -1.1337700    0.8847120  
C     2.0558730   -1.0662420   -0.9531190  
C     3.0114580   -0.3719860   -0.2543370  
C     2.3045900    0.6498650    0.5168760  
C     0.8742420    0.4799790    0.1933140  
N     0.7953930   -0.5858070   -0.6883240  
C    -0.1419490    1.2430000    0.6955160  
C     0.2239560    2.3042560    1.6598510  
O    -0.5998100    3.0040640    2.2176340  
C     1.7496880    2.5095800    1.9910300  
O     2.0564070    3.4259030    2.7354260  
C     2.7275180    1.6067530    1.3889000  
H     3.7654200    1.7304350    1.6774650  
H     2.1941840   -1.8771350   -1.6556930  
H    -0.0618830   -0.9040650   -1.1171720  
C     4.4346830   -0.6308360   -0.3061360  
C     5.0979700   -1.8059220   -0.5460940  
C     6.5114880   -1.5335080   -0.5441150  
C     6.6467650   -0.0797630   -0.2811690  
N     5.3594750    0.4033170   -0.0914900  
C     7.8254050    0.5873610   -0.2488780  
C     9.0581710   -0.1728620   -0.4568000  
O    10.1642900    0.3437920   -0.4432900  
C     8.9420870   -1.7227980   -0.6977820  
O     9.9647260   -2.3712440   -0.8638320  
C     7.6083920   -2.3206270   -0.7252400  
H     4.6395270   -2.7788300   -0.6531350  
H     7.9058610    1.6542860   -0.0640070  
H     7.5390350   -3.3884120   -0.9096120  
H     5.1209740    1.3795250   -0.1910200  
C    -4.4595410   -3.4404440    3.0491880  
C    -3.9208960   -2.3442230    2.4270470  
C    -4.4493240   -2.3116800    1.0913150  
C    -5.3196510   -3.4266810    0.9654500  
N    -5.2997630   -4.0989760    2.1706250  
C    -6.0380660   -3.7039940   -0.2036830  
C    -5.8714960   -2.8346500   -1.2693240  
O    -6.5371530   -3.0599680   -2.4409470  
C    -5.0050860   -1.7162290   -1.1693440  
O    -4.9280920   -0.9766440   -2.3366890  
C    -4.2849820   -1.4288480   -0.0094700  
H    -3.2433770   -1.6315310    2.8748860  
H    -5.8360440   -4.9250290    2.3842450  
H    -6.7038590   -4.5552990   -0.3021450  
H    -6.2694040   -2.3579410   -3.0588740  
H    -4.3101250   -0.2380740   -2.2103500  
H    -4.3178170   -3.8109160    4.0546550  
