62


C    -4.0452120    1.0991280   -1.8844680  
C    -5.3690050    1.4319200   -1.9005860  
C    -6.0258270    0.6135090   -0.9180460  
C    -5.0359790   -0.2167440   -0.3350570  
N    -3.8151090    0.0946850   -0.9397560  
C    -5.3253870   -1.1166400    0.6967450  
C    -6.6396870   -1.1934830    1.1309430  
O    -6.9743760   -2.0614800    2.1308260  
C    -7.6451000   -0.3784880    0.5492770  
O    -8.9041260   -0.5670910    1.0894910  
C    -7.3538420    0.5190230   -0.4616930  
H    -5.8310250    2.1622650   -2.5512420  
H    -4.5800550   -1.7645830    1.1407450  
H    -7.9360620   -1.9945140    2.2588930  
H    -9.5518900   -0.0592600    0.5791730  
H    -8.1368760    1.1438920   -0.8872140  
H    -3.2249150    1.4526710   -2.4921170  
C    -0.0182750    2.0431100    0.0690040  
C    -1.3356180    1.7610200   -0.1916540  
C    -1.4581640    0.3428400   -0.3851840  
C    -0.1071470   -0.2085590   -0.2456220  
N     0.7394560    0.8690540   -0.0311310  
C     0.2350260   -1.5429930   -0.2788560  
C    -0.9112930   -2.4645890   -0.3874010  
O    -0.8275910   -3.6750830   -0.2197640  
C    -2.3439700   -1.8995010   -0.7301040  
O    -3.2080510   -2.7053490   -1.0342480  
C    -2.5520000   -0.4534200   -0.6525620  
H    -2.1369380    2.4805510   -0.2703080  
H     1.6214000    0.7436730    0.4502800  
C    -0.0128400    4.3487300    1.0465910  
C     0.6063270    3.3017200    0.4138910  
C     1.9897450    3.7177120    0.1845600  
C     2.1081200    5.0852230    0.7482370  
N     0.8516270    5.4054810    1.2369770  
C     3.2424000    5.8265460    0.7478830  
C     4.4464070    5.2520780    0.1473590  
O     5.5153330    5.8387950    0.1104910  
C     4.3407700    3.8165320   -0.4814400  
O     5.3288930    3.3179460   -0.9943270  
C     3.0484120    3.1219550   -0.4235040  
H     3.3031150    6.8278580    1.1628790  
H     2.9883310    2.1463690   -0.8937840  
H    -1.0333730    4.4088750    1.4008800  
H     0.6250950    6.2570590    1.7278370  
C     1.5897180   -2.0404980   -0.1640740  
C     2.8179320   -1.3955570   -0.3328350  
C     3.8434550   -2.3579000   -0.1225000  
C     3.1975610   -3.5920950    0.1784900  
N     1.8446100   -3.3669380    0.1498840  
C     3.9096550   -4.7692800    0.4411000  
C     5.2927370   -4.7010420    0.3957460  
O     6.0368750   -5.8146920    0.6410930  
C     5.9554170   -3.4748860    0.0934930  
O     7.3321090   -3.5793770    0.0894020  
C     5.2550250   -2.3152070   -0.1631190  
H     2.9672170   -0.3805830   -0.6718790  
H     1.0936390   -4.0404720    0.2389110  
H     3.4241220   -5.7119900    0.6697580  
H     6.9727220   -5.5630760    0.5531640  
H     7.7221030   -2.7247070   -0.1472070  
H     5.7805970   -1.3903360   -0.3919650  
