62


C    -3.6303720    0.6683130   -0.6677380  
C    -2.2635070    0.7282640   -0.4762020  
C    -1.8736040    2.1037200   -0.5696930  
C    -3.0518080    2.8598120   -0.8150880  
N    -4.0953980    1.9604710   -0.8948180  
C    -3.0559540    4.2528660   -0.9223600  
C    -1.8387830    4.9094540   -0.7941400  
O    -1.7842990    6.2664120   -0.8857800  
C    -0.6364900    4.1861000   -0.5890340  
O     0.5063800    4.9599940   -0.5744330  
C    -0.6468410    2.7951390   -0.4826950  
H    -1.6157780   -0.1253680   -0.3384600  
H    -5.0727250    2.2097980   -0.8721590  
H    -3.9601630    4.8280700   -1.0919960  
H    -0.8510650    6.5172110   -0.7590430  
H     1.1424300    4.6162630    0.0784730  
C     1.0621510    1.1199010   -1.2031990  
C     2.2834250    0.6375930   -0.8283280  
C     2.6346410    1.3444440    0.4029350  
C     1.4980320    2.2511150    0.7016190  
N     0.5755740    2.0813420   -0.3137880  
C     1.4352840    3.0744250    1.7873980  
C     2.5589420    3.0858910    2.7205760  
O     2.5774220    3.7633890    3.7362960  
C     3.7969180    2.1787470    2.3894310  
O     4.7694790    2.2052430    3.1250220  
C     3.7334590    1.3187100    1.1992490  
H     0.5581510    3.6672530    2.0304910  
H     4.5927340    0.6880250    0.9955960  
H     0.4592050    0.8488150   -2.0590960  
C     3.2770570   -0.4162940   -2.9066240  
C     3.0754940   -0.3401680   -1.5610700  
C     3.7717790   -1.5301750   -1.0276610  
C     4.3439890   -2.1915050   -2.2389600  
N     4.0453390   -1.5368590   -3.3263900  
C     5.1094530   -3.4067250   -2.1448840  
C     5.2739760   -3.9607360   -0.9195660  
O     5.9569550   -5.0933480   -0.6885450  
C     4.6797130   -3.3382170    0.3130020  
O     4.8589200   -3.9053640    1.3884800  
C     3.9100050   -2.0796110    0.1933880  
H     5.5231240   -3.8556740   -3.0410530  
H     5.8988420   -5.2436000    0.2803140  
H     3.5020760   -1.6637340    1.1092770  
H     2.9299180    0.2841750   -3.6574580  
C    -5.6820840   -0.5855870   -1.4476150  
C    -4.5360520   -0.4657000   -0.6851280  
C    -4.4268180   -1.6870240    0.0822790  
C    -5.5328930   -2.5001390   -0.2672360  
N    -6.2807290   -1.7997800   -1.1952250  
C    -5.7537440   -3.7628400    0.2966450  
C    -4.8402840   -4.2098790    1.2379610  
O    -5.0051770   -5.4326020    1.8180050  
C    -3.7339210   -3.4005570    1.6135930  
O    -2.9242720   -3.9785710    2.5716870  
C    -3.5199770   -2.1552550    1.0532530  
H    -7.1121020   -2.1420870   -1.6509040  
H    -6.6002760   -4.3877520    0.0312690  
H    -4.2793500   -5.5504990    2.4550280  
H    -2.2265000   -3.3569950    2.8265860  
H    -2.6775240   -1.5447320    1.3689530  
H    -6.0948900    0.0889050   -2.1847760  
