60


C     5.4795410    0.5084670   -2.6205090  
C     6.7657300    0.0494070   -2.5796660  
C     6.8860960   -0.7786640   -1.4113570  
C     5.6202680   -0.7864660   -0.7740100  
N     4.7633990    0.0122340   -1.5299000  
C     5.3636070   -1.5168870    0.3925750  
C     6.4125410   -2.2438180    0.9345070  
O     6.2181010   -2.9726170    2.0726570  
C     7.6904830   -2.2418810    0.3155810  
O     8.6298790   -3.0145320    0.9729310  
C     7.9357510   -1.5258510   -0.8415620  
H     7.5433020    0.2801730   -3.2950680  
H     4.3944110   -1.5288390    0.8785210  
H     7.0698880   -3.3845070    2.2983620  
H     9.4876630   -2.9238620    0.5324890  
H     8.9215560   -1.5451500   -1.3023570  
H     4.9885420    1.1705910   -3.3194190  
C     2.3453800   -0.0890200   -2.0233370  
C     3.4107420    0.2744970   -1.2553700  
C     2.8940160    1.0373820   -0.1265310  
C     1.4262580    1.0752830   -0.3068290  
N     1.1606860    0.3699930   -1.4676800  
C     0.5513470    1.7187040    0.5204380  
C     1.1316040    2.4003850    1.6984090  
O     0.4435430    2.9181160    2.5598150  
C     2.6940710    2.4048170    1.8759980  
O     3.1738300    3.0167590    2.8160400  
C     3.5084510    1.6654200    0.9092830  
H     4.5850020    1.6560640    1.0443430  
H     2.3396970   -0.6549100   -2.9451600  
H     0.2501290    0.3095210   -1.8971880  
C    -2.5753950   -1.4350360    0.3066640  
C    -1.4060040   -0.7580550    0.4231590  
C    -1.7004030    0.6494320    0.2504950  
C    -3.1603890    0.7379850    0.0224030  
N    -3.6483300   -0.5725690    0.0574640  
C    -3.8505540    1.8964070   -0.1102930  
C    -3.1078070    3.1516820   -0.0543880  
O    -3.6442780    4.2457380   -0.1230090  
C    -1.5471470    3.0860240    0.0944420  
O    -0.9040010    4.1140230   -0.0089410  
C    -0.9040290    1.7620010    0.3019260  
H    -0.4368990   -1.1896540    0.6243600  
H    -4.9247740    1.9424810   -0.2473170  
H    -2.7645500   -2.4984560    0.3681020  
C    -6.4480030   -2.8662120    2.5243670  
C    -5.3696710   -2.1652980    2.0790020  
C    -5.6784520   -1.7162940    0.7420590  
C    -7.0389170   -2.2197760    0.4348700  
N    -7.4409730   -2.9202210    1.5574020  
C    -7.7124730   -1.9902390   -0.7210390  
C    -7.0555960   -1.2015520   -1.7562820  
O    -7.5862000   -0.9035180   -2.8135310  
C    -5.5826050   -0.7108920   -1.4989560  
O    -4.9768090   -0.1544380   -2.3966960  
C    -4.9783560   -0.9791120   -0.1746950  
H    -4.4652860   -1.9637420    2.6329620  
H    -8.7158390   -2.3568970   -0.9124210  
H    -6.6026010   -3.3450200    3.4822600  
H    -8.3467400   -3.3471430    1.6742780  
