62


C     1.6986490   -0.2956680   -0.1128440  
C     3.0463720   -0.5105360   -0.1125260  
C     3.6739480    0.8076200   -0.1512450  
C     2.6471250    1.7767350   -0.1467100  
N     1.4128050    1.0753290   -0.1227690  
C     2.9091990    3.1458230   -0.2074960  
C     4.2408640    3.5426700   -0.2843470  
O     4.5398110    4.8698870   -0.3423570  
C     5.2797270    2.5850170   -0.3182600  
O     6.5444750    3.1215600   -0.4175750  
C     5.0096980    1.2247610   -0.2550830  
H     2.1160920    3.8793700   -0.2039780  
H     5.5055210    4.9495540   -0.4279350  
H     7.1938900    2.4120820   -0.5352280  
H     5.8181130    0.5006890   -0.3077940  
H     0.8995500   -1.0171380   -0.1071330  
C     0.1474520    1.5827110   -0.1050520  
C    -1.0504250    0.8572690   -0.1244830  
C    -2.0702540    1.8244880   -0.0859440  
C    -1.3306780    3.1380630   -0.0344540  
N    -0.0292510    2.9711170   -0.0532380  
C    -2.0034390    4.3904220    0.0446270  
C    -3.3600560    4.3508950    0.0809910  
O    -4.1320370    5.4278100    0.1494710  
C    -4.1655590    3.0504520    0.0121740  
O    -5.3843130    3.2194570   -0.0352930  
C    -3.4643140    1.7653840   -0.0468640  
H    -1.1686130   -0.2131020   -0.1359710  
H    -1.4460720    5.3196730    0.0773720  
H    -5.0551400    5.0661040    0.1229470  
C    -4.2076860    0.5278480   -0.0776780  
C    -3.8430420   -0.6720280   -0.6473970  
C    -4.9174270   -1.5856670   -0.3713490  
C    -5.8941610   -0.7710360    0.4244550  
N    -5.4887610    0.4520250    0.5862580  
C    -7.1195320   -1.3441600    0.9231860  
C    -7.3711300   -2.6401120    0.6266380  
O    -8.4695960   -3.3067090    1.0119440  
C    -6.4128140   -3.4812400   -0.1890000  
O    -6.7414510   -4.6523900   -0.3981390  
C    -5.1698960   -2.8856270   -0.6721760  
H    -2.9710970   -0.8758750   -1.2511410  
H    -7.8063420   -0.7381780    1.5034650  
H    -8.3547030   -4.2122830    0.6424750  
H    -4.5017390   -3.5207900   -1.2457020  
C     6.4594710   -1.9649050    2.3086660  
C     6.5380720   -3.2244700    1.7755340  
C     5.5031150   -3.3287860    0.7862930  
C     4.8286080   -2.0806100    0.7541200  
N     5.4348750   -1.2695300    1.6929340  
C     3.7181160   -1.8157600   -0.0824600  
C     3.2849840   -2.8873800   -0.8721600  
O     2.2001530   -2.7404880   -1.6891980  
C     3.9590850   -4.1350180   -0.8593350  
O     3.4091920   -5.0656650   -1.7220690  
C     5.0563400   -4.3674880   -0.0534560  
H     7.2434240   -3.9933170    2.0592670  
H     5.1307470   -0.3379430    1.9305940  
H     2.1069490   -3.5720920   -2.1868890  
H     3.9293360   -5.8820990   -1.6943800  
H     5.5492680   -5.3374960   -0.0569160  
H     7.0507810   -1.4954360    3.0821920  
