62


C    -2.1531600   -0.3509730   -0.2473890  
C    -2.9553260    0.7550170   -0.3391570  
C    -2.1268700    1.8915430    0.0281330  
C    -0.8304820    1.4111420    0.3159120  
N    -0.8534420    0.0165110    0.1333470  
C     0.1923630    2.2486020    0.7745820  
C    -0.0957330    3.5997840    0.9142750  
O     0.8745280    4.4486240    1.3583240  
C    -1.3882270    4.0988300    0.6196220  
O    -1.5231610    5.4559500    0.8191530  
C    -2.4017650    3.2596240    0.1884760  
H     1.1792640    1.8931650    1.0416890  
H     0.4843520    5.3390420    1.4012370  
H    -2.4378270    5.7243640    0.6462900  
H    -3.4011090    3.6467800    0.0059970  
H    -2.3574820   -1.3782220   -0.5074630  
C     0.1701940   -0.8834220    0.3239010  
C     0.1084940   -2.2058720    0.6747590  
C     1.4515540   -2.7183520    0.6781650  
C     2.3254900   -1.5858170    0.3004420  
N     1.4989250   -0.4703900    0.1551010  
C     3.6732340   -1.6553460    0.1162460  
C     4.3117920   -2.9639240    0.4178710  
O     5.5201930   -3.1050920    0.4321490  
C     3.3990720   -4.1795360    0.8108850  
O     3.9282790   -5.2660960    0.9972930  
C     1.9667680   -3.9540170    0.9388520  
H    -0.7826710   -2.7473340    0.9549100  
H     1.3439340   -4.8007710    1.2100270  
H     1.7418760    0.2815900   -0.4780530  
C     4.3105930    2.4012950    1.7703090  
C     5.2125530    2.8675860    0.8707970  
C     5.4394040    1.8177650   -0.1010630  
C     4.5786370    0.6825110    0.3115480  
N     3.8963820    1.1116750    1.4375680  
C     4.5145810   -0.5281270   -0.3193430  
C     5.3315170   -0.6747510   -1.5475710  
O     5.2469620   -1.6458660   -2.2769300  
C     6.2872790    0.5001050   -1.9675300  
O     7.0146830    0.3448190   -2.9356440  
C     6.2525910    1.7358280   -1.1879370  
H     5.6729490    3.8447470    0.8713190  
H     6.9026690    2.5485090   -1.4971960  
H     3.8866830    2.8921340    2.6362050  
H     3.3724790    0.4971440    2.0422230  
C    -4.9659700    1.7566900   -1.5109010  
C    -4.3550030    0.7834070   -0.7451690  
C    -5.3748350   -0.2015920   -0.4548970  
C    -6.5710270    0.2353700   -1.0761800  
N    -6.2905590    1.4315860   -1.7081760  
C    -7.7737770   -0.4768160   -0.9920240  
C    -7.7693880   -1.6539790   -0.2608170  
O    -8.9123490   -2.3890730   -0.1490870  
C    -6.5836920   -2.1007900    0.3825320  
O    -6.7439420   -3.2806130    1.0831540  
C    -5.3988990   -1.3938890    0.2956890  
H    -6.9420140    1.9628600   -2.2642280  
H    -8.6907450   -0.1443610   -1.4677260  
H    -8.7055240   -3.1635850    0.4020120  
H    -5.9093450   -3.5211630    1.5115590  
H    -4.5086610   -1.7466580    0.8116320  
H    -4.5412840    2.6375030   -1.9707240  
