62


C     5.7082000   -0.4533400   -2.2878650  
C     6.9800990   -0.8942720   -2.4947030  
C     7.6477690   -0.8980070   -1.2203480  
C     6.7200410   -0.4266510   -0.2588950  
N     5.5240000   -0.1451520   -0.9348100  
C     7.0241920   -0.3680270    1.1048550  
C     8.2966530   -0.7596760    1.4981580  
O     8.6397970   -0.7101930    2.8203700  
C     9.2422230   -1.2121900    0.5465750  
O    10.4642430   -1.5653730    1.0880340  
C     8.9306260   -1.2885430   -0.8005690  
H     7.3984580   -1.1920610   -3.4465700  
H     6.3237950   -0.0206160    1.8521910  
H     9.5587210   -1.0207620    2.8894520  
H    11.0548570   -1.8642230    0.3810660  
H     9.6632540   -1.6577130   -1.5158190  
H     4.8899780   -0.3242000   -2.9775970  
C     1.4737720   -1.5078030   -1.5944940  
C     0.7490390   -0.6622310   -0.8103190  
C     1.7709280    0.2159190   -0.1946600  
C     3.0598290   -0.2637860   -0.7597290  
N     2.8756550   -1.2712940   -1.5640940  
C     4.3309850    0.3482300   -0.3899980  
C     4.2814750    1.3869700    0.5006760  
O     5.3641350    2.0898060    0.8926100  
C     3.0091530    1.8414290    1.1102050  
O     3.0473620    2.7944440    1.8950160  
C     1.7352690    1.1885950    0.7318250  
H     5.0152230    2.7528360    1.5287480  
H     0.8312740    1.5465430    1.2143310  
H     1.0967880   -2.3015450   -2.2278650  
C    -1.4587090   -1.7943000   -0.3872520  
C    -0.6818920   -0.6632700   -0.5550900  
C    -1.5883590    0.4620780   -0.4508050  
C    -2.8801290   -0.0580370   -0.2067710  
N    -2.7654650   -1.4317450   -0.1690650  
C    -4.0484500    0.7410810   -0.1089560  
C    -3.8559430    2.1251490   -0.2719700  
O    -4.8870210    2.9863470   -0.1286480  
C    -2.5624670    2.6548280   -0.5294850  
O    -2.5534890    4.0281040   -0.6627690  
C    -1.4419880    1.8537090   -0.6221710  
H    -3.5494820   -2.0614730   -0.0832800  
H    -4.5397950    3.8828670   -0.2862400  
H    -1.6486110    4.3407790   -0.8098010  
H    -0.4710780    2.2935330   -0.8356870  
H    -1.1586380   -2.8321560   -0.3664310  
C    -5.3527440    0.1471990    0.1361200  
C    -5.6440860   -0.9621110    0.8939320  
C    -7.0679120   -1.1599250    0.7752470  
C    -7.5106840   -0.0595250   -0.1437730  
N    -6.5194810    0.6992470   -0.5057720  
C    -8.8890950    0.0812970   -0.5396000  
C    -9.7803920   -0.8012790   -0.0316090  
O   -11.0933030   -0.7912070   -0.3009700  
C    -9.3656790   -1.9096900    0.9124340  
O   -10.2559550   -2.6601950    1.3158490  
C    -7.9573080   -2.0438930    1.2887580  
H    -4.9769860   -1.5110050    1.5449930  
H    -9.1824350    0.8791060   -1.2126320  
H   -11.4641960   -1.5448890    0.2122790  
H    -7.6967710   -2.8558450    1.9608180  
