62


C    -3.7776610   -0.5547750   -0.0783710  
C    -4.4481740    0.5998940    0.3594390  
C    -5.8337710    0.3436880    0.3039750  
C    -5.9915950   -0.9964380   -0.1746850  
N    -4.7442400   -1.5049040   -0.3940140  
C    -7.2489210   -1.5882210   -0.3484550  
C    -8.3597190   -0.8227870   -0.0354870  
O    -9.6039480   -1.3425710   -0.1828040  
C    -8.2215570    0.5192420    0.4460600  
O    -9.4299380    1.1286310    0.7053390  
C    -6.9885400    1.1026470    0.6179130  
H    -3.9773910    1.4979070    0.7273970  
H    -4.4826540   -2.4472790   -0.6598670  
H    -7.3779010   -2.6025950   -0.7098730  
H   -10.2428550   -0.6589250    0.0862950  
H    -9.2814330    2.0301930    1.0277100  
H    -6.9025930    2.1231220    0.9844350  
C    -0.0280730    1.9380080   -0.0178120  
C    -1.3594700    1.5529260   -0.0628270  
C    -1.3673300    0.1306360   -0.1006360  
C     0.0638780   -0.2441400   -0.0718610  
N     0.8375670    0.8069190   -0.0237440  
C     0.5154110   -1.6439070   -0.1247680  
C    -0.4898130   -2.5606750   -0.3286290  
O    -0.2521870   -3.8951390   -0.4735090  
C    -1.9143160   -2.2261910   -0.3897720  
O    -2.6944450   -3.1837970   -0.5969270  
C    -2.3737570   -0.8255940   -0.1835460  
H    -2.2100860    2.2120450   -0.1436910  
H    -1.1478680   -4.2849740   -0.6002940  
C    -0.1128330    4.4650240    0.1578300  
C     0.5272240    3.2503010    0.0170290  
C     1.9620090    3.6219320   -0.0911680  
C     1.9638220    5.0972720    0.0140260  
N     0.7416920    5.5693710    0.1555630  
C     3.1755160    5.8591970   -0.0471250  
C     4.3426060    5.1831110   -0.2123110  
O     5.5513950    5.7700730   -0.2822620  
C     4.3741570    3.6926740   -0.3317190  
O     5.4720240    3.1461970   -0.4689910  
C     3.1053340    2.9345980   -0.2767320  
H     3.1438440    6.9401060    0.0355490  
H     6.1864130    5.0296960   -0.4010120  
H     3.1467890    1.8579590   -0.3870260  
H    -1.1768820    4.6302450    0.2795480  
C     1.9044800   -1.9979640   -0.0002570  
C     3.0109090   -1.2061800    0.3213320  
C     4.1526130   -2.0403830    0.3281740  
C     3.7096750   -3.3602930    0.0081120  
N     2.3556080   -3.3049380   -0.1818780  
C     4.5884290   -4.4476490   -0.0734670  
C     5.9300610   -4.1999340    0.1688050  
O     6.8302830   -5.2161440    0.1023410  
C     6.3915500   -2.8850240    0.4874070  
O     7.7546370   -2.8196960    0.6938280  
C     5.5290740   -1.8160500    0.5698200  
H     2.9597770   -0.1525330    0.5374130  
H     1.7380850   -4.0739700   -0.3986360  
H     4.2628080   -5.4535580   -0.3161590  
H     7.7076650   -4.8401250    0.2933400  
H     8.0132120   -1.9024560    0.8685730  
H     5.8968020   -0.8201010    0.8069230  
