62


C     1.9831890   -0.5346920    0.1540840  
C     3.2962370   -0.1559990   -0.0054830  
C     3.2744300    1.2608540   -0.2993160  
C     1.9216400    1.6739510   -0.3151830  
N     1.1339510    0.5583260   -0.0254860  
C     1.5379090    2.9974070   -0.5589070  
C     2.5451500    3.9160130   -0.8076680  
O     2.2299850    5.2195420   -1.0553430  
C     3.9081950    3.5157680   -0.8054690  
O     4.7925290    4.5452940   -1.0659340  
C     4.2813170    2.2093670   -0.5575650  
H     0.5028430    3.3155920   -0.5875190  
H     3.0640610    5.6890620   -1.2288700  
H     5.6948870    4.1940530   -1.0904420  
H     5.3289460    1.9239770   -0.5333410  
H     1.5667210   -1.5100800    0.3654660  
C    -1.0781460   -0.7446280    3.4295730  
C    -2.3448400   -0.6013050    2.9561410  
C    -2.2533960   -0.0646330    1.6138780  
C    -0.8091570    0.0829930    1.3447700  
N    -0.1515050   -0.3351120    2.4811190  
C    -0.2604050    0.5298540    0.1733350  
C    -1.1849980    0.8742560   -0.9084230  
O    -0.8247760    1.1966590   -2.0273690  
C    -2.7323950    0.8093190   -0.6109490  
O    -3.4850910    1.2256480   -1.4747820  
C    -3.2112020    0.2847560    0.6888050  
H    -3.2515380   -0.8670760    3.4774320  
H    -0.7400160   -1.1195100    4.3862990  
H     0.8529330   -0.3414270    2.5826550  
C    -5.2380070    0.6826460    2.1234460  
C    -4.6466720    0.2455670    0.9695990  
C    -5.7336760   -0.2704230    0.1277230  
C    -6.9840190   -0.0930690    0.9067480  
N    -6.6078980    0.4848960    2.1052930  
C    -8.2232070   -0.4486510    0.4834680  
C    -8.3532070   -1.0739860   -0.8280910  
O    -9.4234050   -1.4317620   -1.2959560  
C    -7.0409980   -1.3031090   -1.6611520  
O    -7.1184370   -1.8533200   -2.7473650  
C    -5.7612270   -0.8506100   -1.0978840  
H    -9.1210640   -0.3005550    1.0757510  
H    -4.8754880   -0.9837150   -1.7075030  
H    -4.7726950    1.1568000    2.9773210  
H    -7.2494350    0.8048400    2.8142460  
C     3.9924460   -3.9525020   -2.1117260  
C     5.2190550   -4.2524940   -1.5780740  
C     5.5582250   -3.1881150   -0.6758250  
C     4.4801730   -2.2657920   -0.6997760  
N     3.5349410   -2.7647130   -1.5730990  
C     4.4551830   -1.0666690    0.0459040  
C     5.5837190   -0.8199520    0.8297150  
O     5.6487790    0.3109510    1.6009780  
C     6.6707600   -1.7307550    0.8661730  
O     7.7006030   -1.3287870    1.7021040  
C     6.6731220   -2.9044050    0.1372180  
H     5.8125900   -5.1286080   -1.8009800  
H     2.7149910   -2.2564820   -1.8684860  
H     6.4931500    0.2710720    2.0831620  
H     8.3838210   -2.0147950    1.7209320  
H     7.5223430   -3.5833420    0.1852710  
H     3.3938550   -4.4931440   -2.8313860  
