64


C    -0.7382760   -1.4509160    0.0959310  
C    -2.0992280   -1.3195180    0.1221370  
C    -2.3967150    0.0779430   -0.0199620  
C    -1.1549670    0.7517020   -0.1458470  
N    -0.1429760   -0.2019030   -0.0629150  
C    -1.0561630    2.1354510   -0.3605340  
C    -2.2437180    2.8512460   -0.4242510  
O    -2.2103840    4.2003450   -0.6147180  
C    -3.4959730    2.2035740   -0.2875120  
O    -4.5719460    3.0645040   -0.3550760  
C    -3.6048330    0.8216460   -0.0922710  
H    -2.8108340   -2.1259150    0.2202520  
H    -0.1114020    2.6448540   -0.5170780  
H    -3.1325990    4.5120100   -0.5982030  
H    -5.3819680    2.5803090   -0.1072430  
H    -0.1146660   -2.3273620    0.1954170  
C     3.1215170   -1.7787700   -2.6166140  
C     1.8943180   -1.5100120   -2.0712630  
C     2.1103020   -0.6024330   -0.9799020  
C     3.5059090   -0.3528080   -0.9190680  
N     4.0958660   -1.0720320   -1.9348930  
C     4.0773490    0.5263390    0.0210890  
C     3.2095700    1.1605040    0.9092280  
O     3.7034380    2.0296540    1.8347220  
C     1.8142780    0.9154030    0.8704230  
O     1.1132070    1.5772720    1.8513310  
C     1.2546640    0.0433650   -0.0598610  
H     0.9451440   -1.8997170   -2.4087420  
H     5.0906530   -1.1651850   -2.0730050  
H     2.9390350    2.3644560    2.3386300  
H     0.1673220    1.6138320    1.6240240  
H     3.3907390   -2.4156210   -3.4470510  
C    -4.9126710    0.1844960    0.0664600  
C    -5.3261540   -0.8220300    0.9057490  
C    -6.7282290   -1.0417140    0.6842210  
C    -7.1371130   -0.1294310   -0.3172360  
N    -6.0365770    0.6636000   -0.6454420  
C    -8.4432130   -0.0829790   -0.8105520  
C    -9.3626870   -0.9723640   -0.2708460  
O   -10.6502540   -0.9719990   -0.7192540  
C    -8.9764280   -1.8795690    0.7505550  
O   -10.0039620   -2.6889100    1.1930670  
C    -7.6805590   -1.9220260    1.2333700  
H    -4.7054830   -1.3105880    1.6441520  
H    -5.9245050    1.0371540   -1.5809900  
H    -8.7597840    0.6117870   -1.5817780  
H   -11.1304520   -1.6555870   -0.2207130  
H    -9.6729230   -3.2906760    1.8760660  
H    -7.4062730   -2.6288050    2.0138950  
C     6.0340260    2.0834640   -0.0263180  
C     7.3875250    2.0363460    0.0128130  
C     7.7675340    0.6462110    0.1354840  
C     6.4979900   -0.1254270    0.1711290  
N     5.4692140    0.8015910    0.0501590  
C     6.4313340   -1.4770880    0.3087090  
C     7.6799280   -2.2289240    0.4100820  
O     7.7150400   -3.4440040    0.5350800  
C     9.0340530   -1.4324150    0.3507380  
O    10.0867460   -2.0482950    0.4148210  
C     8.9732610    0.0251870    0.2218670  
H     8.0598220    2.8807240   -0.0335480  
H     5.4973480   -2.0238480    0.3774210  
H     9.9132750    0.5685720    0.2043060  
H     5.3739860    2.9355630   -0.1016450  
