62


C     4.4293540   -0.5152080    2.2210710  
C     5.6493220    0.0915200    2.1037570  
C     5.7344060    0.6216650    0.7723450  
C     4.5138030    0.3042620    0.1207080  
N     3.7222640   -0.4015910    1.0257380  
C     4.2368930    0.6970730   -1.1982440  
C     5.2188000    1.4076070   -1.8738310  
O     4.9992690    1.8135510   -3.1581220  
C     6.4498730    1.7222070   -1.2411560  
O     7.3244190    2.4295660   -2.0439130  
C     6.7129690    1.3446730    0.0632140  
H     6.4052430    0.1486240    2.8750510  
H     3.2915490    0.4908920   -1.6882320  
H     5.7940460    2.2936950   -3.4480250  
H     8.1351410    2.6209880   -1.5497630  
H     7.6600560    1.6069960    0.5309270  
H     3.9860370   -1.0499850    3.0484840  
C    -0.1629860    0.2033370    3.0875460  
C     1.1482690    0.2997150    2.7044540  
C     1.3253320   -0.5856090    1.5875960  
C     0.0709520   -1.1921920    1.3275930  
N    -0.8245630   -0.6784050    2.2467450  
C    -0.1478230   -2.1300860    0.2946840  
C     0.9669190   -2.4472100   -0.4856740  
O     0.8326250   -3.3014560   -1.5327400  
C     2.2395410   -1.8726070   -0.2335570  
O     3.2293540   -2.3237410   -1.0735430  
C     2.4315660   -0.9450690    0.7858400  
H     1.9002890    0.9312510    3.1548430  
H    -1.7587740   -1.0312930    2.3873090  
H     1.7180640   -3.4344980   -1.9150020  
H     4.0353370   -1.7931560   -0.9555930  
H    -0.6938760    0.7009690    3.8866940  
C    -4.0112860   -0.3038000   -0.7167240  
C    -4.7653860   -1.4472240   -0.8294000  
C    -3.9252110   -2.5747440   -0.5311330  
C    -2.5885910   -2.0186240   -0.2283040  
N    -2.7134310   -0.6347940   -0.2924310  
C    -1.4663220   -2.7454850    0.0359760  
C    -1.6409250   -4.2173090    0.1051430  
O    -0.7471490   -4.9702530    0.4447010  
C    -3.0549660   -4.8284070   -0.2181440  
O    -3.1767840   -6.0449670   -0.2147960  
C    -4.1563980   -3.9190080   -0.5098820  
H    -5.8233140   -1.4836580   -1.0474800  
H    -5.1262550   -4.3513700   -0.7357450  
H    -1.9110660   -0.0476600   -0.4781280  
C    -5.3846360    1.5543730   -1.7349380  
C    -4.3882110    1.0692150   -0.9298130  
C    -3.7994620    2.2773040   -0.3170130  
C    -4.5956490    3.3985650   -0.9003180  
N    -5.5161440    2.9572840   -1.7197410  
C    -4.3451560    4.7677800   -0.5503080  
C    -3.3666050    5.0215550    0.3537120  
O    -3.0299320    6.2482850    0.7729280  
C    -2.5691340    3.9120520    0.9857440  
O    -1.7164670    4.2182720    1.8142250  
C    -2.8392100    2.5080600    0.5987500  
H    -4.9364380    5.5583290   -0.9985450  
H    -2.3068790    6.1195480    1.4255540  
H    -2.2486270    1.7422070    1.0929530  
H    -6.0403360    0.9763330   -2.3755560  
