62


C    -3.9842840   -0.3273160   -0.2880110  
C    -2.6555670    0.0691740   -0.3842050  
C    -2.6428850    1.4865440   -0.5506220  
C    -3.9961940    1.9214670   -0.5513530  
N    -4.7799000    0.8019900   -0.4051700  
C    -4.3626890    3.2662810   -0.6803580  
C    -3.3497570    4.2043340   -0.8118960  
O    -3.6577840    5.5268400   -0.9395470  
C    -1.9895710    3.8018070   -0.8202960  
O    -1.0829330    4.8227720   -0.9676800  
C    -1.6329630    2.4631540   -0.6955160  
H    -1.7914030   -0.5636860   -0.2451370  
H    -5.7768120    0.7808700   -0.2437910  
H    -5.3969220    3.5942320   -0.6762660  
H    -2.8212470    6.0196940   -0.9953700  
H    -0.1865650    4.4538630   -0.9041690  
C     0.4185340    1.5997460   -1.8443390  
C     1.6541380    1.1290270   -1.5229620  
C     1.8305890    1.3058440   -0.1022650  
C     0.5707380    1.9046130    0.3890080  
N    -0.2443510    2.1129480   -0.7290100  
C     0.2799910    2.1576850    1.6897780  
C     1.2897170    1.8310540    2.6910710  
O     1.1024340    1.9541440    3.8907280  
C     2.6906960    1.3253630    2.1948610  
O     3.6013410    1.2859040    2.9993430  
C     2.8674370    0.9942300    0.7527160  
H     2.3646680    0.6909980   -2.2064050  
H    -0.6756070    2.5542070    2.0161800  
H    -0.0806470    1.6287520   -2.8040910  
C     4.1146550    0.4019810    0.3059440  
C     4.8026310    0.6314430   -0.8580990  
C     5.9658990   -0.2233980   -0.8043740  
C     5.8214490   -0.9529710    0.4972470  
N     4.7550560   -0.5877470    1.1416570  
C     6.7878760   -1.9367890    0.9185850  
C     7.8474290   -2.1645910    0.1083130  
O     8.8274970   -3.0418740    0.3726710  
C     8.0267010   -1.4328670   -1.2015150  
O     9.0219810   -1.7131720   -1.8710940  
C     7.0238910   -0.4462410   -1.6189070  
H     4.5766070    1.3574110   -1.6262060  
H     6.6579140   -2.4549990    1.8620290  
H     9.4421220   -2.9777840   -0.3925790  
H     7.1817510    0.0506260   -2.5713660  
C    -2.3421400   -4.3177700   -1.2313920  
C    -3.3739910   -5.0648930   -0.7305250  
C    -4.3570940   -4.1445850   -0.2326720  
C    -3.8514170   -2.8364980   -0.4488910  
N    -2.6141150   -2.9741520   -1.0442520  
C    -4.5579940   -1.6587510   -0.1019580  
C    -5.8355440   -1.8669310    0.4349810  
O    -6.6266850   -0.7952030    0.7749330  
C    -6.3503130   -3.1657850    0.6582390  
O    -7.6199560   -3.1660010    1.2088550  
C    -5.6301210   -4.3024430    0.3468050  
H    -3.4316120   -6.1444630   -0.7159150  
H    -2.1029890   -2.2124240   -1.4621860  
H    -7.4406390   -1.1574700    1.1682120  
H    -7.8756910   -4.0719330    1.4361010  
H    -6.0478400   -5.2904920    0.5273150  
H    -1.4181550   -4.6274690   -1.6989520  
