60


C     2.8800690   -3.6937440   -1.4140410  
C     3.6974250   -4.3186610   -0.5104800  
C     4.4321860   -3.2929870    0.1770080  
C     4.0044970   -2.0493170   -0.3538480  
N     3.0434390   -2.3215820   -1.3089030  
C     4.5385200   -0.8075400    0.0543590  
C     5.5310860   -0.8572990    1.0360240  
O     6.0595360    0.3009220    1.5145190  
C     5.9622140   -2.0933180    1.5830270  
O     6.9343430   -1.9571510    2.5564080  
C     5.4286860   -3.3001290    1.1727240  
H     3.7730300   -5.3859250   -0.3533580  
H     2.6685020   -1.6395650   -1.9494730  
H     6.7919090    0.0615010    2.1090890  
H     7.3077180   -2.8261510    2.7650290  
H     5.7772720   -4.2336610    1.6097530  
H     2.1815700   -4.1082900   -2.1273580  
C     0.5857410    1.1899510   -0.1388750  
C     1.6151280    0.3259220    0.0913140  
C     2.8022170    0.9108080   -0.4892780  
C     2.3831730    2.2028380   -1.0728680  
N     1.0223950    2.3445340   -0.7928730  
C     3.1990230    3.0638070   -1.7248500  
C     4.6107080    2.7067640   -1.8412140  
O     5.4354300    3.4296700   -2.3758080  
C     5.0846660    1.3297310   -1.2468530  
O     6.2346890    0.9846320   -1.4440880  
C     4.1018580    0.4789670   -0.5246590  
H     1.5744990   -0.5856650    0.6677900  
H     2.8696870    4.0145870   -2.1321260  
H     0.4095550    2.9190660   -1.3550310  
C    -1.3926800   -0.2086390    0.2370660  
C    -2.6915460   -0.0842890    0.6116070  
C    -2.9593910    1.3326100    0.8277370  
C    -1.6845780    2.0314500    0.5530380  
N    -0.7588480    1.0382360    0.1814550  
C    -1.5099410    3.3667260    0.7038210  
C    -2.6594370    4.1778100    1.1248410  
O    -2.5857240    5.3851720    1.2733570  
C    -4.0226760    3.4530360    1.3971190  
O    -4.9878520    4.1080850    1.7478920  
C    -4.0726970    1.9935800    1.2283380  
H    -0.5633530    3.8737610    0.5598050  
H    -5.0093870    1.4890590    1.4416420  
H    -0.8392000   -1.0986960   -0.0276090  
C    -3.4912690   -2.1524690    1.7599380  
C    -4.5108070   -3.0380670    1.6682590  
C    -5.3644190   -2.6093350    0.5785630  
C    -4.7466310   -1.3788080    0.0284030  
N    -3.6028220   -1.1371460    0.7941330  
C    -5.2311580   -0.6820000   -1.0283920  
C    -6.4567190   -1.1606790   -1.6702110  
O    -6.9596970   -0.6038230   -2.6323760  
C    -7.1413400   -2.4515720   -1.0908520  
O    -8.1679870   -2.8605310   -1.6077440  
C    -6.5069500   -3.1200040    0.0505140  
H    -4.6650340   -3.9027610    2.2973770  
H    -4.7589660    0.2090940   -1.4276430  
H    -6.9794010   -4.0193890    0.4335760  
H    -2.6591920   -2.1219250    2.4508670  
