62


C     4.9665520    0.6387810    2.8533460  
C     6.1748850    0.4994550    2.2217650  
C     5.9211690   -0.1531370    0.9693760  
C     4.5199790   -0.3766190    0.8920900  
N     3.9685130    0.1116260    2.0576020  
C     3.8913450   -1.0323950   -0.1931200  
C     4.7579590   -1.4796690   -1.1899400  
O     4.2516160   -2.1679390   -2.2769340  
C     6.1551780   -1.2639070   -1.1372440  
O     6.8325750   -1.7753250   -2.2288580  
C     6.7465600   -0.6016120   -0.0797370  
H     7.1353870    0.8125150    2.6069110  
H     2.9842860    0.0910790    2.2751480  
H     5.0042430   -2.3706140   -2.8627020  
H     7.7773380   -1.5769390   -2.1510640  
H     7.8232420   -0.4487760   -0.0532610  
H     4.7287740    1.0692320    3.8160100  
C     0.4229520    1.7543950    0.3917900  
C     1.6778770    1.2258110    0.2159770  
C     1.5078480   -0.1859190    0.0004180  
C     0.1170930   -0.4451510    0.0243250  
N    -0.5242280    0.7517600    0.2694570  
C    -0.4566330   -1.7278120   -0.1574780  
C     0.4675810   -2.7551010   -0.4209600  
O     0.0523490   -4.0076310   -0.6909260  
C     1.8687910   -2.5069320   -0.4722920  
O     2.6129040   -3.6348160   -0.7375390  
C     2.4247890   -1.2511420   -0.2354820  
H     2.6010850    1.7854350    0.1872740  
H    -1.5029680    0.8338500    0.5065400  
H     0.8674540   -4.5194650   -0.8679450  
H     3.2865120   -3.3980060   -1.4128500  
C    -1.8913570   -1.9429820   -0.0844860  
C    -2.8998580   -1.0820480   -0.4497740  
C    -4.1331650   -1.7581190   -0.1297910  
C    -3.6880430   -3.0593330    0.4689400  
N    -2.3930940   -3.1680960    0.4870850  
C    -4.6379100   -4.0307410    0.9496920  
C    -5.9526650   -3.7389620    0.8181150  
O    -6.9502260   -4.5443120    1.2094400  
C    -6.4311510   -2.4419530    0.2003500  
O    -7.6502950   -2.2761470    0.1307450  
C    -5.4486590   -1.4625040   -0.2668180  
H    -2.8128370   -0.1452670   -0.9833270  
H    -4.2908780   -4.9602340    1.3869260  
H    -7.7741540   -4.0569530    0.9791060  
H    -5.8282580   -0.5406700   -0.6968580  
C     0.6291810    3.8781590    1.6580790  
C     0.0877260    5.1194790    1.6775460  
C    -0.9310230    5.1637820    0.6493290  
C    -0.9289120    3.8257840    0.0074860  
N     0.0366190    3.0704740    0.6758340  
C    -1.7254110    3.4764710   -1.0342440  
C    -2.6707310    4.4667700   -1.5482480  
O    -3.4283550    4.2378780   -2.4781940  
C    -2.7078080    5.8821210   -0.8659090  
O    -3.4995330    6.7166570   -1.2740290  
C    -1.7780900    6.1426310    0.2370540  
H     0.3581200    5.9258980    2.3436310  
H    -1.6879200    2.5061620   -1.5170870  
H    -1.7968280    7.1297440    0.6889690  
H     1.4081500    3.4501450    2.2741670  
