60


C    -5.0673410   -0.8924100    2.2224630  
C    -6.2771830   -1.5061600    2.3547690  
C    -7.0233680   -1.2469950    1.1526500  
C    -6.2101830   -0.4428980    0.3172640  
N    -4.9990810   -0.2297480    0.9897320  
C    -6.6137590   -0.0481970   -0.9626730  
C    -7.8703310   -0.4482250   -1.3914770  
O    -8.3114710   -0.0800930   -2.6291800  
C    -8.7040950   -1.2389320   -0.5592980  
O    -9.9225870   -1.5582230   -1.1262480  
C    -8.2950320   -1.6418950    0.6989020  
H    -6.6128210   -2.0632380    3.2190730  
H    -6.0073580    0.5721380   -1.6102980  
H    -9.2155630   -0.4247300   -2.7276240  
H   -10.4676590   -2.0278980   -0.4778730  
H    -8.9413280   -2.2609160    1.3180360  
H    -4.2433920   -0.8074920    2.9156000  
C    -0.7841020   -1.3634060    0.8600270  
C    -2.1322360   -1.3681390    0.9927150  
C    -2.6112360   -0.0583670    0.6075540  
C    -1.4195760    0.7279060    0.2327730  
N    -0.3165340   -0.1145930    0.4217440  
C    -1.4468880    1.9854290   -0.2765890  
C    -2.7394970    2.6340050   -0.4295760  
O    -2.8859360    3.7368920   -0.9328730  
C    -4.0242240    1.8722450    0.0635260  
O    -5.0907140    2.4564010    0.0603400  
C    -3.8740400    0.4690170    0.5327720  
H    -2.7384940   -2.1974790    1.3242720  
H    -0.5608860    2.5334830   -0.5727820  
H    -0.0686620   -2.1494320    1.0585690  
C     2.7545450   -2.1012530   -1.9780920  
C     1.5808110   -1.7367340   -1.3977020  
C     1.8501550   -0.5809410   -0.5726740  
C     3.2934300   -0.3048000   -0.7135670  
N     3.7810150   -1.2460850   -1.5934250  
C     3.9593020    0.7205640   -0.0901190  
C     3.1646130    1.6393750    0.7299840  
O     3.6223930    2.6481210    1.2411450  
C     1.6356490    1.3281320    0.9487380  
O     1.0204970    2.0173330    1.7391270  
C     1.0335270    0.2049360    0.2022400  
H     0.6190570   -2.2011770   -1.5539830  
H     2.9584580   -2.9067300   -2.6705060  
H     4.7624970   -1.3962560   -1.7779730  
C     5.9182060    2.2070530   -0.5021370  
C     7.2650430    2.1227060   -0.5935690  
C     7.6371240    0.7471080   -0.3444960  
C     6.3694750    0.0175590   -0.0872810  
N     5.3425110    0.9487880   -0.2254100  
C     6.3072490   -1.3002100    0.2472450  
C     7.5536810   -2.0627650    0.3234280  
O     7.5840400   -3.2478800    0.6157920  
C     8.8987600   -1.3177060    0.0077270  
O     9.9443800   -1.9458870    0.0317110  
C     8.8379410    0.1149830   -0.2986280  
H     7.9418230    2.9373170   -0.8069560  
H     5.3885520   -1.8109320    0.5131160  
H     9.7767600    0.6320180   -0.4725050  
H     5.2702970    3.0635670   -0.6065650  
