62


C    -2.1865360    4.7727230    0.2103160  
C    -1.3268450    5.6770740   -0.3298670  
C    -0.1744190    4.9535100   -0.8008480  
C    -0.3904840    3.5828260   -0.5197040  
N    -1.6475060    3.4813840    0.1045150  
C     0.5655190    2.6037320   -0.8200750  
C     1.7414630    3.0170290   -1.4340230  
O     2.6912840    2.0931670   -1.7469060  
C     1.9625880    4.3841240   -1.7358270  
O     3.1739460    4.6337190   -2.3434500  
C     1.0223920    5.3497930   -1.4222670  
H    -1.4961680    6.7424610   -0.4047480  
H     0.4404440    1.5508150   -0.6000130  
H     3.4331390    2.5652610   -2.1632830  
H     3.2525890    5.5779380   -2.5454770  
H     1.2105410    6.3972320   -1.6480070  
H    -3.1707030    4.9024490    0.6339220  
C    -2.2756460    2.3554870    0.5999340  
C    -3.2133830    2.2608760    1.5931630  
C    -3.6176280    0.8824850    1.6771910  
C    -2.8234060    0.1597250    0.6615940  
N    -1.9690340    1.0977890    0.0719240  
C    -2.9395130   -1.1592120    0.3562250  
C    -3.9133960   -1.9383000    1.1645110  
O    -4.0369580   -3.1430000    1.0473250  
C    -4.7593710   -1.1899900    2.2584860  
O    -5.5791160   -1.8334960    2.8982510  
C    -4.5276930    0.2337720    2.4581700  
H    -3.5521950    3.0650250    2.2292810  
H    -5.1228190    0.7431490    3.2097310  
H    -1.6684630    0.9840870   -0.8881480  
C     1.4463560   -1.9099270   -0.1257340  
C     0.2006150   -1.5004350    0.3103720  
C    -0.7768960   -1.9382000   -0.6459300  
C    -0.0198280   -2.6456030   -1.7058710  
N     1.3079670   -2.5656690   -1.3486370  
C    -0.5807420   -3.2540560   -2.7819740  
C    -2.0310060   -3.2153320   -2.9186150  
O    -2.6294360   -3.7502760   -3.8397250  
C    -2.8586820   -2.4321220   -1.8364810  
O    -4.0585230   -2.2941960   -2.0071610  
C    -2.1464330   -1.8369290   -0.6851140  
H    -0.0265080   -1.0546790    1.2659080  
H    -0.0049640   -3.7827710   -3.5352520  
H     2.0647290   -3.0809420   -1.7746260  
C     2.8524630    1.0330210    2.8645500  
C     4.1095320    0.5228030    3.0406220  
C     4.2291730   -0.6051940    2.1617510  
C     2.9906310   -0.7409610    1.4809240  
N     2.1676720    0.2621600    1.9415950  
C     2.7472490   -1.7459120    0.5078350  
C     3.8401190   -2.5814100    0.2182960  
O     3.7289450   -3.5717160   -0.7211250  
C     5.0748280   -2.4550190    0.8960000  
O     6.0207270   -3.3762280    0.4871500  
C     5.2793260   -1.4924650    1.8653940  
H     4.8660980    0.9033770    3.7124770  
H     1.2864520    0.5163540    1.5223620  
H     4.5750180   -4.0552030   -0.7307230  
H     6.8008540   -3.3239030    1.0586090  
H     6.2383870   -1.4146000    2.3728840  
H     2.3708520    1.8830010    3.3264230  
