62


C    -3.5203510   -0.2594850   -0.0112390  
C    -2.1905030    0.0825460    0.1095350  
C    -2.0030870    1.3372620   -0.5547400  
C    -3.2647730    1.7400380   -1.0647100  
N    -4.1652780    0.7322440   -0.7672960  
C    -3.4677800    2.9516640   -1.7288310  
C    -2.3665240    3.7808540   -1.9006270  
O    -2.5068500    4.9732520   -2.5389090  
C    -1.0810890    3.3956170   -1.4401130  
O    -0.0691060    4.2733480   -1.7653170  
C    -0.8948690    2.1829090   -0.7763900  
H    -1.4468190   -0.5075790    0.6216290  
H    -5.1626800    0.8854940   -0.7045700  
H    -4.4375130    3.2653070   -2.1010100  
H    -1.6283510    5.3956780   -2.5408450  
H     0.5882840    4.3207100   -1.0472900  
C     1.0542150    0.6397120   -0.7410370  
C     2.3207040    0.5434200   -0.2157400  
C     2.5133350    1.7515290    0.5943090  
C     1.2508940    2.5184160    0.4934820  
N     0.4070020    1.7947460   -0.3430470  
C     1.0024950    3.6986370    1.1260020  
C     2.0577670    4.2693360    1.9632730  
O     1.9219080    5.3098600    2.5865190  
C     3.4173370    3.4907470    2.0558390  
O     4.3249160    3.9635520    2.7189870  
C     3.5471560    2.2099940    1.3425120  
H     0.0345540    4.1911180    1.1085590  
H     4.4742140    1.6563570    1.4284630  
H     0.5388030   -0.0405750   -1.4050510  
C     3.2495550   -0.5303750   -0.4415880  
C     3.0805300   -1.6888360   -1.1648450  
C     4.3203780   -2.3999380   -1.0631250  
C     5.1867710   -1.5134390   -0.2090800  
N     4.5588180   -0.4316210    0.1478750  
C     6.5355330   -1.8773640    0.1338110  
C     7.0013960   -3.0558980   -0.3424420  
O     8.2291850   -3.5319120   -0.1118800  
C     6.1523540   -3.9740680   -1.2064170  
O     6.6859480   -5.0211440   -1.5804400  
C     4.7891100   -3.5834680   -1.5406520  
H     2.1997580   -2.0151130   -1.7005670  
H     7.1398230   -1.2213030    0.7502670  
H     8.2588960   -4.3949320   -0.5874420  
H     4.2108730   -4.2622440   -2.1595830  
C    -7.0790920   -2.2973520   -1.6746240  
C    -7.2529050   -3.2043830   -0.6655850  
C    -6.2014040   -2.9839160    0.2887640  
C    -5.4188080   -1.9069170   -0.1952840  
N    -5.9928110   -1.4856030   -1.3847120  
C    -4.2703900   -1.4152440    0.4729050  
C    -3.9138180   -2.0940240    1.6454460  
O    -2.8086020   -1.7123250    2.3484150  
C    -4.6927850   -3.1703950    2.1396140  
O    -4.2037240   -3.7052660    3.3169940  
C    -5.8294320   -3.6140440    1.4919670  
H    -8.0379570   -3.9453880   -0.6032130  
H    -5.5164960   -0.9038050   -2.0582050  
H    -2.7776300   -2.2645670    3.1498570  
H    -4.8158120   -4.3790920    3.6474270  
H    -6.4078160   -4.4429910    1.8942440  
H    -7.6491630   -2.1415800   -2.5797010  
