62


C     3.4458850   -1.7800350   -0.0429380  
C     3.2526870   -3.1439260   -0.1024950  
C     1.8740860   -3.3967310    0.1844820  
C     1.2592680   -2.1437490    0.4308140  
N     2.2387280   -1.1778910    0.3195360  
C    -0.1241810   -1.9878190    0.6935090  
C    -0.8765210   -3.1779710    0.7208570  
O    -2.2059840   -3.1670250    1.0252270  
C    -0.2626620   -4.4363760    0.5043920  
O    -1.1440840   -5.4977710    0.5925140  
C     1.0881980   -4.5632760    0.2417350  
H     4.0223300   -3.8782430   -0.2947860  
H     2.0305270   -0.2011520    0.1606760  
H    -2.4882630   -4.0996420    1.0496560  
H    -0.6617370   -6.3337830    0.5130050  
H     1.5275300   -5.5439980    0.0724970  
C    -0.7066990   -0.6752940    0.9196080  
C    -0.1300540    0.4240100    1.5030320  
C    -1.1311430    1.4605580    1.4819670  
C    -2.2978760    0.8388000    0.7669400  
N    -2.0426090   -0.4034610    0.4690750  
C    -3.5252240    1.5648470    0.4854350  
C    -3.6063920    2.7967950    1.0861040  
O    -4.7035200    3.5526170    1.0756020  
C    -2.4649250    3.4333890    1.8412950  
O    -2.6620740    4.5560360    2.3095460  
C    -1.2030030    2.7101370    1.9925850  
H     0.8299910    0.4787920    1.9966760  
H    -4.4531550    4.3843920    1.5401530  
H    -0.4000060    3.2028790    2.5314180  
C    -5.4514330   -2.4240570   -0.1451900  
C    -6.4453200   -2.0500740   -0.9933790  
C    -6.2728060   -0.6386720   -1.2479340  
C    -5.0946920   -0.2189490   -0.4384990  
N    -4.6656690   -1.3458390    0.2340030  
C    -4.6091950    1.0649920   -0.3806040  
C    -5.2004850    2.0095830   -1.3654700  
O    -4.6812870    3.0740170   -1.6525080  
C    -6.5191870    1.6125840   -2.1187510  
O    -7.1004950    2.4719830   -2.7651300  
C    -6.9737080    0.2342590   -2.0219350  
H    -7.2160250   -2.6824190   -1.4096980  
H    -7.8639700   -0.0525870   -2.5734070  
H    -5.2283190   -3.4059090    0.2515570  
H    -3.6878020   -1.4266320    0.5287210  
C     4.6342950   -0.9873820   -0.2624750  
C     5.7323240   -1.2300210   -1.0604090  
C     6.6258750   -0.1207400   -0.9188190  
C     6.0197930    0.7883390   -0.0122370  
N     4.7886760    0.2627290    0.3433950  
C     6.6290080    1.9851440    0.3789790  
C     7.8711880    2.2776740   -0.1643590  
O     8.5107700    3.4302880    0.1850170  
C     8.4853960    1.3892950   -1.0881610  
O     9.7141370    1.8260880   -1.5447600  
C     7.8816170    0.2064830   -1.4706200  
H     5.8530190   -2.0840050   -1.7127830  
H     4.2904460    0.5319550    1.1794460  
H     6.1716290    2.6814450    1.0744270  
H     9.3507530    3.4542950   -0.3051240  
H    10.0722200    1.1844690   -2.1757720  
H     8.3725520   -0.4593900   -2.1775270  
