60


C    -4.2480640    0.9523820    0.0000320  
C    -4.3843800   -0.4232570    0.2383020  
C    -5.7292820   -0.7746360   -0.0327120  
C    -6.4014000    0.4204850   -0.4346680  
N    -5.4815830    1.4361480   -0.4085050  
C    -7.7574210    0.4413110   -0.7743380  
C    -8.4486480   -0.7600600   -0.7083470  
O    -9.7693140   -0.8003360   -1.0272790  
C    -7.7934620   -1.9646380   -0.3091330  
O    -8.6272740   -3.0644460   -0.3001670  
C    -6.4577290   -1.9855910    0.0259760  
H    -3.6329860   -1.0932320    0.6293000  
H    -5.6275850    2.4289480   -0.5534410  
H    -8.2752470    1.3442810   -1.0793310  
H   -10.0667130   -1.7209110   -0.9187980  
H    -8.1280070   -3.8485000   -0.0270020  
H    -5.9743300   -2.9126150    0.3265080  
C     0.0656840    0.1065810    0.4080740  
C     0.4938410    1.4101400    0.6057610  
C    -0.6400640    2.2753600    0.5169850  
C    -1.8031540    1.3999200    0.2733190  
N    -1.3193660    0.1229420    0.2262210  
C    -3.1106200    1.8340340    0.1369030  
C    -3.2841710    3.3046700    0.1198090  
O    -4.3503790    3.8508600   -0.1450390  
C    -2.0617270    4.2437970    0.4471110  
O    -2.2807040    5.4477970    0.5225000  
C    -0.7656640    3.6375420    0.6230440  
H     1.4928310    1.7277110    0.8544690  
H     0.0786840    4.2869770    0.8313120  
H    -1.8266360   -0.7294000    0.0264760  
C     4.4323700   -0.8887930    0.1156320  
C     3.1870650   -0.2516880    0.1135450  
C     2.1808470   -1.2240090    0.3258250  
C     2.8920500   -2.5175970    0.4454090  
N     4.2351420   -2.2406920    0.3408590  
C     2.2957170   -3.7235880    0.6245180  
C     0.8438860   -3.7648760    0.6653390  
O     0.2042320   -4.7895860    0.8412610  
C     0.0515500   -2.4248780    0.4575300  
O    -1.1681830   -2.5269770    0.3460960  
C     0.7851510   -1.1461960    0.4003670  
H     3.0198410    0.7809570   -0.1330130  
H     2.8464550   -4.6524700    0.7309660  
H     5.0004160   -2.9019560    0.2633260  
C     6.0961140    3.2644490    0.1473820  
C     5.2905430    2.1673550    0.3046770  
C     6.0463300    1.0121400   -0.0774950  
C     7.3804660    1.5167750   -0.4603370  
N     7.3333880    2.8944890   -0.3250930  
C     8.4278410    0.7508360   -0.8623790  
C     8.2481460   -0.6920040   -0.8862120  
O     9.1183440   -1.4711310   -1.2400920  
C     6.8699410   -1.2739080   -0.4208100  
O     6.7911730   -2.4945460   -0.3279420  
C     5.7503290   -0.3523520   -0.1190750  
H     4.2871850    2.1912540    0.6956320  
H     9.3898150    1.1572340   -1.1582660  
H     5.8756900    4.3046820    0.3469740  
H     8.1118680    3.5155190   -0.4844050  
