62


C     4.9319160   -2.1444090   -1.4577310  
C     6.2781980   -2.3751810   -1.3982780  
C     6.8653760   -1.2856150   -0.6697240  
C     5.8124140   -0.4072070   -0.3097070  
N     4.6259310   -0.9472590   -0.8052950  
C     6.0231800    0.7518980    0.4457910  
C     7.3243000    1.0377330    0.8278010  
O     7.5860450    2.1609870    1.5590250  
C     8.3935870    0.1758350    0.4667270  
O     9.6294270    0.5976050    0.9209770  
C     8.1798020   -0.9739920   -0.2698260  
H     6.7965760   -3.2154360   -1.8402800  
H     5.2221360    1.4273930    0.7194850  
H     8.5461960    2.1868630    1.7118550  
H    10.3133150   -0.0132300    0.6093340  
H     9.0119170   -1.6258090   -0.5291740  
H     4.1455300   -2.6967160   -1.9527630  
C     1.2618030   -2.9158600    1.0909850  
C     0.3377060   -1.9163290    0.9104460  
C     0.9998980   -0.8522600    0.2134370  
C     2.3366570   -1.2706470    0.0075560  
N     2.4675920   -2.5328800    0.5419230  
C     3.3136360   -0.4634510   -0.6044230  
C     2.9181260    0.8091340   -1.0169520  
O     3.8044580    1.6237020   -1.6490420  
C     1.5917320    1.2580790   -0.8032860  
O     1.3688220    2.5222450   -1.2967030  
C     0.6091520    0.4533860   -0.2044520  
H    -0.6862780   -1.9292900    1.2544000  
H     3.3298880   -3.0561740    0.5680350  
H     3.3248040    2.4376620   -1.8855930  
H     0.4136760    2.7243530   -1.2586080  
H     1.1587890   -3.8791320    1.5699900  
C    -0.7549580    0.9230010   -0.0485650  
C    -1.9370920    0.2392260   -0.1121770  
C    -3.0210250    1.1545860    0.1077310  
C    -2.3963480    2.4783790    0.3072860  
N    -1.0119020    2.3174890    0.1246980  
C    -3.0644330    3.6169230    0.5943270  
C    -4.5216540    3.5505210    0.6872860  
O    -5.2145600    4.5271990    0.9204730  
C    -5.2195880    2.1620870    0.4615740  
O    -6.4288410    2.0998330    0.6077750  
C    -4.3829240    0.9867920    0.1291980  
H    -2.0370590   -0.8116540   -0.3297930  
H    -2.5816430    4.5800260    0.7296290  
H    -0.3951450    2.8366340    0.7434820  
C    -4.0227430   -2.9244120    2.1703190  
C    -4.9954020   -3.6471990    1.5709400  
C    -5.5704800   -2.7527780    0.5721590  
C    -4.7862070   -1.4799930    0.7218930  
N    -3.8826940   -1.5949660    1.6531090  
C    -5.0629430   -0.3044630   -0.0905740  
C    -6.0539380   -0.4410060   -1.0200320  
O    -6.3944860    0.5239240   -1.8816000  
C    -6.8456240   -1.7087090   -1.1941320  
O    -7.7123690   -1.7236960   -2.0660310  
C    -6.5578460   -2.8708430   -0.3346330  
H    -5.3015370   -4.6635290    1.7761110  
H    -7.1453310    0.1618390   -2.4022410  
H    -7.1579870   -3.7632160   -0.4839960  
H    -3.3639680   -3.2310050    2.9743050  
