62


C    -6.2179380   -1.9400340    3.3876240  
C    -7.3339100   -2.2002480    2.6361310  
C    -7.0133380   -1.8714690    1.2753990  
C    -5.6691800   -1.4181650    1.2643890  
N    -5.2055680   -1.4832430    2.5631240  
C    -5.0014540   -0.9812370    0.0996660  
C    -5.7483530   -1.0157500   -1.0794620  
O    -5.1746010   -0.6292030   -2.2578300  
C    -7.0939050   -1.4661310   -1.0859480  
O    -7.6772620   -1.4404100   -2.3404730  
C    -7.7299870   -1.8958200    0.0627440  
H    -8.2750380   -2.5829950    3.0066280  
H    -4.3156610   -1.1205500    2.8681310  
H    -5.8543090   -0.7170020   -2.9486600  
H    -8.5954810   -1.7410120   -2.2753380  
H    -8.7626390   -2.2373170    0.0271570  
H    -6.0506050   -2.0501530    4.4498490  
C    -2.5403670   -1.2208480    0.6565870  
C    -3.5980930   -0.5321210    0.1367790  
C    -3.0540880    0.7378220   -0.3375250  
C    -1.6048000    0.7165630   -0.0181000  
N    -1.3629800   -0.4821330    0.6225280  
C    -0.7227660    1.7337280   -0.2887230  
C    -1.2667800    2.8313670   -1.1290430  
O    -0.5601810    3.6399660   -1.7049010  
C    -2.8189530    2.9348400   -1.3362130  
O    -3.2714350    3.9499960   -1.8431670  
C    -3.6476570    1.8052500   -0.9304650  
H    -4.7120530    1.8478840   -1.1306880  
H    -2.5302990   -2.2239640    1.0646420  
H    -0.4276370   -0.8898920    0.5426880  
C     2.5486790   -1.2963920   -0.2228630  
C     3.6438640   -0.5372910    0.0585250  
C     3.0913110    0.8182260    0.2655030  
C     1.6217720    0.6742290    0.0324180  
N     1.3263250   -0.5747640   -0.2217190  
C     0.6963060    1.7957610    0.1080210  
C     1.2520980    2.9731990    0.5448830  
O     0.5406400    4.0751600    0.8020880  
C     2.7190910    3.1440410    0.7896100  
O     3.1154090    4.2507030    1.1555170  
C     3.6318360    1.9985680    0.6100880  
H     1.1983770    4.7642980    1.0450190  
H     4.6823380    2.1508770    0.8250350  
H     2.5178120   -2.3635960   -0.4087530  
C     5.8344630   -3.0750000   -2.7861750  
C     7.0445900   -3.0852740   -2.1439120  
C     6.8996530   -2.2859430   -0.9603820  
C     5.5603410   -1.8184840   -0.9351160  
N     4.9324110   -2.3258880   -2.0532720  
C     5.0469600   -0.9669540    0.0724720  
C     5.9537130   -0.6018380    1.0735510  
O     5.5487670    0.1985160    2.1065150  
C     7.2927970   -1.0662770    1.0643920  
O     8.0393780   -0.6107350    2.1363110  
C     7.7744500   -1.8996080    0.0731870  
H     7.9362000   -3.6006900   -2.4733150  
H     4.0012720   -2.0735230   -2.3473560  
H     6.3110730    0.2959520    2.7044680  
H     8.9204640   -1.0119290    2.1126470  
H     8.8081870   -2.2386580    0.0903180  
H     5.5288260   -3.5497160   -3.7078220  
