62


C    -4.6880390    0.3377710   -0.1240020  
C    -3.8894480   -0.7824290    0.1223770  
C    -4.6840380   -1.9408730   -0.1074050  
C    -5.9759010   -1.4835680   -0.4963190  
N    -5.9435250   -0.1134000   -0.5013880  
C    -7.0260950   -2.3594200   -0.8007830  
C    -6.7711470   -3.7178650   -0.7117890  
O    -7.7556870   -4.6150490   -0.9971580  
C    -5.4848560   -4.1943810   -0.3250230  
O    -5.3955370   -5.5725090   -0.2870470  
C    -4.4505620   -3.3319190   -0.0248300  
H    -2.8795820   -0.7790930    0.5053830  
H    -6.7070310    0.5347610   -0.6556370  
H    -8.0109260   -2.0145680   -1.0972890  
H    -7.3811430   -5.5052240   -0.8803580  
H    -4.4969460   -5.8332110   -0.0371870  
H    -3.4766860   -3.7220010    0.2656510  
C    -0.8660700    2.5275250    0.0586200  
C    -1.3677610    3.7978540    0.1530150  
C    -2.8041350    3.7184260    0.1502130  
C    -3.1324720    2.2854660    0.0542320  
N    -1.9250650    1.5997640    0.0659960  
C    -4.3990450    1.7577080   -0.0432570  
C    -5.4896270    2.7617840   -0.0965280  
O    -6.6595680    2.4710960   -0.3149530  
C    -5.1613890    4.2861140    0.1314180  
O    -6.1045000    5.0627470    0.1964600  
C    -3.7719870    4.6809480    0.2238480  
H    -0.7841190    4.7004370    0.2664140  
H    -3.5444050    5.7365080    0.3309460  
H    -1.8415080    0.7050330   -0.4016790  
C     1.5409740    2.7222350   -0.6479740  
C     0.5019330    2.0632850   -0.0208570  
C     1.0594620    0.8375130    0.5114670  
C     2.4349980    0.8287700    0.1808460  
N     2.6947940    1.9921680   -0.5168390  
C     3.3145380   -0.2243630    0.5330590  
C     2.7234750   -1.3001680    1.2118240  
O     3.4748220   -2.3821120    1.5736330  
C     1.3539000   -1.2879330    1.5733350  
O     0.9627770   -2.4130010    2.2676090  
C     0.5211550   -0.2348640    1.2470650  
H     3.5601440    2.1789940   -1.0022700  
H     2.8974650   -2.9803210    2.0824420  
H     0.0782440   -2.2838030    2.6416170  
H    -0.5199050   -0.2341950    1.5588830  
H     1.5292680    3.6494590   -1.2024630  
C     4.7391800   -0.1762170    0.2170990  
C     5.5536880    0.9177340    0.0291720  
C     6.8817480    0.4427480   -0.2617150  
C     6.7989200   -1.0386440   -0.2353730  
N     5.4812700   -1.3446670    0.0337680  
C     7.8518680   -1.8686430   -0.4450360  
C     9.1583470   -1.2765320   -0.7202420  
O    10.1621830   -1.9433990   -0.9203090  
C     9.2679360    0.2925980   -0.7608140  
O    10.3531450    0.8032360   -0.9949060  
C     8.0587160    1.0787740   -0.5156520  
H     5.2819850    1.9520210    0.1806910  
H     7.7731760   -2.9511360   -0.4204370  
H     8.1483450    2.1607010   -0.5416950  
H     5.1306270   -2.2561130    0.2896610  
