60


C    -4.4188190   -0.1619650   -2.7385320  
C    -5.5413670   -0.5361780   -2.0487080  
C    -5.1019600   -1.1921430   -0.8483870  
C    -3.6833210   -1.1771510   -0.8638890  
N    -3.2932760   -0.5258440   -2.0186280  
C    -2.8884320   -1.7620970    0.1455980  
C    -3.5791120   -2.3751550    1.1931460  
O    -2.8842950   -2.9267880    2.2252610  
C    -4.9972930   -2.3949100    1.2248530  
O    -5.5183540   -3.0259670    2.3410740  
C    -5.7607590   -1.8130480    0.2305210  
H    -6.5637240   -0.3674700   -2.3583910  
H    -2.3466010   -0.4964790   -2.3651900  
H    -3.5280180   -3.3889880    2.7900390  
H    -6.4655380   -3.1795870    2.2098260  
H    -6.8473780   -1.8408200    0.2832060  
H    -4.3191940    0.3467390   -3.6870510  
C    -0.0734850    1.5991510    0.0402380  
C     1.1114450    0.8944630   -0.0290890  
C     0.7985650   -0.5053200    0.0001340  
C    -0.6750690   -0.5974880    0.0780820  
N    -1.1397550    0.6987510    0.1022860  
C    -1.4107240   -1.7501070    0.1020850  
C    -0.6501810   -3.0093050    0.0211060  
O    -1.1754310   -4.1047480   -0.0699060  
C     0.9188230   -2.9447910    0.0289300  
O     1.5385350   -3.9859930    0.1575560  
C     1.5947680   -1.6268750   -0.0520000  
H     2.0880290    1.3429180   -0.0985100  
H    -2.1104250    0.9669110    0.1770830  
C     4.8253030    0.1253970    2.4893220  
C     3.6246620   -0.2358150    1.9683860  
C     3.8852970   -0.9828370    0.7551810  
C     5.3606230   -1.0356790    0.6174310  
N     5.8693200   -0.3234080    1.6864660  
C     6.0325310   -1.6933620   -0.3638150  
C     5.2573460   -2.3992710   -1.3718050  
O     5.7612920   -3.0467750   -2.2771490  
C     3.6913190   -2.3048300   -1.2971890  
O     3.0381360   -2.7470480   -2.2240900  
C     3.0585250   -1.6102350   -0.1404610  
H     2.6542250   -0.0068910    2.3808450  
H     7.1159310   -1.7368470   -0.4198510  
H     5.0419390    0.6852640    3.3894780  
H     6.8487270   -0.2581340    1.9150270  
C     2.7889540    4.9461560   -0.2165390  
C     1.9656280    6.0165980   -0.1718820  
C     0.6230460    5.4604000   -0.0606140  
C     0.8359310    3.9765240   -0.0525940  
N     2.1002270    3.6919220   -0.1419290  
C    -0.2863430    3.0348290    0.0448360  
C    -1.5282190    3.6155290    0.1333350  
O    -2.6774160    2.9200720    0.2335630  
C    -1.7549500    5.0926640    0.1279830  
O    -2.9216990    5.4847540    0.2104780  
C    -0.6063400    6.0028190    0.0254780  
H     2.2240590    7.0655150   -0.2109150  
H    -3.3894370    3.6015870    0.2724090  
H    -0.8112490    7.0690450    0.0242790  
H     3.8685630    4.9314300   -0.3008060  
