64


C     3.8637350   -1.5281190    2.7737790  
C     4.7583370   -2.4657830    2.3250280  
C     4.2095590   -3.0302540    1.1249610  
C     2.9706660   -2.3776190    0.8859970  
N     2.7875080   -1.4707840    1.9096200  
C     2.1142460   -2.6846120   -0.1994430  
C     2.5659610   -3.7164490   -1.0208030  
O     1.7931940   -4.1244190   -2.0933320  
C     3.7958860   -4.3826740   -0.8034420  
O     4.0607330   -5.3696640   -1.7364540  
C     4.6273600   -4.0500690    0.2473640  
H     5.6908720   -2.7359390    2.8011860  
H     1.9830210   -0.8680980    1.9942940  
H     2.2841800   -4.8349630   -2.5450290  
H     4.9243520   -5.7677760   -1.5533510  
H     5.5670010   -4.5764770    0.4003900  
H     3.8950730   -0.8980770    3.6520010  
C     1.0865040    1.7064630   -0.2642000  
C     1.7451820    0.4745020   -0.2616820  
C     0.7584430   -0.5485420   -0.3649940  
C    -0.5022420    0.1065360   -0.4521180  
N    -0.2692960    1.4563350   -0.3727460  
C    -1.7351970   -0.5633510   -0.6153920  
C    -1.6266810   -1.9526850   -0.7029190  
O    -2.7348740   -2.7185850   -0.8999770  
C    -0.3780240   -2.6352190   -0.6028490  
O    -0.4966670   -4.0066680   -0.6883190  
C     0.8300570   -1.9721200   -0.4076960  
H     2.8122420    0.3191620   -0.3139690  
H    -0.9538770    2.1987990   -0.4321280  
H    -2.4011470   -3.6338570   -0.9820350  
H     0.2237000   -4.3332310   -1.2710360  
C     4.9850470    3.2503550    1.0636230  
C     4.8081060    4.5674860    0.7800560  
C     3.4720080    4.7185340    0.2469450  
C     2.8841480    3.3669570    0.2275100  
N     3.8621010    2.5135290    0.7055190  
C     1.6083000    3.0553910   -0.1913410  
C     0.7665740    4.2170070   -0.5553570  
O    -0.4292240    4.1267100   -0.8072860  
C     1.4095150    5.6557920   -0.6221280  
O     0.7081630    6.5705280   -1.0314640  
C     2.7811190    5.8166370   -0.1814900  
H     5.5280600    5.3596700    0.9255630  
H     3.2124250    6.8122200   -0.2003160  
H     5.8429150    2.7458830    1.4882600  
H     3.6759620    1.5663290    1.0017030  
C    -3.1992430    1.3231730   -1.4600600  
C    -3.0064840    0.1704060   -0.7223340  
C    -4.2679200   -0.1001710   -0.0647820  
C    -5.1696070    0.9253870   -0.4467100  
N    -4.4919250    1.7707760   -1.3023960  
C    -6.4878550    0.9945720    0.0224770  
C    -6.9052950    0.0062960    0.8987600  
O    -8.1813710    0.0186120    1.3868570  
C    -6.0156760   -1.0268100    1.2954150  
O    -6.5764660   -1.9402360    2.1723310  
C    -4.7159440   -1.0898130    0.8322470  
H    -4.8722430    2.6018480   -1.7272540  
H    -7.1769210    1.7798780   -0.2713920  
H    -8.2709490   -0.7581930    1.9653920  
H    -5.9349390   -2.6437440    2.3498960  
H    -4.0612790   -1.9023360    1.1326760  
H    -2.5185680    1.8424770   -2.1202060  
