62


C     1.0609230    2.3147950   -0.0365880  
C     1.5479760    1.0112650    0.0801770  
C     2.9150530    1.0199510   -0.3105830  
C     3.2377090    2.3680280   -0.6476660  
N     2.1037020    3.1184820   -0.4745460  
C     4.5188840    2.7510800   -1.0591510  
C     5.4790290    1.7549220   -1.1339820  
O     6.7419210    2.0619540   -1.5317010  
C     5.1731750    0.3975060   -0.8154500  
O     6.2416380   -0.4493520   -0.9942680  
C     3.9058200   -0.0017490   -0.4031100  
H     1.0109320    0.1701830    0.4883980  
H     2.0026860    4.1246070   -0.5329260  
H     4.7786310    3.7734080   -1.3113180  
H     7.2566740    1.2352530   -1.5112780  
H     6.0357040   -1.3215190   -0.6139000  
C    -2.9416920    0.4008470    0.3369280  
C    -1.6197400    0.6541820    0.0839090  
C    -1.3918830    2.0513600    0.3352440  
C    -2.6912280    2.6140320    0.7359750  
N    -3.6086180    1.5682940    0.7004520  
C    -2.9256510    3.9088570    1.0774710  
C    -1.8194940    4.8405330    0.9770760  
O    -1.8958370    6.0261820    1.2615400  
C    -0.4432510    4.2980440    0.4404730  
O     0.4287440    5.1262630    0.2048500  
C    -0.2559780    2.8413360    0.2401330  
H    -0.9167240   -0.0484390   -0.3344500  
H    -3.8932910    4.2794490    1.3995290  
H    -4.4780780    1.5790290    1.2138510  
C    -2.9824340   -2.0522610    0.4903640  
C    -3.8590180   -3.0736790    0.3851100  
C    -5.1577160   -2.5114090    0.0726710  
C    -4.9677060   -1.0426990   -0.0115120  
N    -3.6145110   -0.8082060    0.2775210  
C    -5.9510120   -0.1727270   -0.3539180  
C    -7.2960360   -0.7009140   -0.6021410  
O    -8.2342440    0.0165010   -0.9074270  
C    -7.5250560   -2.2462420   -0.4694850  
O    -8.6421020   -2.7011340   -0.6490020  
C    -6.3675570   -3.0864550   -0.1420160  
H    -3.6344090   -4.1216700    0.5216110  
H    -5.8017450    0.8920020   -0.4875550  
H    -6.5215550   -4.1599870   -0.0917480  
H    -1.9286660   -2.0647160    0.7301660  
C     5.8084140   -3.0663170    2.3050280  
C     5.4841810   -1.9061790    1.6485580  
C     4.3661590   -2.2032760    0.7888300  
C     4.0541630   -3.5754770    0.9831940  
N     4.9507120   -4.0723560    1.9071510  
C     2.9927230   -4.2135080    0.3308690  
C     2.2333240   -3.4438720   -0.5341780  
O     1.1779110   -4.0044440   -1.1965720  
C     2.5314080   -2.0729240   -0.7545780  
O     1.6885910   -1.4794810   -1.6723340  
C     3.5914390   -1.4253470   -0.1174110  
H     5.9611580   -0.9464510    1.7884590  
H     4.9729020   -5.0230210    2.2416380  
H     2.7507870   -5.2611980    0.4769160  
H     0.8388530   -3.3262010   -1.8069800  
H     1.8840640   -0.5272070   -1.7228710  
H     6.5805310   -3.2591550    3.0362760  
