62


C     2.0531030    4.9709620    2.3569010  
C     1.6152030    3.8052320    1.7762020  
C     0.5577230    4.1534450    0.8751520  
C     0.3898730    5.5607680    0.9652310  
N     1.3206060    6.0293880    1.8679870  
C    -0.5831340    6.2632300    0.2491600  
C    -1.4208510    5.5355180   -0.5835410  
O    -2.3707850    6.1818740   -1.3130910  
C    -1.2901000    4.1310650   -0.6947530  
O    -2.1837500    3.5709320   -1.5794560  
C    -0.3106020    3.4115610    0.0169510  
H     1.9947260    2.8191910    1.9970120  
H     1.4334380    6.9936630    2.1402090  
H    -0.7001180    7.3401460    0.3144940  
H    -2.8187810    5.5158680   -1.8635280  
H    -1.9028420    2.6671540   -1.8093170  
H     2.8341850    5.1305800    3.0864390  
C    -0.1670090    1.9803900   -0.1473240  
C     0.9580710    1.1849870   -0.0739980  
C     0.5890800   -0.1755100   -0.2916860  
C    -0.8637490   -0.1604340   -0.4867500  
N    -1.2749980    1.1763280   -0.4970320  
C    -1.6620740   -1.2594130   -0.6196460  
C    -0.9871560   -2.5716460   -0.5853770  
O    -1.5676580   -3.6225560   -0.7756410  
C     0.5590830   -2.6090170   -0.3126310  
O     1.0358410   -3.7221030   -0.1082780  
C     1.3281850   -1.3597870   -0.3008500  
H     1.9538510    1.5537300    0.1023400  
H    -2.1988130    1.4008060   -0.1388340  
C     2.7760640   -1.3971530   -0.2459510  
C     3.7060920   -0.4154200   -0.5407140  
C     5.0146550   -0.9729370   -0.3666710  
C     4.8082300   -2.3818370    0.0545750  
N     3.4469850   -2.5665780    0.1184200  
C     5.8146380   -3.2569770    0.3107390  
C     7.1915000   -2.7944270    0.1702510  
O     8.1602920   -3.5098340    0.3808250  
C     7.4337740   -1.3035330   -0.2716090  
O     8.5834040   -0.9010280   -0.3887410  
C     6.2697460   -0.4588090   -0.5224180  
H     3.4971950    0.5740540   -0.9150500  
H     5.6457670   -4.2850050    0.6157590  
H     6.4481810    0.5674090   -0.8299280  
H     2.9462250   -3.4362110    0.2557220  
C    -3.5936070   -0.3768160   -1.9045410  
C    -4.9522120   -0.4917350   -1.8844490  
C    -5.2934150   -1.3807620   -0.8065850  
C    -4.0820310   -1.7953530   -0.2027050  
N    -3.0347240   -1.1641790   -0.8867520  
C    -4.0487480   -2.6371040    0.9137610  
C    -5.2623560   -3.0867270    1.4118750  
O    -5.2826080   -3.9164260    2.4923830  
C    -6.4864270   -2.6912900    0.8103810  
O    -7.6049370   -3.2192640    1.4218390  
C    -6.5142570   -1.8467530   -0.2841770  
H    -5.6368900   -0.0150530   -2.5729460  
H    -3.1290730   -2.9705610    1.3780310  
H    -6.2120710   -4.1432330    2.6681080  
H    -8.3971220   -2.9727280    0.9219040  
H    -7.4619570   -1.5440630   -0.7247140  
H    -2.9431260    0.1444620   -2.5916070  
