62


C     3.0561190    0.9630530    1.5390990  
C     3.9562890    0.3383890    0.6758810  
C     4.9472110    1.3529940    0.3400160  
C     4.5668100    2.5418140    1.0097240  
N     3.4191550    2.2615470    1.7368800  
C     5.2601380    3.7504880    0.8962060  
C     6.3786750    3.7659820    0.0767810  
O     7.1035750    4.9100080   -0.0684240  
C     6.7756190    2.5907380   -0.6115960  
O     7.9059190    2.7555740   -1.3876210  
C     6.0812490    1.4015660   -0.4945320  
H     2.9538130    2.9048150    2.3591730  
H     4.9589380    4.6538330    1.4165670  
H     7.8503520    4.7020600   -0.6570360  
H     8.1903670    1.8939440   -1.7280380  
H     6.4287380    0.5114670   -1.0054340  
H     2.2125930    0.5388570    2.0627390  
C     0.3843120   -2.2159180   -0.0799880  
C     1.2561420   -1.1615660    0.1198130  
C     2.5924050   -1.6716230    0.1047600  
C     2.4735960   -3.1233050   -0.1456540  
N     1.1310030   -3.3926800   -0.2176280  
C     3.5179610   -3.9894820   -0.2795910  
C     4.8554460   -3.4534610   -0.1969520  
O     5.8751180   -4.1180740   -0.3274520  
C     5.0252810   -1.9067020    0.0641490  
O     6.1635110   -1.4701530    0.1044960  
C     3.8230110   -1.0476930    0.2652440  
H     0.9448110   -0.1362920    0.2219210  
H     3.3897330   -5.0523890   -0.4571030  
H     0.7164160   -4.2900580   -0.4232440  
C    -2.4933590    1.0797910    0.3194570  
C    -3.6923030    0.4457480    0.1689860  
C    -3.3161450   -0.9676000   -0.0515610  
C    -1.8301830   -0.9782570    0.0162300  
N    -1.3695910    0.2216590    0.2419400  
C    -1.0580260   -2.2129040   -0.1605280  
C    -1.8051300   -3.3424980   -0.4171120  
O    -1.2701780   -4.5724980   -0.6112870  
C    -3.2790290   -3.3440650   -0.5167230  
O    -3.8389990   -4.4240510   -0.7562610  
C    -4.0180870   -2.0876980   -0.3211610  
H    -2.0519840   -5.1530240   -0.7741830  
H    -5.1003480   -2.1277740   -0.3875920  
H    -2.3294270    2.1355810    0.4950000  
C    -5.3126880    4.0692930   -1.9173960  
C    -4.4945390    3.0749560   -1.4451330  
C    -5.2942350    2.2305230   -0.6043870  
C    -6.6092710    2.7691200   -0.6126560  
N    -6.5870120    3.8910930   -1.4154300  
C    -7.6752820    2.1907750    0.0830780  
C    -7.4072330    1.0399300    0.8100440  
O    -8.4024620    0.4477760    1.5300900  
C    -6.1073360    0.4794970    0.8285480  
O    -6.0081170   -0.6587170    1.6148090  
C    -5.0341530    1.0399730    0.1310200  
H    -3.4472830    2.9544350   -1.6808000  
H    -7.3814080    4.4780040   -1.6161290  
H    -8.6775760    2.6066530    0.0841700  
H    -8.0016050   -0.3015840    2.0047670  
H    -5.0852910   -0.7782610    1.8885830  
H    -5.0922630    4.8983230   -2.5748970  
