60


C    -4.0960700   -2.2357110    1.5104120  
C    -4.5753010   -1.2284340    0.6861470  
C    -5.9427350   -1.5837770    0.3552770  
C    -6.2198910   -2.8042210    1.0170630  
N    -5.0738450   -3.1691100    1.7068020  
C    -7.4485440   -3.4651590    0.9181250  
C    -8.4238020   -2.8827740    0.1236250  
O    -9.6377900   -3.4820810   -0.0074530  
C    -8.1602210   -1.6693240   -0.5678450  
O    -9.2185570   -1.2280960   -1.3314070  
C    -6.9419770   -1.0212620   -0.4650500  
H    -4.9834760   -3.9865320    2.2914040  
H    -7.6568800   -4.4021260    1.4239090  
H   -10.1684110   -2.9412030   -0.6179800  
H    -8.9591530   -0.4439650   -1.8378640  
H    -6.7596080   -0.1148360   -1.0370370  
H    -3.1339890   -2.3239150    1.9942490  
C    -3.8278970   -0.0644930    0.2890700  
C    -2.4675710    0.1309470    0.1875080  
C    -2.2245910    1.4895960   -0.1891200  
C    -3.5599600    2.1179870   -0.3013580  
N    -4.4905310    1.1159140   -0.0743020  
C    -3.7898940    3.4285600   -0.5628560  
C    -2.6379370    4.2923300   -0.7638460  
O    -2.7277900    5.4894880   -0.9873900  
C    -1.2019860    3.6518020   -0.6922320  
O    -0.2507940    4.3977750   -0.8777050  
C    -1.0593470    2.2083960   -0.4128070  
H    -1.7213930   -0.6331980    0.3386110  
H    -4.7828160    3.8625880   -0.6286370  
H    -5.4327780    1.3135660    0.2317330  
C     0.5561440    0.3154060   -0.8541800  
C     0.2532630    1.5749640   -0.4167330  
C     1.5516460    2.0836180    0.0896030  
C     2.5105070    0.9593140   -0.1268180  
N     1.9071020   -0.0531950   -0.6891220  
C     3.9251040    1.0260120    0.2508680  
C     4.3134130    2.2089970    0.8498940  
O     5.5394660    2.5045320    1.2722000  
C     3.3468610    3.3406910    1.0922360  
O     3.7926390    4.3464580    1.6454920  
C     1.9427830    3.2293870    0.6735810  
H     5.4611950    3.4164510    1.6429060  
H     1.3042110    4.0894730    0.8279260  
H    -0.1133210   -0.3881240   -1.3329140  
C     4.8179560   -0.0917340    0.0074150  
C     4.5523650   -1.2718420   -0.6417770  
C     5.7806030   -2.0269870   -0.6060420  
C     6.7385260   -1.1417470    0.1311630  
N     6.1843260   -0.0249910    0.4861070  
C     8.1000840   -1.5479100    0.3824800  
C     8.4865200   -2.7611160   -0.0744640  
O     9.7172140   -3.2739730    0.0817260  
C     7.5421830   -3.6751940   -0.8222060  
O     7.9923770   -4.7606440   -1.1945400  
C     6.1631260   -3.2428270   -1.0651480  
H     3.6141960   -1.5671260   -1.0815840  
H     8.7740240   -0.8890070    0.9185690  
H     9.6806950   -4.1552430   -0.3545680  
H     5.5138480   -3.9257730   -1.6044480  
