60


C     5.4868430   -0.8026680    2.3116350  
C     6.8321460   -0.9977950    2.2770640  
C     7.2706910   -0.7535660    0.9273160  
C     6.1257680   -0.4297540    0.1612260  
N     5.0173860   -0.4693010    1.0297340  
C     6.2142630   -0.0609570   -1.1844510  
C     7.4708740   -0.0625220   -1.7727000  
O     7.5985000    0.2783910   -3.0869210  
C     8.6228610   -0.4123650   -1.0242500  
O     9.7967520   -0.3682400   -1.7466720  
C     8.5352520   -0.7519240    0.3144500  
H     7.4476130   -1.3032440    3.1123570  
H     5.3545810    0.1968640   -1.7883560  
H     8.5409280    0.2052600   -3.3160460  
H    10.5357850   -0.6467950   -1.1857760  
H     9.4301360   -0.9972260    0.8825490  
H     4.7779300   -0.9246940    3.1163690  
C     1.9658040    1.9093760    3.1395370  
C     3.1620690    1.3632300    2.8102680  
C     2.9078160    0.5970550    1.5955970  
C     1.4616670    0.8010890    1.3325380  
N     0.9182580    1.5688980    2.2386150  
C     0.7775910    0.2067090    0.1905920  
C     1.5526500   -0.5362240   -0.6492080  
O     1.0886720   -1.0983060   -1.7757980  
C     3.0107980   -0.7793910   -0.4158530  
O     3.5925620   -1.5232110   -1.1997100  
C     3.6871370   -0.1513170    0.7669810  
H     4.1111170    1.4816200    3.3124940  
H     1.8302700   -1.6313870   -2.1354330  
H     1.7376130    2.5577700    3.9769180  
C    -1.9973550    3.6876070   -0.1629260  
C    -0.9096190    2.8941400    0.0013080  
C    -1.3558040    1.5223210   -0.0918450  
C    -2.8122030    1.5815550   -0.3423920  
N    -3.1325560    2.9198930   -0.4070760  
C    -3.6647190    0.5065360   -0.4801790  
C    -3.0269790   -0.8144290   -0.3487600  
O    -3.6363990   -1.8683010   -0.4399730  
C    -1.4766540   -0.9066200   -0.0870240  
O    -1.0074970   -2.0158010    0.0929970  
C    -0.6749450    0.3330470   -0.0157650  
H     0.0988210    3.2185400    0.1993390  
H    -2.0735570    4.7664760   -0.1418670  
H    -4.0828360    3.2608370   -0.3941010  
C    -5.6723720    1.6341600   -1.5429660  
C    -5.0798940    0.6525460   -0.7883800  
C    -6.2317230   -0.1661790   -0.3231790  
C    -7.4198160    0.5140740   -0.9072030  
N    -7.0777320    1.5530460   -1.6247290  
C    -8.7595430    0.0414670   -0.6842380  
C    -8.9242670   -1.0500010    0.1010530  
O   -10.1139380   -1.5955660    0.4023470  
C    -7.7497170   -1.7510820    0.7179210  
O    -7.9744330   -2.7291490    1.4289410  
C    -6.3790360   -1.2550480    0.4550930  
H    -9.5971860    0.5627370   -1.1342210  
H    -9.9078690   -2.3625990    0.9809800  
H    -5.5591830   -1.8184940    0.8822870  
H    -5.1728930    2.4096340   -2.1125470  
