62


C    -6.0098030    3.1761090    1.5568800  
C    -7.2584250    2.6453850    1.7446830  
C    -7.2284480    1.3033470    1.2344120  
C    -5.9151410    1.0718800    0.7489750  
N    -5.1940880    2.2289330    0.9627690  
C    -5.5188100   -0.1379090    0.1357060  
C    -6.4994980   -1.1291940    0.0403140  
O    -6.1779490   -2.3422490   -0.4856730  
C    -7.8127820   -0.9147230    0.5299270  
O    -8.6481760   -2.0052470    0.3692810  
C    -8.1868690    0.2776190    1.1192730  
H    -8.1039840    3.1504350    2.1910630  
H    -4.2397620    2.3750700    0.6743040  
H    -7.0028850   -2.8530480   -0.5601790  
H    -9.5582530   -1.7475510    0.5773430  
H    -9.2018330    0.4162100    1.4864630  
H    -5.6224860    4.1552950    1.8006860  
C    -1.4718800    0.0692320    1.9500290  
C    -2.8080060    0.0793010    1.7294290  
C    -3.0206580   -0.2197580    0.3258550  
C    -1.6756720   -0.4246780   -0.2571620  
N    -0.7578070   -0.2059790    0.7732100  
C    -1.4372250   -0.8187310   -1.5352120  
C    -2.5810930   -1.0108390   -2.4160730  
O    -2.4797920   -1.4115900   -3.5657710  
C    -4.0113270   -0.6754780   -1.8603060  
O    -4.9426770   -0.6483330   -2.6417100  
C    -4.1661650   -0.3548320   -0.4115820  
H    -3.5774070    0.2709010    2.4620630  
H    -0.4469520   -1.0300490   -1.9226510  
H    -0.9166160    0.2510030    2.8603410  
C     1.4323120   -1.0841660    1.5306400  
C     0.6355170   -0.3540450    0.7084350  
C     1.5563070    0.3733830   -0.1796880  
C     2.9124740   -0.0618580    0.2798360  
N     2.8143980   -0.9209630    1.2630300  
C     4.1371110    0.4276160   -0.3304710  
C     3.9602750    1.2548920   -1.4109260  
O     4.9668200    1.7318230   -2.1526730  
C     2.6157620    1.7191370   -1.8761180  
O     2.5663010    2.4785530   -2.8435880  
C     1.3959850    1.2384370   -1.1943920  
H     4.5433890    2.2981130   -2.8353780  
H     0.4389940    1.5742610   -1.5800780  
H     1.1243390   -1.7422580    2.3344570  
C     6.0571240   -3.4629110    0.7416020  
C     7.3144240   -2.9780320    0.9833710  
C     7.2503530   -1.5528570    0.8205530  
C     5.9150360   -1.2359680    0.4576060  
N     5.2157310   -2.4241050    0.3820840  
C     5.4813220    0.0833580    0.1847170  
C     6.4355860    1.0908260    0.3926740  
O     6.0878650    2.4011930    0.2653800  
C     7.7695370    0.7825730    0.7619540  
O     8.5755120    1.8998600    0.9008100  
C     8.1931000   -0.5162160    0.9550170  
H     8.1874870   -3.5617130    1.2415530  
H     4.2104780   -2.4428670    0.4998860  
H     6.8963290    2.9237760    0.4091520  
H     9.4676740    1.6235160    1.1562970  
H     9.2257060   -0.7275500    1.2261750  
H     5.6823800   -4.4762330    0.7826620  
