62


C    -0.1992730   -0.1278900   -1.5492050  
C    -0.5736840   -0.8121890   -2.6779630  
C    -1.9722140   -1.0930270   -2.5361550  
C    -2.3899310   -0.5441310   -1.2947320  
N    -1.2745060   -0.0050340   -0.6859470  
C    -3.7195320   -0.6023250   -0.8109210  
C    -4.6186800   -1.2455010   -1.6678470  
O    -5.9400190   -1.3741510   -1.3173920  
C    -4.2159530   -1.8075190   -2.9073580  
O    -5.2516410   -2.4100890   -3.5994030  
C    -2.9120100   -1.7484060   -3.3523890  
H     0.0669730   -1.0691290   -3.5101020  
H    -1.3420980    0.6832310    0.0521360  
H    -6.3989770   -1.7492570   -2.0909130  
H    -4.9625870   -2.6196940   -4.4997270  
H    -2.6252980   -2.1928620   -4.3026380  
C     2.2486710   -0.3405160   -1.2006690  
C     3.3038890    0.4359890   -0.8232540  
C     2.7915260    1.7677930   -0.5438900  
C     1.3390780    1.7007070   -0.8190180  
N     1.0598640    0.3833960   -1.1909990  
C     0.4937230    2.7562840   -0.7147400  
C     1.0382990    4.0380370   -0.2664570  
O     0.3483330    5.0352510   -0.1249050  
C     2.5751220    4.1232360    0.0525940  
O     3.0464490    5.1840340    0.4278610  
C     3.3866570    2.9130300   -0.1216940  
H    -0.5656920    2.6973920   -0.9394530  
H     4.4476110    2.9801450    0.0982910  
H     2.2293360   -1.3877870   -1.4688750  
C     5.7263720    0.6207450   -1.3664870  
C     6.9009380    0.0358050   -1.0299890  
C     6.6052270   -1.0118340   -0.0752150  
C     5.1350640   -0.9862560    0.1249650  
N     4.6443580    0.0324780   -0.6930120  
C     4.4630430   -1.8172820    0.9599230  
C     5.2257260   -2.8099720    1.7150720  
O     4.7050460   -3.5958980    2.4912710  
C     6.7833460   -2.8627650    1.5091090  
O     7.4345220   -3.6936420    2.1221410  
C     7.3913680   -1.9040980    0.5821180  
H     7.8785470    0.2988230   -1.4072370  
H     3.3883730   -1.7810510    1.1023410  
H     8.4688610   -1.9415850    0.4534300  
H     5.5313830    1.4316390   -2.0556560  
C    -6.0555560   -2.4267830    2.5011270  
C    -5.9214750   -1.4141170    3.4118210  
C    -5.1686280   -0.3740290    2.7698090  
C    -4.8654170   -0.8269560    1.4565900  
N    -5.3891510   -2.0985560    1.3342840  
C    -4.1092920   -0.0732100    0.5245870  
C    -3.7014420    1.1864720    0.9808070  
O    -2.9625220    2.0230990    0.1697860  
C    -3.9979550    1.6501030    2.2854990  
O    -3.4913200    2.9113010    2.5502180  
C    -4.7141230    0.8888660    3.1869250  
H    -6.2998970   -1.4082960    4.4247520  
H    -5.5924420   -2.5073380    0.4330000  
H    -2.8949820    2.8746830    0.6409970  
H    -3.8801810    3.2536710    3.3683860  
H    -4.9161640    1.2593090    4.1896460  
H    -6.5648340   -3.3766840    2.5869330  
