60


C     4.0616460   -0.3307970   -0.0641580  
C     3.8375580   -1.6836180   -0.3302250  
C     5.0895580   -2.3388690   -0.2771290  
C     6.0743790   -1.3427990    0.0288250  
N     5.4221270   -0.1495100    0.1499140  
C     7.4360180   -1.6475730    0.1577190  
C     7.8126990   -2.9670270   -0.0231960  
O     9.1187890   -3.3214850    0.0889200  
C     6.8440700   -3.9753030   -0.3293790  
O     7.3944980   -5.2307400   -0.4755980  
C     5.5064880   -3.6804750   -0.4562740  
H     2.8747030   -2.1298620   -0.5374870  
H     5.8061050    0.7621090    0.3580060  
H     8.1872510   -0.9000200    0.3884130  
H     9.1782150   -4.2792010   -0.0748740  
H     6.7000770   -5.8697800   -0.6949000  
H     4.7857610   -4.4611130   -0.6895420  
C     3.1883700    0.7899540    0.0126020  
C     1.8235510    0.8825580   -0.1584960  
C     1.4992650    2.2560390    0.0372660  
C     2.8230050    2.9143160    0.3270440  
N     3.8019480    2.0559190    0.3111060  
C     2.9328330    4.3251610    0.5692290  
C     1.7904070    5.0483060    0.5218720  
O     1.7243000    6.3665370    0.7309090  
C     0.4355920    4.4232260    0.2356210  
O    -0.5252900    5.1973170    0.2685480  
C     0.3364610    2.9859150   -0.0289460  
H     1.1337920    0.0806600   -0.3736760  
H     3.8970570    4.7747450    0.7778790  
H     0.7650510    6.5816750    0.6411110  
C    -2.0070300   -0.1154360    2.0225090  
C    -3.1433000   -0.1908560    1.2759520  
C    -2.9364710    0.8104200    0.2096400  
C    -1.5816020    1.3759300    0.4924950  
N    -1.0580850    0.8332060    1.5556630  
C    -0.9922060    2.4191390   -0.3307090  
C    -1.7606370    2.8774150   -1.3621910  
O    -1.3512250    3.8137560   -2.2297390  
C    -3.1347010    2.3516740   -1.6448660  
O    -3.7488850    2.8279270   -2.5983300  
C    -3.6983130    1.2838620   -0.7920490  
H    -2.1054510    3.9502680   -2.8445960  
H    -4.6986110    0.9353510   -1.0286780  
H    -1.7628320   -0.7022860    2.9006490  
C    -4.9330760   -1.1797150    2.7367390  
C    -4.3277740   -1.0013500    1.5238550  
C    -5.0783900   -1.8193310    0.5706270  
C    -6.1657910   -2.4721640    1.3427050  
N    -6.0069420   -2.0532320    2.6497780  
C    -7.0928130   -3.3093040    0.8129950  
C    -7.0191150   -3.6143550   -0.6133180  
O    -7.8109510   -4.3512720   -1.1798080  
C    -5.8535600   -2.9658810   -1.4451700  
O    -5.7567840   -3.2258220   -2.6334510  
C    -4.9197040   -2.0674150   -0.7554050  
H    -7.8810730   -3.7738850    1.3974730  
H    -4.1187860   -1.6322680   -1.3441780  
H    -4.6776200   -0.7263330    3.6854230  
H    -6.6370970   -2.2744000    3.4050300  
