60


C     4.5590900   -0.7677160   -0.3354180  
C     5.2094140   -1.6549850   -1.1840770  
C     6.5891150   -1.6589830   -0.8402460  
C     6.7508430   -0.7506660    0.2452150  
N     5.5145480   -0.1952170    0.5071750  
C     7.9847580   -0.5209780    0.8600340  
C     9.0815310   -1.2101260    0.3635120  
O    10.3057070   -1.0257770    0.9230030  
C     8.9440050   -2.1099780   -0.7347980  
O    10.1307870   -2.7039760   -1.1070900  
C     7.7247910   -2.3369650   -1.3375850  
H     4.7395330   -2.1938070   -1.9954530  
H     5.2845270    0.2853370    1.3641010  
H     8.1144800    0.1662560    1.6894840  
H    10.9379280   -1.5836650    0.4365750  
H     9.9801540   -3.2981280   -1.8573700  
H     7.6401190   -3.0295700   -2.1720490  
C     2.0799910   -1.1391500   -0.6735340  
C     3.1689360   -0.4166940   -0.2663190  
C     2.5883900    0.8555010    0.2364850  
C     1.1278170    0.6917210    0.0546850  
N     0.8561480   -0.4701590   -0.4858200  
C     0.1728860    1.7314490    0.4185230  
C     0.7123630    2.8710070    0.9593540  
O    -0.0201590    3.9005330    1.4271880  
C     2.1769030    3.0751240    1.1102330  
O     2.5682300    4.1359610    1.6066120  
C     3.1089280    2.0083570    0.6957640  
H     0.6398280    4.5593860    1.7417660  
H     4.1693030    2.2202440    0.7908510  
H     2.0727140   -2.1379750   -1.0911240  
C    -1.8664450    0.2909740    0.3254870  
C    -1.2608090    1.5076640    0.2184560  
C    -2.3024070    2.4555670   -0.1821690  
C    -3.5679730    1.6869080   -0.2590710  
N    -3.2380210    0.3482880    0.0727710  
C    -4.7599400    2.2216750   -0.6093610  
C    -4.8118200    3.6481230   -0.9526290  
O    -5.8506670    4.2056970   -1.2666740  
C    -3.4803880    4.4649290   -0.9256940  
O    -3.4937230    5.6449390   -1.2384210  
C    -2.2561700    3.7686820   -0.5192580  
H    -5.6683190    1.6381680   -0.6556970  
H    -1.3443020    4.3491450   -0.4805300  
H    -1.4045310   -0.6538520    0.5569590  
C    -4.0535430   -0.7573140    0.1468430  
C    -3.6800650   -2.0581720    0.4244260  
C    -4.8959780   -2.8018010    0.3866740  
C    -5.9546110   -1.7775490    0.0647530  
N    -5.4414290   -0.5842930   -0.0725790  
C    -7.3378870   -2.1278860   -0.0623800  
C    -7.6598970   -3.4327020    0.1174760  
O    -8.8960020   -3.9213940    0.0328100  
C    -6.6159880   -4.4975320    0.4422720  
O    -7.0481920   -5.6460100    0.5803120  
C    -5.2249500   -4.1133380    0.5665900  
H    -2.6938430   -2.4519930    0.6166150  
H    -8.0795440   -1.3716580   -0.2933500  
H    -8.7951290   -4.8878120    0.2120220  
H    -4.5048350   -4.8910630    0.7989990  
