64


C    -0.7378200   -1.3766550    0.1737110  
C    -1.2152900   -2.6853380    0.0462760  
C    -2.6221730   -2.6194650   -0.1017000  
C    -2.9811480   -1.2380740   -0.0709940  
N    -1.8280450   -0.5208080    0.1003960  
C    -4.3168990   -0.7768430   -0.1683300  
C    -5.2719740   -1.7849900   -0.2774740  
O    -6.6086920   -1.4546520   -0.3439980  
C    -4.9363120   -3.1665820   -0.3155920  
O    -6.0375670   -3.9929880   -0.4361990  
C    -3.6322480   -3.5982340   -0.2377710  
H    -0.6116060   -3.5790060    0.0080940  
H    -1.7289600    0.4870630    0.0726040  
H    -7.1058640   -2.2871650   -0.4439240  
H    -5.7487310   -4.9155210   -0.4962380  
H    -3.3910070   -4.6584380   -0.2626230  
C     3.0972540   -3.2919740    1.4223090  
C     1.7818770   -3.0218550    1.2098200  
C     1.6927550   -1.6704820    0.7029710  
C     3.0747630   -1.1674330    0.6410420  
N     3.8725550   -2.1924700    1.0818070  
C     3.4954960    0.0909900    0.2323230  
C     2.4244220    1.0264110   -0.0031000  
O     2.5731990    2.2361420   -0.2190220  
C     0.9276090    0.5342880    0.0462500  
O     0.0700860    1.3888820   -0.1160820  
C     0.6141400   -0.8920090    0.3186790  
H     0.9565920   -3.6731840    1.4474320  
H     3.5655940   -4.1831740    1.8172490  
H     4.8815420   -2.1580060    1.0591620  
C     6.9644910   -2.0064240   -1.7354930  
C     5.7117300   -1.6391210   -1.3127550  
C     5.8511460   -0.4200350   -0.5566250  
C     7.2333350   -0.0939150   -0.5730420  
N     7.8852240   -1.0843140   -1.2812540  
C     7.7546670    1.0658620    0.0112540  
C     6.8457090    1.9260370    0.6031150  
O     7.2673320    3.0876480    1.1705650  
C     5.4544410    1.6278340    0.6441860  
O     4.7108290    2.5789580    1.2971970  
C     4.9288330    0.4482770    0.1070370  
H     4.7948140   -2.1601910   -1.5474850  
H     8.8710760   -1.0916170   -1.4905750  
H     8.8098930    1.3181550   -0.0114180  
H     6.4540510    3.5324310    1.4805240  
H     3.8774150    2.7020490    0.7765590  
H     7.2783900   -2.8508270   -2.3328070  
C    -2.7443750    2.7734410   -2.4363640  
C    -3.0259630    1.5019350   -2.0103450  
C    -3.9855700    1.6115240   -0.9435040  
C    -4.2608480    2.9966790   -0.7840030  
N    -3.4872800    3.6768230   -1.7014340  
C    -5.1884680    3.4910030    0.1396540  
C    -5.8676840    2.5575200    0.9048040  
O    -6.8041060    2.9596340    1.8098010  
C    -5.6093610    1.1666830    0.7737320  
O    -6.3474870    0.3762800    1.6352490  
C    -4.6564840    0.6675490   -0.1165630  
H    -2.6049920    0.5943420   -2.4175070  
H    -3.4559320    4.6786980   -1.8045960  
H    -5.4007390    4.5488530    0.2566800  
H    -7.1496690    2.1369020    2.2056030  
H    -6.7084180   -0.3703410    1.1136390  
H    -2.0697000    3.1155210   -3.2081110  
