64


C     2.1003730   -1.0311670   -0.3801020  
C     3.3678520   -0.5350800   -0.5490750  
C     3.3003810    0.8690270   -0.1959180  
C     1.9652100    1.1543410    0.1768390  
N     1.2278800   -0.0264190    0.0391870  
C     1.5666630    2.4196580    0.6246250  
C     2.5233390    3.4249810    0.6474150  
O     2.1800280    4.6760340    1.0704050  
C     3.8550120    3.1649020    0.2352820  
O     4.6890550    4.2646290    0.3026540  
C     4.2512930    1.9057820   -0.1796780  
H     0.5574250    2.6407410    0.9512630  
H     2.9724960    5.2345010    0.9912200  
H     5.5530660    4.0371110   -0.0717050  
H     5.2789210    1.7191470   -0.4820520  
H     1.7224110   -2.0303700   -0.5407420  
C    -0.6503870   -1.2939880    1.0340990  
C    -0.1124400   -0.2395300    0.3675810  
C    -1.2697820    0.5545960   -0.0918290  
C    -2.4454700   -0.1824910    0.4427500  
N    -2.0673870   -1.2585490    1.0787700  
C    -3.8239340    0.2745960    0.2272610  
C    -3.9429960    1.3997650   -0.5512940  
O    -5.1278030    2.0020150   -0.8272170  
C    -2.7923290    2.1049190   -1.1484080  
O    -3.0068240    3.1173960   -1.8285580  
C    -1.4169870    1.6240690   -0.8903030  
H    -4.8776080    2.7818340   -1.3722020  
H    -0.5995050    2.1802510   -1.3378480  
H    -0.1259460   -2.1165130    1.5039950  
C    -4.8396550   -1.1760330    2.0051880  
C    -4.9367770   -0.4594270    0.8191150  
C    -6.3069280   -0.6343050    0.3589580  
C    -6.9626700   -1.4515420    1.3139230  
N    -6.0423960   -1.7484580    2.3055630  
C    -8.2926670   -1.8657410    1.1938760  
C    -8.9896790   -1.4536620    0.0686010  
O   -10.2917730   -1.8243350   -0.1042800  
C    -8.3519030   -0.6494550   -0.9086470  
O    -9.1651470   -0.3211810   -1.9786840  
C    -7.0355450   -0.2446880   -0.7828390  
H    -6.2217440   -2.3273760    3.1114030  
H    -8.7830230   -2.4904960    1.9335380  
H   -10.5915230   -1.4281700   -0.9407420  
H    -8.6840590    0.2725700   -2.5738490  
H    -6.5826100    0.3853090   -1.5397340  
H    -3.9800400   -1.3158810    2.6398190  
C     4.5734520   -2.0942190   -2.1413380  
C     4.5334470   -1.2753520   -1.0342220  
C     5.8587110   -1.3174360   -0.4541190  
C     6.6467970   -2.1762040   -1.2624110  
N     5.8349340   -2.6382280   -2.2793640  
C     7.9894290   -2.4596480   -0.9812970  
C     8.5461940   -1.8708190    0.1433320  
O     9.8511620   -2.1135100    0.4647340  
C     7.7685020   -1.0205670    0.9732080  
O     8.4603080   -0.5153830    2.0605510  
C     6.4438090   -0.7420660    0.6921100  
H     6.1264180   -3.2487660   -3.0261970  
H     8.5941430   -3.1183760   -1.5964580  
H    10.0330360   -1.6408530    1.2952640  
H     7.8432230   -0.0514080    2.6454650  
H     5.8643410   -0.0957260    1.3473750  
H     3.7954390   -2.3105480   -2.8598610  
