60


C    -3.3156720    2.4833560    2.4046810  
C    -2.1087270    2.1219600    1.8529780  
C    -1.7851570    3.0991790    0.8423240  
C    -2.8451780    4.0436200    0.8480830  
N    -3.7663240    3.6318270    1.7918130  
C    -2.8577830    5.1878530    0.0433770  
C    -1.7530540    5.3932590   -0.7657460  
O    -1.6796060    6.4946780   -1.5551200  
C    -0.6737780    4.4650650   -0.8037350  
O     0.3115840    4.8144240   -1.6889910  
C    -0.6778470    3.2873200   -0.0472740  
H    -1.4938640    1.2967850    2.1827910  
H    -4.6050320    4.1341910    2.0385550  
H    -3.6649690    5.9127760    0.0569070  
H    -0.8107180    6.4450880   -1.9992020  
H     1.1793890    4.5823400   -1.2749940  
H    -3.8779300    2.0291230    3.2085490  
C    -1.1054450   -1.0237680   -0.4461570  
C     0.2158720   -1.4029010   -0.4869240  
C     1.0201370   -0.2155690   -0.4146130  
C     0.0775080    0.9115830   -0.3088730  
N    -1.1760130    0.3653370   -0.3656900  
C     0.3772540    2.2561520   -0.1830970  
C     1.7948520    2.5487230   -0.2356390  
O     2.2776340    3.6814440   -0.3167480  
C     2.8404210    1.3718720   -0.1725070  
O     4.0005070    1.6866740    0.0233660  
C     2.3969730   -0.0304030   -0.3828860  
H     0.5728570   -2.4210350   -0.4784420  
H    -2.0188770    0.9209550   -0.3829130  
C     3.1453970   -2.2103580   -1.3837950  
C     3.3454960   -1.0982850   -0.5902210  
C     4.7134600   -1.3110320   -0.0434460  
C     5.1317250   -2.6177270   -0.6228330  
N     4.2080390   -3.1155160   -1.4128250  
C     6.3980000   -3.2219970   -0.3294340  
C     7.2269590   -2.5721810    0.5255150  
O     8.4348980   -3.0190370    0.8936110  
C     6.8333490   -1.2627000    1.1454220  
O     7.6265330   -0.7353810    1.9221140  
C     5.5244890   -0.6553830    0.8092290  
H     6.6600630   -4.1723050   -0.7809150  
H     8.7875800   -2.3438690    1.5148700  
H     5.2993480    0.3055610    1.2523570  
H     2.2841610   -2.4053360   -2.0107440  
C    -2.3063920   -1.8138450   -0.3860730  
C    -2.5279750   -3.1081130   -0.7793390  
C    -3.9028170   -3.4267470   -0.4960060  
C    -4.4922630   -2.2089110    0.1123920  
N    -3.4946360   -1.2430890    0.1040110  
C    -5.7640500   -2.1222780    0.5711600  
C    -6.6329680   -3.2912740    0.4364490  
O    -7.7914840   -3.3036910    0.8208090  
C    -6.0419270   -4.5794740   -0.2437730  
O    -6.7569820   -5.5606010   -0.3759510  
C    -4.6451230   -4.5532850   -0.6841280  
H    -1.8102630   -3.7524140   -1.2666690  
H    -6.1779470   -1.2256150    1.0219980  
H    -4.2415760   -5.4538780   -1.1367010  
H    -3.4987700   -0.4526200    0.7379810  
