60


C    -7.6886810    1.5897000   -1.1288280  
C    -8.4524910    0.4814600   -0.8774380  
C    -7.5737400   -0.5263950   -0.3556320  
C    -6.2729230    0.0381050   -0.3056400  
N    -6.3743040    1.3277820   -0.7822340  
C    -5.1326210   -0.6914000    0.1115790  
C    -5.3593930   -2.0179340    0.5058310  
O    -4.3276460   -2.7550720    0.9915750  
C    -6.6571320   -2.5856430    0.4729710  
O    -6.6963650   -3.8934170    0.9131660  
C    -7.7559940   -1.8633030    0.0489030  
H    -9.5159320    0.3884230   -1.0485730  
H    -5.6031560    1.9666130   -0.8958360  
H    -4.6562270   -3.6603390    1.1348090  
H    -7.5822890   -4.2598220    0.7750600  
H    -8.7425530   -2.3217290    0.0305040  
H    -7.9667080    2.5560820   -1.5247390  
C    -3.3517900    2.9868520    1.8826620  
C    -4.1923060    1.9912110    1.5130550  
C    -3.4280900    1.0585520    0.7023770  
C    -2.0620200    1.6061250    0.6284950  
N    -2.0849410    2.7851740    1.3241200  
C    -0.9698790    0.9990580    0.0266290  
C    -1.2148500   -0.3479760   -0.4884130  
O    -0.3335380   -1.1256190   -0.8464570  
C    -2.6939910   -0.8417660   -0.6270490  
O    -2.9110380   -1.7566570   -1.3951630  
C    -3.7760310   -0.1350660    0.1194940  
H    -5.2305540    1.8883520    1.7892700  
H    -3.5311290    3.8529890    2.5048170  
H    -1.2434500    3.2653370    1.6126630  
C     0.3473770    1.5991240   -0.0273890  
C     0.7489270    2.9179820    0.0974930  
C     2.1762290    2.9639460   -0.0591570  
C     2.6095190    1.5669030   -0.2910470  
N     1.4642380    0.8049280   -0.2631570  
C     3.9028410    1.1579050   -0.4884040  
C     4.9283160    2.2207470   -0.4710020  
O     6.1129880    1.9997790   -0.6654820  
C     4.4865600    3.7104050   -0.2104030  
O     5.3551250    4.5703670   -0.1682370  
C     3.0720140    3.9934520   -0.0273740  
H     0.1095530    3.7860870    0.1643220  
H     2.7771030    5.0249840    0.1390050  
H     1.3823500   -0.1938640   -0.4038880  
C     3.5949260   -1.0791760   -1.6141670  
C     4.2620910   -0.2373520   -0.7669680  
C     5.3487400   -1.0324900   -0.1808550  
C     5.2336960   -2.3923380   -0.7647680  
N     4.1583760   -2.3456910   -1.6285900  
C     6.0482160   -3.4381070   -0.4698240  
C     7.1129950   -3.2328490    0.5035910  
O     7.8946800   -4.1107260    0.8387420  
C     7.2439270   -1.8077860    1.1532410  
O     8.1096600   -1.6181840    1.9922700  
C     6.3114710   -0.7525700    0.7328260  
H     5.9407680   -4.4211090   -0.9182200  
H     6.4446980    0.2323340    1.1635850  
H     2.7444210   -0.8671540   -2.2492310  
H     3.8231040   -3.1225390   -2.1765860  
