64


C     2.6097410    0.2876300   -3.3694850  
C     1.4081020    0.1980620   -2.7141510  
C     1.7013420    0.0000800   -1.3230490  
C     3.1161100   -0.0092180   -1.1968610  
N     3.6379040    0.1469110   -2.4632870  
C     3.7997500   -0.1797540    0.0292420  
C     2.9659330   -0.3621530    1.1308300  
O     3.5207500   -0.5745170    2.3794510  
C     1.5550670   -0.3690820    1.0357400  
O     0.9348920   -0.6091410    2.2487230  
C     0.8888570   -0.1831920   -0.1733890  
H     0.4309420    0.2735690   -3.1692740  
H     4.6212550    0.2661020   -2.6571110  
H     2.7793480   -0.6565590    3.0075190  
H    -0.0257980   -0.5099070    2.1604180  
H     2.8205840    0.4394560   -4.4187360  
C    -1.3234550   -0.9779700   -1.1293090  
C    -0.5816600   -0.2271520   -0.2613760  
C    -1.5457780    0.5410040    0.5233480  
C    -2.8949560    0.1467690    0.0472620  
N    -2.6826330   -0.7502720   -0.9730070  
C    -4.0969770    0.6155140    0.5291890  
C    -3.9826180    1.6825170    1.5259980  
O    -4.9395990    2.3398860    1.9371410  
C    -2.5713470    2.0696410    2.1054020  
O    -2.5263100    2.8763270    3.0192350  
C    -1.3836210    1.4671170    1.5094400  
H    -0.4127130    1.7871900    1.8733290  
H    -0.9745480   -1.6769550   -1.8776030  
H    -3.4208170   -1.2989970   -1.3914430  
C    -5.6353130   -3.5691220   -0.0729330  
C    -4.8849660   -2.4765450    0.2851560  
C    -5.6300330   -1.3009210   -0.0876200  
C    -6.8441010   -1.7615260   -0.6631120  
N    -6.8102440   -3.1418880   -0.6539710  
C    -7.8581470   -0.9034170   -1.1007460  
C    -7.6463780    0.4536700   -0.9245160  
O    -8.5957650    1.3493440   -1.3019350  
C    -6.4419600    0.9512300   -0.3526150  
O    -6.3966030    2.3214420   -0.2848870  
C    -5.3995610    0.1042790    0.0392160  
H    -3.9337660   -2.5138820    0.7963980  
H    -7.5568480   -3.7409890   -0.9699200  
H    -8.7885650   -1.2574900   -1.5325880  
H    -8.2452320    2.2251900   -1.0475270  
H    -5.9950370    2.5559710    0.5857880  
H    -5.4304780   -4.6234920    0.0474880  
C     6.9596630    2.6087930   -1.5637710  
C     5.7681370    2.0435440   -1.1880770  
C     6.0735070    0.8062520   -0.5152650  
C     7.4891410    0.6880180   -0.5076770  
N     7.9985380    1.7903620   -1.1641750  
C     8.1662680   -0.3732820    0.1040680  
C     7.3877000   -1.3224950    0.7440920  
O     7.9714430   -2.3732590    1.3835840  
C     5.9682510   -1.2346310    0.7506560  
O     5.3512370   -2.2819360    1.4040770  
C     5.2822530   -0.2022420    0.1075720  
H     4.7896410    2.4745760   -1.3433060  
H     8.9789150    1.9918820   -1.2820850  
H     9.2480770   -0.4587780    0.1139010  
H     7.2330060   -2.8809480    1.7717820  
H     4.6448410   -1.9030000    1.9711370  
H     7.1581670    3.5376120   -2.0797590  
