60


C    -5.4698690    0.0491220   -0.2287870  
C    -5.8392780   -1.1943860    0.2897610  
C    -7.2538060   -1.2385720    0.3319210  
C    -7.7293870    0.0098180   -0.1727990  
N    -6.6352830    0.7635070   -0.5019770  
C    -9.0932580    0.3110050   -0.2720620  
C    -9.9907080   -0.6598670    0.1426070  
O   -11.3274140   -0.4236620    0.0694220  
C    -9.5343060   -1.9151920    0.6499860  
O   -10.5609770   -2.7623980    1.0160270  
C    -8.1936210   -2.2116080    0.7480470  
H    -5.1421140   -1.9604160    0.5889110  
H    -6.6326910    1.6985320   -0.8833090  
H    -9.4629770    1.2567280   -0.6538160  
H   -11.7821190   -1.2169410    0.4032330  
H   -10.1932180   -3.5939600    1.3502000  
H    -7.8645970   -3.1728860    1.1369250  
C    -1.4848530   -1.6949500    0.3452380  
C    -0.6588000   -0.6692960   -0.0125020  
C    -1.5842070    0.4127980   -0.4045210  
C    -2.9420720   -0.1606940   -0.1938790  
N    -2.8613420   -1.3906400    0.2337260  
C    -4.1623520    0.6059490   -0.4765670  
C    -3.9510640    1.8675550   -0.9908930  
O    -4.9651090    2.7189570   -1.3131770  
C    -2.6253750    2.4350030   -1.2493380  
O    -2.5491360    3.5805700   -1.7195360  
C    -1.4205830    1.6356770   -0.9388290  
H    -4.5085650    3.5225880   -1.6528910  
H    -0.4593850    2.0870800   -1.1648470  
H    -1.1943570   -2.6710040    0.7147480  
C     1.6141680   -1.6894610   -0.4345720  
C     0.7897350   -0.6742430   -0.0505470  
C     1.7184870    0.3873730    0.3857210  
C     3.0837220   -0.1846550    0.1672330  
N     2.9944390   -1.3973310   -0.3038040  
C     4.3117930    0.5535210    0.4740720  
C     4.1184170    1.8059460    1.0262220  
O     5.0798350    2.6518810    1.3869990  
C     2.7454540    2.3681570    1.2946150  
O     2.6824000    3.4885630    1.7994340  
C     1.5435440    1.5926150    0.9519960  
H     4.6048040    3.4385590    1.7455440  
H     0.5806360    2.0395230    1.1770160  
H     1.3223350   -2.6525770   -0.8356480  
C     5.6159780   -0.0270100    0.2096590  
C     5.9073070   -1.2578780   -0.3227880  
C     7.3483770   -1.3325620   -0.3747420  
C     7.8076910   -0.0203710    0.1814210  
N     6.8082780    0.7337010    0.5192050  
C     9.2091280    0.3002900    0.2987410  
C    10.1017640   -0.6298540   -0.1122290  
O    11.4336260   -0.4745400   -0.0644620  
C     9.6675140   -1.9630280   -0.6770490  
O    10.5563080   -2.7422150   -1.0231690  
C     8.2358380   -2.2675720   -0.7875110  
H     5.2015130   -2.0107860   -0.6327000  
H     9.5159960    1.2577830    0.7045620  
H    11.8016790   -1.3112510   -0.4280480  
H     7.9618760   -3.2346490   -1.1979830  
