62


C     4.1621710    0.3056440    0.1677240  
C     4.1068310   -0.8705980   -0.5816200  
C     5.3836540   -1.4818440   -0.5159440  
C     6.2104440   -0.6439050    0.2916630  
N     5.4501580    0.4228520    0.6889370  
C     7.5491690   -0.9490740    0.5681330  
C     8.0619610   -2.1152270    0.0233570  
O     9.3565700   -2.4630370    0.2581110  
C     7.2506460   -2.9660880   -0.7865990  
O     7.9185060   -4.0841920   -1.2477090  
C     5.9343580   -2.6665820   -1.0589340  
H     3.2291340   -1.2196570   -1.1013760  
H     5.7420570    1.1963950    1.2685540  
H     8.1839900   -0.3176390    1.1807380  
H     9.5192340   -3.3032200   -0.2053510  
H     7.3181190   -4.6205960   -1.7863010  
H     5.3319190   -3.3275930   -1.6785600  
C    -0.0312280    0.4855420   -1.1177250  
C    -0.4535370    1.6698330   -0.5909460  
C     0.7357970    2.1872090    0.1144210  
C     1.7881730    1.1612530   -0.1198570  
N     1.3256220    0.1792550   -0.8404430  
C     3.1463450    1.2982430    0.4262060  
C     3.3522740    2.4231180    1.1926920  
O     4.5443140    2.7157800    1.7853530  
C     2.3207770    3.4329980    1.4579860  
O     2.6181560    4.4079030    2.1654530  
C     0.9722300    3.2676740    0.8777830  
H     4.3768750    3.5663290    2.2531250  
H     0.2438550    4.0440660    1.0807400  
H    -0.5985300   -0.2076330   -1.7277860  
C    -4.3819330   -0.2663540   -0.1054160  
C    -5.1623060    0.8710340   -0.3336510  
C    -4.2866650    1.9567450   -0.5694190  
C    -2.9569390    1.4467470   -0.4870970  
N    -3.0482390    0.1120450   -0.2107780  
C    -1.8009930    2.2472750   -0.6559940  
C    -2.0458580    3.5982880   -0.9162510  
O    -1.0063050    4.4514380   -1.1207200  
C    -3.3711730    4.1221430   -1.0019280  
O    -3.3985480    5.4748510   -1.2700360  
C    -4.4841220    3.3305050   -0.8394950  
H    -6.2402320    0.8966380   -0.3755860  
H    -2.2861710   -0.5455070   -0.1181470  
H    -1.3839170    5.3272010   -1.3196150  
H    -4.3142200    5.7699070   -1.3839380  
H    -5.4843180    3.7514900   -0.9093190  
C    -8.1911520   -2.2989080    1.1432040  
C    -7.2798370   -1.3214370    0.8972380  
C    -6.0505320   -2.0185890    0.5414260  
C    -6.4187900   -3.4465680    0.6422500  
N    -7.6726250   -3.6111430    0.9801060  
C    -5.4733420   -4.5069960    0.3976990  
C    -4.2014630   -4.1632710    0.0983930  
O    -3.2095500   -5.0528710   -0.1141330  
C    -3.7813490   -2.7335010    0.0010160  
O    -2.5822320   -2.5269130   -0.2173860  
C    -4.7889310   -1.6247240    0.1623230  
H    -7.4216230   -0.2562610    1.0002260  
H    -5.7867500   -5.5418010    0.4810440  
H    -2.4055040   -4.5179010   -0.2808350  
H    -9.2237020   -2.1824310    1.4503460  
