60


C     6.4365260   -2.5801040   -2.8053630  
C     5.3333670   -2.0127690   -2.2208230  
C     5.7389430   -1.5240010   -0.9339200  
C     7.1216450   -1.8233940   -0.7974090  
N     7.5156110   -2.4715190   -1.9498250  
C     7.8716460   -1.4713650    0.3288520  
C     7.2082900   -0.8027710    1.3475500  
O     7.8824390   -0.4582040    2.4822260  
C     5.8333580   -0.4873720    1.2327730  
O     5.3207990    0.1679800    2.3439230  
C     5.0723220   -0.8230280    0.1100190  
H     4.3508510   -1.9426470   -2.6640930  
H     8.4487800   -2.8003250   -2.1417190  
H     8.9252730   -1.7075650    0.4367730  
H     7.2328090   -0.0559290    3.0852820  
H     4.3656050    0.0079640    2.3938080  
H     6.5450490   -3.0583230   -3.7685230  
C     2.6233280   -1.2645140   -0.4416330  
C     3.6466720   -0.4867220    0.0141960  
C     3.0006620    0.8223030    0.2770330  
C     1.5665980    0.6072130   -0.0784900  
N     1.3614800   -0.6122020   -0.4901480  
C     0.5765160    1.6657540    0.0244290  
C     1.0320550    2.8791160    0.4516450  
O     0.2397980    3.9432730    0.6407590  
C     2.4718030    3.1277620    0.7892920  
O     2.7829570    4.2553840    1.1704160  
C     3.4508820    2.0280450    0.6723970  
H     0.8406350    4.6712220    0.9150780  
H     4.4817470    2.2460840    0.9303530  
H     2.6809570   -2.2999440   -0.7538030  
C    -2.6168390   -1.1421760    1.3314120  
C    -1.4575530   -0.4629520    1.1805390  
C    -1.6538830    0.5192480    0.1385990  
C    -3.0549730    0.3513980   -0.3210570  
N    -3.6123760   -0.6557170    0.4600260  
C    -3.6234180    1.0653930   -1.3317150  
C    -2.8246760    2.0936430   -1.9853090  
O    -3.2555890    2.7977970   -2.8856490  
C    -1.3458750    2.3063100   -1.5054710  
O    -0.6639400    3.1323590   -2.0837230  
C    -0.8246660    1.4646570   -0.3966400  
H    -0.5401410   -0.6429860    1.7178940  
H    -4.6238870    0.8840980   -1.7076420  
H    -2.8580820   -1.9608190    1.9916600  
C    -7.4532770    1.4456500    0.4636320  
C    -8.2726450    0.3690530    0.3697520  
C    -7.4360400   -0.8131810    0.3560870  
C    -6.0394280   -0.3208030    0.4414470  
N    -6.1167750    1.0511790    0.5397630  
C    -4.9380190   -1.1342820    0.4222880  
C    -5.1645840   -2.5895320    0.3912920  
O    -4.2524550   -3.3984510    0.4386640  
C    -6.6466210   -3.1161750    0.3217410  
O    -6.8244330   -4.3229700    0.2962440  
C    -7.7310770   -2.1402940    0.3055400  
H    -9.3517990    0.3831270    0.3274960  
H    -8.7486770   -2.5137060    0.2532050  
H    -7.7000010    2.4982680    0.5013250  
H    -5.3275490    1.6713010    0.4252210  
