60


C     6.5865490   -2.5394950   -0.4130310  
C     5.9864910   -3.7677100   -0.3736390  
C     4.5821640   -3.5406870   -0.1808680  
C     4.3894550   -2.1399900   -0.0893620  
N     5.6320880   -1.5548960   -0.2151060  
C     3.1101690   -1.5389240    0.0708350  
C     2.0120200   -2.4263770    0.0574800  
O     0.7355920   -1.9505190    0.1212490  
C     2.2060950   -3.8308630    0.0041600  
O     1.0432390   -4.5572120    0.0893980  
C     3.4655250   -4.3904690   -0.1021320  
H     6.4796520   -4.7245160   -0.4739270  
H     5.7759230   -0.5736260   -0.3978760  
H     0.0879410   -2.6828020   -0.0246140  
H     1.1861750   -5.4569380   -0.2392000  
H     3.5805580   -5.4715530   -0.1378690  
H     7.6236360   -2.2704760   -0.5546530  
C     2.9755190   -0.0998970    0.2317960  
C     3.9222180    0.8333630    0.6065380  
C     3.3166100    2.1328990    0.5775370  
C     1.9051010    1.9153130    0.1754420  
N     1.7657830    0.5618640   -0.0127480  
C     0.9820590    2.9124380    0.0296370  
C     1.4292380    4.2959140    0.2584380  
O     0.6750660    5.2508960    0.1607540  
C     2.9204240    4.5403690    0.6864050  
O     3.2873080    5.6888130    0.8915560  
C     3.7965600    3.3848070    0.8289640  
H     4.9208960    0.6272330    0.9585960  
H     4.8255000    3.5668180    1.1243650  
H     0.9218910    0.0664460   -0.2621330  
C    -2.4209390    1.1948820    2.2582690  
C    -1.2365170    1.7216090    1.8866890  
C    -1.3405790    2.1322800    0.4945220  
C    -2.7186750    1.8254640    0.0740040  
N    -3.3722240    1.2818840    1.2073070  
C    -3.2212080    2.0299830   -1.1619870  
C    -2.3405680    2.6400980   -2.1620400  
O    -2.7086570    2.8997350   -3.2944310  
C    -0.8577050    2.9611370   -1.7503660  
O    -0.1006380    3.4018750   -2.5935570  
C    -0.4205370    2.6638370   -0.3594920  
H    -0.3658570    1.8476380    2.5137210  
H    -4.2373750    1.7815130   -1.4500380  
H    -2.7371860    0.7746170    3.2034770  
C    -5.6913100    0.4366790    1.0748090  
C    -6.3115320   -0.7046090    0.6897090  
C    -5.2836670   -1.6780310    0.3616280  
C    -3.9866670   -1.0020720    0.5909090  
N    -4.2977230    0.2699080    1.0497730  
C    -2.7629750   -1.5474470    0.3789360  
C    -2.7081640   -2.9071390   -0.1223160  
O    -1.6557970   -3.4860260   -0.3767800  
C    -4.0624800   -3.6731120   -0.3499850  
O    -4.0279800   -4.8266800   -0.7423100  
C    -5.3206560   -2.9619150   -0.0796040  
H    -7.3785930   -0.8650520    0.6379400  
H    -1.8342920   -1.0206710    0.5644060  
H    -6.2468240   -3.5004800   -0.2545100  
H    -6.0946810    1.3894520    1.3894010  
