62


C     2.0788150    5.1418680    1.9874870  
C     1.3755700    6.2505910    1.5951720  
C     0.3265500    5.7964760    0.7269660  
C     0.4534200    4.3894310    0.6193450  
N     1.5379680    4.0204100    1.3856940  
C    -0.4363890    3.5701050   -0.1205680  
C    -1.4877670    4.2466410   -0.7638130  
O    -2.3811060    3.5786920   -1.5472260  
C    -1.6159700    5.6566470   -0.6692580  
O    -2.6963990    6.1585170   -1.3756510  
C    -0.7328010    6.4348370    0.0534780  
H     1.5770230    7.2709670    1.8909660  
H     1.7708780    3.0619980    1.5988910  
H    -2.9619530    4.2565060   -1.9376590  
H    -2.6569680    7.1260210   -1.3841380  
H    -0.8636710    7.5137730    0.1065130  
H     2.9351130    5.0530020    2.6410240  
C    -0.2475310    2.1286070   -0.2007570  
C     0.9336590    1.4191160   -0.2150980  
C     0.5706140    0.0289170   -0.3122110  
C    -0.9053590    0.0484920   -0.3282130  
N    -1.3753310    1.2635460   -0.2491550  
C    -1.7322660   -1.1599870   -0.4309970  
C    -1.0284730   -2.3162270   -0.6192180  
O    -1.6107830   -3.5134290   -0.8611570  
C     0.4531590   -2.3755260   -0.6255520  
O     0.9480640   -3.4952330   -0.8475820  
C     1.2811220   -1.1530720   -0.3869890  
H     1.9275600    1.8329580   -0.2965860  
H    -0.8616780   -4.1407610   -0.9657010  
C    -3.8914510    0.0639560   -0.7703400  
C    -3.1866350   -1.0562660   -0.3904340  
C    -4.1836230   -2.0208620    0.0882000  
C    -5.5071530   -1.3671800   -0.0842810  
N    -5.2480670   -0.1210660   -0.6211920  
C    -6.7035380   -1.9128510    0.2487300  
C    -6.7160690   -3.2424430    0.8470810  
O    -7.7412450   -3.8188270    1.1788710  
C    -5.3315590   -3.9434380    1.0817310  
O    -5.3108050   -5.0488390    1.6013950  
C    -4.1076950   -3.2475340    0.6688530  
H    -7.6504270   -1.4003670    0.1075570  
H    -3.1701410   -3.7637420    0.8237730  
H    -3.4964880    1.0049230   -1.1250850  
H    -5.9481540    0.5790630   -0.8123930  
C     2.7090750   -1.2815920   -0.2554570  
C     3.6625480   -0.3535990    0.1850080  
C     4.9291860   -0.9792000    0.1494060  
C     4.7201280   -2.3128490   -0.3206650  
N     3.3826860   -2.4621600   -0.5538000  
C     5.7693030   -3.2279950   -0.4777540  
C     7.0442500   -2.7944460   -0.1563960  
O     8.1008120   -3.6373260   -0.2881220  
C     7.2728740   -1.4634100    0.3163330  
O     8.5995660   -1.2026480    0.5867860  
C     6.2439200   -0.5632720    0.4716590  
H     3.4540870    0.6463480    0.5309720  
H     2.8853460   -3.2967420   -0.8378310  
H     5.6185340   -4.2415150   -0.8333410  
H     8.8995330   -3.1523720   -0.0154090  
H     8.6975240   -0.2908250    0.8990600  
H     6.4387630    0.4447820    0.8313520  
