60


C    -4.9747730   -2.3567800   -0.1648260  
C    -4.9197390   -0.9555290   -0.0990860  
C    -6.2992720   -0.4968200   -0.1586380  
C    -7.1130070   -1.6454370   -0.2570750  
N    -6.2641530   -2.7534230   -0.2572710  
C    -8.5061700   -1.5970500   -0.3359780  
C    -9.0937790   -0.3388550   -0.3143050  
O   -10.4459090   -0.2240530   -0.3880160  
C    -8.2918270    0.8292880   -0.2159680  
O    -9.0180860    1.9984260   -0.2064800  
C    -6.9107850    0.7674480   -0.1384420  
H    -6.5684150   -3.7149160   -0.3187950  
H    -9.1292930   -2.4817990   -0.4121360  
H   -10.6615500    0.7247020   -0.3608160  
H    -8.4168420    2.7560650   -0.1450560  
H    -6.2989380    1.6606820   -0.0640880  
H    -4.1694180   -3.0769350   -0.1497750  
C    -3.7332870   -0.1867590    0.0012290  
C    -2.4017240   -0.6313100    0.0502890  
C    -1.6030450    0.5169470    0.1307550  
C    -2.5993230    1.6530670    0.1159580  
N    -3.8339180    1.2283260    0.0532050  
C    -2.1922150    3.0226270    0.1510020  
C    -0.8600370    3.2660800    0.1522360  
O    -0.3259970    4.4860270    0.1497910  
C     0.1830250    2.1567170    0.1517200  
O     1.3572410    2.5681350    0.1148330  
C    -0.2244250    0.7623070    0.2012640  
H    -2.0729980   -1.6557040   -0.0198950  
H    -2.9274710    3.8190620    0.1486070  
H     0.6497010    4.3314210    0.1310430  
C     0.7750580   -0.2791800    0.3180370  
C     0.6287310   -1.6185710    0.6298460  
C     1.9246300   -2.2267630    0.6257460  
C     2.8851070   -1.1478380    0.2940760  
N     2.1343210   -0.0095050    0.1238370  
C     4.2359840   -1.3190420    0.1665320  
C     4.7643220   -2.6755910    0.4263120  
O     5.9587100   -2.9186960    0.4517010  
C     3.7544270   -3.8357560    0.7442630  
O     4.1930370   -4.9664110    0.9064940  
C     2.3388770   -3.5103560    0.8431180  
H    -0.2904670   -2.1179410    0.8872390  
H     1.6486240   -4.3161930    1.0740650  
H     2.4792750    0.9240620   -0.0536400  
C     5.2440820    2.6238210    1.9911120  
C     4.7054900    1.4068430    1.7232860  
C     5.3262220    0.9162450    0.5073720  
C     6.2912810    1.9621070    0.0909230  
N     6.1745340    2.9790610    1.0197350  
C     7.1223490    1.8761460   -0.9803020  
C     7.0617140    0.6754340   -1.7995440  
O     7.7884340    0.4810410   -2.7624650  
C     5.9897860   -0.4148620   -1.4344680  
O     5.8136770   -1.3371570   -2.2083820  
C     5.1765610   -0.2479610   -0.1974380  
H     3.9622670    0.8931460    2.3137440  
H     7.8399810    2.6470960   -1.2437010  
H     5.0431240    3.2968870    2.8141270  
H     6.7626220    3.7969530    1.0486930  
