62


C     3.2720500   -0.2078350    1.8655380  
C     4.6214560   -0.3139460    2.0341870  
C     5.1163210   -1.1725520    0.9917390  
C     4.0014750   -1.5769430    0.2165210  
N     2.8652390   -0.9707560    0.7644930  
C     4.1326610   -2.3860720   -0.9173680  
C     5.4071430   -2.8140510   -1.2563890  
O     5.5848080   -3.6119840   -2.3488060  
C     6.5319150   -2.4306530   -0.4809760  
O     7.7321270   -2.9333690   -0.9447350  
C     6.4007730   -1.6173220    0.6304560  
H     5.1994440    0.1453510    2.8249440  
H     3.2887390   -2.7105560   -1.5127480  
H     6.5312040   -3.8305200   -2.3964620  
H     8.4388460   -2.7077190   -0.3221090  
H     7.2768410   -1.3218890    1.2046170  
H     2.5270750    0.2994860    2.4605890  
C    -0.1457850    2.1458520    0.0220330  
C     1.0254100    1.4474310    0.2685710  
C     0.7441990    0.0501300    0.1603720  
C    -0.6873520   -0.0543660   -0.1778160  
N    -1.1676590    1.2304050   -0.2325420  
C    -1.3556900   -1.2254970   -0.4163830  
C    -0.5802130   -2.4674950   -0.3429250  
O    -1.0267600   -3.5616270   -0.6413390  
C     0.9184530   -2.3918410    0.1388490  
O     1.4985800   -3.4375560    0.3729900  
C     1.5393640   -1.0652870    0.3158080  
H     2.0034260    1.8708410    0.4238540  
H    -2.0893870    1.5219070   -0.5363170  
C    -3.2209280   -0.5294060   -1.9096750  
C    -4.5678910   -0.7347330   -2.0021490  
C    -4.9392220   -1.6173610   -0.9313160  
C    -3.7570200   -1.9254560   -0.2129130  
N    -2.7032350   -1.2454280   -0.8254430  
C    -3.7585540   -2.7415830    0.9237820  
C    -4.9740710   -3.2684430    1.3313650  
O    -5.0302520   -4.0758330    2.4317270  
C    -6.1666660   -2.9778710    0.6185880  
O    -7.2967590   -3.5744970    1.1484250  
C    -6.1626630   -2.1637810   -0.4985750  
H    -5.2211270   -0.3143460   -2.7546790  
H    -2.8580880   -2.9922970    1.4712340  
H    -5.9542880   -4.3628930    2.5289630  
H    -8.0546220   -3.3917200    0.5738770  
H    -7.0894590   -1.9452900   -1.0257620  
H    -2.5541710    0.0361300   -2.5451200  
C     2.1072590    5.6691230    1.5910240  
C     1.6569380    4.4047630    1.3401470  
C     0.4835090    4.5149180    0.5153190  
C     0.2716070    5.9644130    0.3116080  
N     1.3066290    6.6055180    0.9680940  
C    -0.7468240    6.5234460   -0.3936000  
C    -1.7386020    5.6351610   -0.9721640  
O    -2.6853050    6.0199280   -1.6398430  
C    -1.5919780    4.0935260   -0.7115350  
O    -2.5152250    3.3796980   -1.0814360  
C    -0.3768670    3.5739000   -0.0368870  
H     2.0913530    3.5012720    1.7349440  
H    -0.8552310    7.5926290   -0.5453510  
H     2.9552000    5.9863570    2.1832870  
H     1.4064580    7.6059710    1.0427290  
