62


C     4.1202290   -1.1309930   -1.5414950  
C     4.6315700   -0.1624490   -0.6870140  
C     5.9342430   -0.6520070   -0.2639840  
C     6.1264920   -1.9096310   -0.8879100  
N     5.0068500   -2.1645720   -1.6629880  
C     7.2614860   -2.7032620   -0.6897710  
C     8.2352200   -2.2176970    0.1682420  
O     9.3669180   -2.9417930    0.3968320  
C     8.0609110   -0.9649800    0.8126940  
O     9.1118870   -0.6141470    1.6378670  
C     6.9359910   -0.1880850    0.6116570  
H     4.8881700   -2.9630830   -2.2674220  
H     7.3997730   -3.6645660   -1.1738530  
H     9.9193560   -2.4254580    1.0092170  
H     8.9654940    0.2785330    1.9844890  
H     6.8447320    0.7765870    1.0988230  
H     3.1990160   -1.1184610   -2.1052530  
C     0.3038360    0.7962660    0.0012610  
C     1.4960070    0.1264990   -0.1871160  
C     2.5325400    1.1142330   -0.2034540  
C     1.8219160    2.4013010    0.0038950  
N     0.5361900    2.2118170    0.1162510  
C     2.5022030    3.6655920    0.0834930  
C     3.8487540    3.6339200   -0.0125230  
O     4.6366030    4.7125430    0.0675410  
C     4.6201950    2.3408610   -0.2212620  
O     5.8457560    2.4703600   -0.2907810  
C     3.9065560    1.0554190   -0.3468000  
H     1.6494880   -0.9377240   -0.2322390  
H     1.9495300    4.5867310    0.2297430  
H     5.5505200    4.3639720   -0.0535840  
C    -1.6648230   -3.2426200   -0.5679860  
C    -0.7495360   -2.2191270   -0.5193740  
C    -1.4403610   -1.0391070   -0.0848050  
C    -2.7870260   -1.4198220    0.1174430  
N    -2.8913380   -2.7671910   -0.1640560  
C    -3.8204930   -0.5318550    0.4987610  
C    -3.4394570    0.7988460    0.6511680  
O    -4.3561090    1.7339680    1.0255110  
C    -2.0978350    1.2273110    0.4617750  
O    -1.9375720    2.5540550    0.6786070  
C    -1.0557740    0.3285920    0.1196140  
H     0.2888480   -2.3140710   -0.7926570  
H    -3.7656890   -3.2659150   -0.2235240  
H    -3.8712950    2.5798070    1.0790670  
H    -0.9683470    2.7718060    0.5031890  
H    -1.5385600   -4.2775150   -0.8524860  
C    -5.5591560   -2.0622100    1.5060630  
C    -5.1956060   -0.9978640    0.7302160  
C    -6.4393820   -0.4567830    0.1756540  
C    -7.5385720   -1.3002970    0.7052790  
N    -6.9344410   -2.2619650    1.4920170  
C    -8.8555540   -1.1189750    0.4298430  
C    -9.2316520   -0.0291190   -0.4636860  
O   -10.3883970    0.2133480   -0.7738110  
C    -8.0813300    0.8635800   -1.0578260  
O    -8.3717060    1.7714810   -1.8199930  
C    -6.6946760    0.5702870   -0.6727090  
H    -9.6422740   -1.7489650    0.8337090  
H    -5.9143170    1.2097690   -1.0680800  
H    -4.9272380   -2.7034060    2.1071870  
H    -7.4285870   -2.9281180    2.0648840  
