62


C     2.3042970   -1.6357200   -0.7892230  
C     3.4405880   -0.9130520   -0.4582820  
C     4.3571040   -1.8684450    0.1436710  
C     3.7020610   -3.1243960    0.1552480  
N     2.4587900   -2.9490470   -0.4275140  
C     4.2713710   -4.2850250    0.6926540  
C     5.5410800   -4.1766830    1.2358050  
O     6.1546380   -5.2728310    1.7657950  
C     6.2145130   -2.9264750    1.2403670  
O     7.4716930   -2.9739900    1.8123930  
C     5.6437060   -1.7852790    0.7120030  
H     1.7901990   -3.6833820   -0.6005950  
H     3.7634080   -5.2440190    0.6945990  
H     7.0371860   -4.9895080    2.0623090  
H     7.9267610   -2.1328810    1.6563900  
H     6.1956590   -0.8518560    0.7019020  
H     1.4156210   -1.3082790   -1.3086800  
C     0.5904440    2.4990310   -0.0778770  
C     1.2043350    1.2778730   -0.0734920  
C     2.5671440    1.4296670   -0.5233300  
C     2.7341010    2.8652130   -0.8088840  
N     1.5328670    3.4981270   -0.4611610  
C     3.8549360    3.4478070   -1.3005470  
C     5.0142570    2.5994170   -1.5140060  
O     6.0891040    3.0131700   -1.9219190  
C     4.8896990    1.0669250   -1.1691310  
O     5.8798230    0.3755160   -1.3456330  
C     3.5965470    0.5230670   -0.6793000  
H     0.7645670    0.3678310    0.3046810  
H     3.9395490    4.5104130   -1.5059420  
H     1.2154880    4.2785340   -1.0277460  
C    -3.4119350    0.4821650   -0.4916550  
C    -2.0690070    0.7999360   -0.5637550  
C    -1.8793190    2.0510650    0.1010010  
C    -3.1543600    2.4669190    0.5642400  
N    -4.0603020    1.4847280    0.2194420  
C    -3.3675440    3.6770140    1.2313070  
C    -2.2663230    4.4936690    1.4380960  
O    -2.4167220    5.6787200    2.0909290  
C    -0.9764550    4.1069190    0.9928660  
O     0.0046960    5.0168010    1.3110610  
C    -0.7509080    2.8912920    0.3292300  
H    -1.3083870    0.1840950   -1.0204920  
H    -5.0628660    1.5792870    0.2805710  
H    -4.3426320    3.9901440    1.5897230  
H    -1.5316870    6.0748310    2.1774270  
H     0.8798710    4.6431100    1.0919530  
C    -3.8631190   -1.2972310   -2.2108600  
C    -4.1357910   -0.6533660   -1.0364060  
C    -5.2804800   -1.3460690   -0.4448840  
C    -5.6408100   -2.4366700   -1.3857870  
N    -4.7247210   -2.3656250   -2.4175880  
C    -6.6714260   -3.3002990   -1.2051260  
C    -7.4853820   -3.1697020    0.0006980  
O    -8.4377550   -3.8937320    0.2441850  
C    -7.1020190   -2.0448450    1.0292270  
O    -7.7571670   -1.9257030    2.0515110  
C    -5.9642700   -1.1712880    0.7160670  
H    -6.9181570   -4.0905110   -1.9075840  
H    -5.7016060   -0.4152770    1.4492250  
H    -3.1019580   -1.0644590   -2.9435010  
H    -4.7561590   -2.9295390   -3.2526870  
