64


C    -0.3562460    1.1412030    0.2381800  
C    -1.4387770    0.3155050   -0.0029530  
C    -2.6300170    1.0312930    0.3518050  
C    -2.2144880    2.3141890    0.8023110  
N    -0.8374060    2.3628850    0.7030950  
C    -3.1081020    3.3080750    1.2107970  
C    -4.4572680    3.0032560    1.1269380  
O    -5.3920060    3.9239130    1.4833520  
C    -4.9053180    1.7320180    0.6689530  
O    -6.2770320    1.5980960    0.6718980  
C    -4.0203520    0.7176460    0.3010310  
H    -1.3811660   -0.6622260   -0.4594530  
H    -0.2570140    3.0617220    1.1418980  
H    -2.7908570    4.2874910    1.5537140  
H    -6.2539920    3.4965810    1.3133640  
H    -6.5358810    1.1651860   -0.1712510  
C     1.6964850   -0.3023450    0.2080910  
C     1.0620500    0.9055170    0.0664570  
C     2.0877600    1.8746550   -0.2789730  
C     3.3243060    1.1928600   -0.3038010  
N     3.0684490   -0.1611790    0.0028950  
C     4.5110940    1.8145980   -0.7012940  
C     4.4520100    3.1589010   -1.0468960  
O     5.5892500    3.8049660   -1.4282110  
C     3.2216140    3.8590450   -1.0164430  
O     3.3170400    5.1811370   -1.3942510  
C     2.0437130    3.2303080   -0.6466620  
H     5.4618840    1.2992720   -0.7507640  
H     5.3432360    4.7176250   -1.6581940  
H     2.4328730    5.5748300   -1.4380540  
H     1.0995810    3.7682400   -0.6858020  
H     1.2859450   -1.2593900    0.4827360  
C    -2.8104940   -3.2654780    1.7937410  
C    -3.6475070   -4.0279840    1.0208870  
C    -4.3987260   -3.1234280    0.1988010  
C    -3.9613050   -1.8090830    0.5176830  
N    -3.0043740   -1.9303920    1.5031840  
C    -4.4932220   -0.6392190   -0.0753180  
C    -5.5122580   -0.8662530   -0.9994170  
O    -6.1292690    0.2081680   -1.6182000  
C    -5.9642760   -2.1644390   -1.3334820  
O    -6.9806890   -2.1710750   -2.2740310  
C    -5.4206830   -3.2938560   -0.7548010  
H    -3.7290270   -5.1059690    1.0412780  
H    -2.4673530   -1.1593890    1.8701720  
H    -6.7888410   -0.1611100   -2.2335710  
H    -7.2118660   -3.0851000   -2.4950990  
H    -5.7849360   -4.2840910   -1.0201080  
H    -2.0878040   -3.5630230    2.5406140  
C     7.1199000   -0.6733300    1.7931820  
C     5.9313790   -0.1016830    1.4695160  
C     5.2304870   -1.1051000    0.6767360  
C     6.1758170   -2.2443910    0.6259250  
N     7.2800930   -1.9887970    1.2787610  
C     5.8579290   -3.4847560   -0.0368790  
C     4.6351340   -3.6093290   -0.5988740  
O     4.1971920   -4.7235560   -1.2191860  
C     3.6323350   -2.5008530   -0.5565380  
O     2.5375640   -2.7033160   -1.0788220  
C     4.0007530   -1.1938530    0.0903080  
H     5.5655980    0.8747850    1.7500700  
H     6.5848170   -4.2892320   -0.0536860  
H     3.2895030   -4.5145970   -1.5261070  
H     7.9192160   -0.2480320    2.3882320  
