62


C    -3.7790550    0.1888710   -1.9550940  
C    -5.1429770    0.1204550   -1.9650150  
C    -5.5339120   -0.7842750   -0.9196150  
C    -4.3433700   -1.2365300   -0.2955600  
N    -3.2685130   -0.6333080   -0.9470020  
C    -4.3522060   -2.1099790    0.8047530  
C    -5.5877540   -2.5558240    1.2585250  
O    -5.6485780   -3.4024050    2.3226300  
C    -6.7868580   -2.1281770    0.6310150  
O    -7.9276750   -2.6601200    1.1944750  
C    -6.7718570   -1.2472190   -0.4360230  
H    -5.7977570    0.6485860   -2.6444550  
H    -3.4544290   -2.3958720    1.3433100  
H    -6.5886830   -3.5786860    2.5019790  
H    -8.7114030   -2.2962140    0.7565010  
H    -7.7045050   -0.9183670   -0.8898440  
H    -3.0970530    0.7278750   -2.5963060  
C     0.1015810    2.1297650   -0.0856950  
C    -1.1532000    1.5814190   -0.3463920  
C    -0.9872380    0.1815390   -0.4882560  
C     0.3983590   -0.1012540   -0.3184920  
N     1.0235210    1.0889250   -0.0848900  
C     0.9381870   -1.4135170   -0.3538390  
C    -0.0085810   -2.4346250   -0.5227090  
O     0.3809570   -3.7396350   -0.5485630  
C    -1.3919930   -2.1747240   -0.7255880  
O    -2.1256340   -3.3092500   -0.9754030  
C    -1.8955440   -0.8817200   -0.7213930  
H    -2.0750450    2.1286410   -0.4587890  
H     2.0041800    1.2362690    0.1076600  
H    -0.4265530   -4.2739920   -0.6775220  
H    -3.0688740   -3.1624510   -0.7768440  
C    -2.0564860    5.9642730    0.8160570  
C    -1.8107420    4.6385640    0.6575950  
C    -0.3794410    4.5388810    0.3993450  
C     0.0841260    5.9470450    0.4539360  
N    -0.8969410    6.7790080    0.6822760  
C     1.4667600    6.3115130    0.2755070  
C     2.3621580    5.3175680    0.0859610  
O     3.6870130    5.5163020   -0.0548840  
C     1.9408470    3.8836970    0.0418780  
O     2.8446710    3.0480720   -0.0664020  
C     0.4852740    3.5080120    0.1295560  
H    -2.5168060    3.8285370    0.7592440  
H     1.7625910    7.3537000    0.3204840  
H     4.0863170    4.6261740   -0.1454880  
H    -3.0032710    6.4424770    1.0368440  
C     2.3675700   -1.6688490   -0.2189450  
C     3.4324910   -0.8329750   -0.4692760  
C     4.6446740   -1.5547110   -0.1864350  
C     4.2220170   -2.9058580    0.2576840  
N     2.8446830   -2.9018990    0.2380310  
C     5.0779480   -3.9019290    0.6017840  
C     6.5119090   -3.6370590    0.5397650  
O     7.3567370   -4.4717410    0.8286300  
C     6.9830640   -2.2076720    0.0796390  
O     8.1811480   -1.9699640    0.0268620  
C     5.9626640   -1.2198760   -0.2676090  
H     3.3899340    0.1633160   -0.8829210  
H     4.7502970   -4.8858750    0.9230190  
H     6.2994730   -0.2382310   -0.5870740  
H     2.2527510   -3.7140160    0.3301710  
