60


C    -4.1700190   -0.0214080    0.0189500  
C    -3.3935830    1.0230440   -0.5002920  
C    -4.1916050    2.1891730   -0.5185120  
C    -5.4731550    1.8261870    0.0005460  
N    -5.4279590    0.4967330    0.3148760  
C    -6.5235570    2.7447980    0.1202810  
C    -6.2807990    4.0449160   -0.2908100  
O    -7.2625970    4.9791120   -0.2010390  
C    -5.0055300    4.4264620   -0.8145740  
O    -4.9400760    5.7568000   -1.1731710  
C    -3.9720240    3.5257180   -0.9315090  
H    -2.3826760    0.9313290   -0.8657450  
H    -6.1861560   -0.0931110    0.6309770  
H    -7.4992820    2.4771540    0.5112240  
H    -6.9036420    5.8156920   -0.5458260  
H    -4.0728200    5.9489360   -1.5598040  
H    -3.0090040    3.8342880   -1.3324560  
C    -0.3676880   -2.4477220    0.0006120  
C    -1.2410140   -1.3782880    0.0316040  
C    -2.5570010   -1.9374020    0.1605930  
C    -2.3201630   -3.3958320    0.2201590  
N    -1.0573340   -3.6987210    0.1144370  
C    -3.3911100   -4.3469940    0.3904550  
C    -4.6440360   -3.8622720    0.5262700  
O    -5.7326690   -4.6315000    0.7268890  
C    -4.9304320   -2.3926110    0.4817100  
O    -6.1103150   -2.0671060    0.6729070  
C    -3.8349190   -1.4078560    0.2156920  
H    -0.9572940   -0.3410030    0.0167040  
H    -3.1740960   -5.4087260    0.4269520  
H    -6.4833700   -4.0050920    0.8048310  
C     2.4002950    0.9319730    0.0979390  
C     3.6283090    0.3461670   -0.0457700  
C     3.3094840   -1.0938280   -0.1704670  
C     1.8222960   -1.1659130   -0.0621600  
N     1.3164800    0.0310230    0.0815340  
C     1.0765860   -2.4278570   -0.1133480  
C     1.8571510   -3.5600500   -0.2634650  
O     1.3956820   -4.8089210   -0.3487820  
C     3.3495420   -3.4990140   -0.3638170  
O     3.9576200   -4.5644710   -0.4890410  
C     4.0514820   -2.2038230   -0.3175710  
H     2.2030850   -5.3653730   -0.4530270  
H     5.1277700   -2.2136980   -0.4347320  
H     2.1842410    1.9919530    0.1719450  
C     5.0644900    3.6766420    2.4037240  
C     6.3131240    3.8244890    1.8919000  
C     6.4740470    2.8271300    0.8553430  
C     5.1971650    2.0802760    0.7991790  
N     4.3730500    2.6690850    1.7378310  
C     4.9298770    1.0061250   -0.0168210  
C     6.0388520    0.5868110   -0.9008530  
O     5.9632470   -0.3660100   -1.6598680  
C     7.3884970    1.4020880   -0.8869140  
O     8.2781780    1.0516700   -1.6459320  
C     7.5188670    2.5201930    0.0383530  
H     7.0531350    4.5493680    2.1980850  
H     8.4591950    3.0620630    0.0548770  
H     4.5772610    4.2243490    3.1995590  
H     3.5008850    2.2604800    2.0414130  
