64


C     3.2903640   -1.6040010   -2.1746740  
C     4.3663100   -2.4344820   -2.3213870  
C     5.2232090   -2.2253260   -1.1884540  
C     4.6001240   -1.2448910   -0.3728420  
N     3.4118620   -0.8687340   -0.9962500  
C     5.1514430   -0.8135960    0.8446400  
C     6.3634770   -1.3694470    1.2312360  
O     6.9401280   -0.9848310    2.4055920  
C     7.0062490   -2.3404570    0.4198450  
O     8.2036030   -2.7941020    0.9376310  
C     6.4503960   -2.7744190   -0.7703110  
H     4.5337680   -3.1145190   -3.1453800  
H     4.6537550   -0.1076080    1.5009690  
H     7.7618430   -1.4961370    2.5048820  
H     8.5673960   -3.4823510    0.3612860  
H     6.9555840   -3.5295100   -1.3694700  
H     2.4354600   -1.4404090   -2.8145600  
C    -0.9440880   -1.0054020   -0.1233430  
C     0.3511850   -1.3367220   -0.4601920  
C     1.1383790   -0.1441980   -0.3732130  
C     0.2685290    0.8988430    0.0363990  
N    -0.9865290    0.3493680    0.2204630  
C     0.7150390    2.2136280    0.2511070  
C     2.0736100    2.4689780    0.0539280  
O     2.5610390    3.7254770    0.2531770  
C     2.9569670    1.4403390   -0.3523840  
O     4.2486370    1.8686600   -0.5458940  
C     2.5088570    0.1379190   -0.5666230  
H     0.7071260   -2.3308750   -0.6874070  
H    -1.8368940    0.8964440    0.1882300  
H     3.5185310    3.6860630    0.0754210  
H     4.8545970    1.1078400   -0.5808220  
C    -2.1336330   -1.8222190   -0.0570190  
C    -2.4687970   -2.9670820   -0.7497200  
C    -3.7649590   -3.3786610   -0.3057470  
C    -4.1879180   -2.4389450    0.6715550  
N    -3.1981260   -1.4780130    0.7794170  
C    -5.4117710   -2.5435340    1.3411640  
C    -6.2318930   -3.6116930    1.0102820  
O    -7.4351840   -3.7630720    1.6339060  
C    -5.8339730   -4.5523780    0.0215710  
O    -6.7625470   -5.5517700   -0.1990740  
C    -4.6234190   -4.4477560   -0.6360530  
H    -1.8697020   -3.4257270   -1.5243810  
H    -3.0995540   -0.8625780    1.5737870  
H    -5.7385390   -1.8291740    2.0898080  
H    -7.8601270   -4.5509760    1.2531330  
H    -6.4469780   -6.1367260   -0.9035500  
H    -4.3389530   -5.1817040   -1.3873950  
C     0.0338560    4.0181140    1.8439250  
C    -0.9736840    4.9064430    2.0210280  
C    -1.8955410    4.7383310    0.9188780  
C    -1.3266340    3.6610070    0.0679760  
N    -0.1563690    3.2442290    0.6894610  
C    -1.8908150    3.2270130   -1.0917290  
C    -3.1394690    3.8454580   -1.5328730  
O    -3.7066970    3.5314460   -2.5681790  
C    -3.7728520    4.9653080   -0.6295020  
O    -4.8307540    5.4723860   -0.9683410  
C    -3.0583230    5.3584990    0.5875290  
H    -1.0686580    5.6151240    2.8308790  
H    -1.4369450    2.4777680   -1.7316730  
H    -3.4901490    6.1519840    1.1901530  
H     0.9154080    3.8435710    2.4439360  
