64


C     3.5895510   -2.3153420    0.8568480  
C     4.0276810   -1.0809150    0.4027660  
C     5.4368590   -1.2328650    0.0937990  
C     5.7791700   -2.5742400    0.3915730  
N     4.6307600   -3.2007130    0.8506430  
C     7.0639340   -3.0940910    0.2031430  
C     8.0294200   -2.2398610   -0.3066350  
O     9.2968560   -2.6927730   -0.5095980  
C     7.7027910   -0.8961530   -0.6331010  
O     8.7615130   -0.1788980   -1.1477240  
C     6.4295370   -0.3886460   -0.4438020  
H     4.5766190   -4.1590210    1.1612500  
H     7.3227310   -4.1234450    0.4283300  
H     9.8102880   -1.9617250   -0.8952650  
H     8.4600930    0.6960500   -1.4344710  
H     6.2022260    0.6327650   -0.7389220  
H     2.6101560   -2.6022700    1.2119770  
C     3.2012690    0.0930260    0.3007690  
C     1.8382410    0.2066360    0.1505460  
C     1.4920940    1.5940430    0.1437640  
C     2.7700330    2.3291230    0.3002370  
N     3.7742210    1.3747290    0.3397560  
C     2.8824240    3.6759950    0.3999950  
C     1.6648800    4.4602500    0.2667360  
O     1.6327130    5.6765680    0.3720670  
C     0.3298560    3.7035250   -0.0746650  
O    -0.6258400    4.4121540   -0.4054000  
C     0.2773270    2.2437260    0.0010290  
H     1.1526350   -0.6128620    0.0026110  
H     3.8205400    4.1950980    0.5692440  
H     4.6727500    1.5490750    0.7665340  
C    -1.4993450   -0.9575270    2.6162210  
C    -0.6976140    0.0239110    2.0908990  
C    -1.3330970    0.5045310    0.8928680  
C    -2.5408850   -0.2273430    0.7568870  
N    -2.6104250   -1.1154640    1.8123880  
C    -3.4768290   -0.0268380   -0.2777590  
C    -3.1571020    0.9877610   -1.1790850  
O    -4.0093840    1.3034610   -2.1871400  
C    -1.9576630    1.7438400   -1.0662390  
O    -1.8167250    2.6945870   -2.0514270  
C    -1.0073370    1.5067600   -0.0696260  
H     0.2333110    0.3704560    2.5146950  
H    -3.3665190   -1.7661400    1.9594970  
H    -3.5904130    2.0580640   -2.6462740  
H    -1.4885400    3.5127480   -1.6058000  
H    -1.3763370   -1.5558500    3.5082230  
C    -6.8506950   -0.2353030    2.5487180  
C    -7.6252460   -1.1368990    1.8657250  
C    -6.9148400   -1.4817480    0.6656490  
C    -5.6983870   -0.7518400    0.6809190  
N    -5.6793380   -0.0117660    1.8477850  
C    -4.7369240   -0.8065080   -0.3509430  
C    -5.0421800   -1.6431060   -1.4248420  
O    -4.1582990   -1.7814930   -2.4526290  
C    -6.2542100   -2.3829230   -1.4556690  
O    -6.3936370   -3.1718890   -2.5861140  
C    -7.1836240   -2.3188040   -0.4352810  
H    -8.5901160   -1.5117290    2.1792870  
H    -4.9801860    0.6803070    2.0708190  
H    -4.5864260   -2.3442150   -3.1206790  
H    -7.2897740   -3.5380090   -2.6105140  
H    -8.1019350   -2.9007180   -0.4884560  
H    -7.0297460    0.2671490    3.4889660  
