60


C    -5.9416280    0.1814140    2.1371410  
C    -5.3217670    0.0452710    0.9024280  
C    -6.3623000   -0.3625810   -0.0242540  
C    -7.5649240   -0.4641740    0.7174690  
N    -7.2753610   -0.1248130    2.0271070  
C    -8.7835000   -0.8611260    0.1530190  
C    -8.7889390   -1.1592290   -1.1996520  
O    -9.9455410   -1.5392350   -1.8111340  
C    -7.5930020   -1.0659400   -1.9617460  
O    -7.7569430   -1.3907950   -3.2944470  
C    -6.3934290   -0.6818860   -1.3964750  
H    -7.9552900   -0.0273000    2.7652940  
H    -9.7027660   -0.9323990    0.7251980  
H    -9.7428970   -1.6588110   -2.7556250  
H    -6.9643160   -1.1322220   -3.7883940  
H    -5.5031240   -0.5878990   -2.0086650  
H    -5.5373370    0.5501270    3.0696200  
C    -1.8506040   -0.9773330    3.3440540  
C    -0.8571310   -0.4203700    2.5979910  
C    -1.4682620    0.1501640    1.4184020  
C    -2.9168770   -0.1031530    1.5478930  
N    -3.0836650   -0.7709340    2.7532560  
C    -3.8957840    0.2644190    0.6593590  
C    -3.4102130    0.9602090   -0.5508510  
O    -4.1478710    1.3483100   -1.4411040  
C    -1.8665710    1.2220950   -0.7276720  
O    -1.4925660    1.6894560   -1.7900330  
C    -0.9384450    0.8260090    0.3447220  
H     0.1923520   -0.3963250    2.8489700  
H    -1.7845900   -1.5052900    4.2864650  
H    -3.9501730   -1.2189700    3.0135540  
C     2.7284790   -1.6648140    0.1656920  
C     1.4606420   -1.2094140    0.2529010  
C     1.4962790    0.2352120    0.1657130  
C     2.9189070    0.6067940   -0.0001610  
N     3.6495110   -0.6101560    0.0212940  
C     3.3561520    1.8769520   -0.1722040  
C     2.3615080    2.9516610   -0.1850600  
O     2.6621330    4.1193480   -0.3714210  
C     0.8599710    2.5912510    0.0626830  
O     0.0537180    3.4910110    0.2049300  
C     0.4853660    1.1552860    0.1839420  
H     0.5746600   -1.8165750    0.3632590  
H     4.3987740    2.1233990   -0.3124890  
H     3.0905600   -2.6812520    0.1883630  
C     5.0038150   -0.8145600   -0.0850480  
C     5.6738650   -2.0241180   -0.0927550  
C     7.0507250   -1.6782300   -0.2169340  
C     7.0562140   -0.1707720   -0.2740230  
N     5.8468870    0.3168910   -0.1947630  
C     8.2686870    0.5811120   -0.3988310  
C     9.4244270   -0.1251580   -0.4660620  
O    10.6332950    0.4198040   -0.5835800  
C     9.4582370   -1.6508450   -0.4120650  
O    10.5796710   -2.1627640   -0.4825520  
C     8.2162810   -2.3839810   -0.2845620  
H     5.2699450   -3.0228740   -0.0279120  
H     8.2448940    1.6642470   -0.4376710  
H    11.2530260   -0.3497210   -0.6055740  
H     8.2704150   -3.4671090   -0.2482670  
