60


C     4.6876550   -1.3384470   -1.2037160  
C     4.8676660   -0.1384480   -0.5081340  
C     6.1931970   -0.2263340    0.0906120  
C     6.7231530   -1.4911590   -0.2616560  
N     5.7822710   -2.1322020   -1.0574920  
C     7.9680220   -1.9571750    0.1686720  
C     8.7108210   -1.1177540    0.9862020  
O     9.9348480   -1.5088380    1.4299880  
C     8.1986540    0.1518910    1.3609140  
O     9.0474960    0.8733830    2.1727350  
C     6.9635730    0.6004810    0.9320690  
H     5.9230610   -3.0170610   -1.5220040  
H     8.3627710   -2.9290260   -0.1086670  
H    10.2952530   -0.7796870    1.9650150  
H     8.6919560    1.7653870    2.3046070  
H     6.6129970    1.5884700    1.2049890  
H     3.8724530   -1.6303310   -1.8491510  
C     0.4163710   -0.2801410   -0.4768700  
C     1.7642680   -0.5741060   -0.3628540  
C     2.4991500    0.6408800   -0.5105680  
C     1.4936770    1.7112980   -0.6982080  
N     0.2708750    1.0865010   -0.7094110  
C     1.7728730    3.0386670   -0.8278330  
C     3.1533100    3.4533530   -0.7448290  
O     3.5341180    4.6124870   -0.8328160  
C     4.2522010    2.3477460   -0.5043780  
O     5.4015440    2.7233680   -0.3517490  
C     3.8651670    0.9054440   -0.4837310  
H     2.1743290   -1.5485950   -0.1455220  
H     1.0089320    3.7937210   -0.9813510  
H    -0.6360060    1.5292600   -0.7506020  
C    -0.7359110   -1.1169680   -0.3765580  
C    -0.8415250   -2.4681100   -0.1347730  
C    -2.2455470   -2.7552040   -0.1312410  
C    -2.8931420   -1.4329420   -0.3994160  
N    -2.0145460   -0.4840860   -0.5431990  
C    -4.3358120   -1.2955660   -0.4760480  
C    -5.0728910   -2.4327220   -0.3163380  
O    -6.4062010   -2.4716040   -0.3894530  
C    -4.4400270   -3.7701060   -0.0243310  
O    -5.2160050   -4.7225680    0.1061640  
C    -2.9901070   -3.8788190    0.0586520  
H    -0.0410610   -3.1748440    0.0332730  
H    -6.6385690   -3.4157620   -0.2180090  
H    -2.5708370   -4.8583260    0.2638770  
C    -4.5150080    0.8530710   -1.7174320  
C    -5.2209330    2.0083610   -1.6777030  
C    -6.1326390    1.9227780   -0.5581850  
C    -5.9001080    0.5956940    0.0638970  
N    -4.9076810   -0.0269040   -0.6978590  
C    -6.5371060    0.1581690    1.1776130  
C    -7.5358900    1.0297320    1.7960840  
O    -8.1535960    0.7156060    2.8018080  
C    -7.8186060    2.4263750    1.1347620  
O    -8.6585620    3.1596870    1.6328260  
C    -7.0469580    2.7926440   -0.0542790  
H    -5.1224080    2.8417940   -2.3582660  
H    -6.3579100   -0.8081620    1.6316710  
H    -7.2282460    3.7694010   -0.4925820  
H    -3.7375960    0.5429250   -2.3999470  
