62


C    -4.8451050    1.9105170    1.0587100  
C    -4.5739060    0.7637870    0.3214290  
C    -5.8120690   -0.0001240    0.3030980  
C    -6.7611270    0.7323300    1.0574200  
N    -6.1403840    1.8917500    1.4947150  
C    -8.0680470    0.2901780    1.2908490  
C    -8.4317800   -0.9307620    0.7459850  
O    -9.6930420   -1.4117090    0.9280610  
C    -7.4952530   -1.6860890   -0.0083860  
O    -8.0009580   -2.8781750   -0.4880970  
C    -6.2054170   -1.2437600   -0.2294960  
H    -6.5962650    2.6421750    1.9910880  
H    -8.7889600    0.8606650    1.8672890  
H    -9.7507240   -2.2545560    0.4448080  
H    -7.3699280   -3.2685080   -1.1113620  
H    -5.5233240   -1.8283480   -0.8365530  
H    -4.2106340    2.7645600    1.2463550  
C    -0.4481080    1.4476430    1.7966060  
C    -1.7861800    1.2920450    1.6882320  
C    -2.0814410    0.7999960    0.3515320  
C    -0.7858030    0.6542290   -0.3304220  
N     0.1714820    1.1205020    0.5726630  
C    -0.5833460    0.1445990   -1.5738710  
C    -1.7518190   -0.3074430   -2.3018960  
O    -1.7104490   -0.8277600   -3.4070120  
C    -3.1662410   -0.1334330   -1.6243050  
O    -4.1383680   -0.5122860   -2.2525200  
C    -3.2714730    0.4794810   -0.2653290  
H    -2.5100770    1.4758690    2.4673020  
H     0.3942400    0.0587910   -2.0352790  
H     0.1658060    1.7726420    2.6249400  
C     2.2237630   -0.2340770    0.6441790  
C     3.5473050   -0.0890930    0.3609660  
C     3.7206540    1.2931800   -0.0982540  
C     2.3886580    1.9391160   -0.0488430  
N     1.5179690    0.9577680    0.4139210  
C     2.1290720    3.2210940   -0.3966400  
C     3.2443590    4.0476990   -0.8593760  
O     3.1167210    5.2187410   -1.1767410  
C     4.6667370    3.3847220   -0.9468430  
O     5.6073220    4.0489740   -1.3480020  
C     4.8101550    1.9804100   -0.5363930  
H     1.1374920    3.6587450   -0.3545330  
H     5.7942120    1.5299900   -0.6216810  
H     1.6894090   -1.1017850    1.0060840  
C     3.7081900   -4.2864890   -1.1997740  
C     3.3289490   -3.0018680   -0.9076110  
C     4.3792390   -2.4186120   -0.1198330  
C     5.3829210   -3.4117710    0.0281860  
N     4.9430100   -4.5394810   -0.6339300  
C     6.5770240   -3.1885360    0.7229270  
C     6.7615830   -1.9351690    1.2827760  
O     7.9039020   -1.6654600    1.9778040  
C     5.7708090   -0.9263770    1.1573090  
O     6.1043230    0.2429640    1.8137890  
C     4.5792730   -1.1383080    0.4637460  
H     2.4139410   -2.5274120   -1.2327580  
H     5.4560560   -5.4032040   -0.7147190  
H     7.3475570   -3.9445840    0.8335270  
H     7.8463770   -0.7421680    2.2791140  
H     5.4367770    0.9257440    1.6473720  
H     3.1984380   -5.0493930   -1.7709050  
