62


C    -3.0923730   -2.4837410    2.6984100  
C    -3.8776010   -3.5178730    2.2590340  
C    -4.6486280   -3.0197830    1.1564210  
C    -4.2754510   -1.6613470    0.9662860  
N    -3.3333780   -1.3638940    1.9283960  
C    -4.8442820   -0.8223300   -0.0213750  
C    -5.8343390   -1.4234850   -0.7975840  
O    -6.4854350   -0.6848960   -1.7714250  
C    -6.2214590   -2.7735990   -0.6284700  
O    -7.2138800   -3.1776920   -1.5051690  
C    -5.6400350   -3.5809760    0.3287270  
H    -3.9115110   -4.5145970    2.6766390  
H    -2.8622830   -0.4760080    2.0098580  
H    -7.1254230   -1.2831490   -2.1988850  
H    -7.4412950   -4.1033710   -1.3342370  
H    -5.9529700   -4.6162230    0.4466790  
H    -2.3751070   -2.4475990    3.5063090  
C    -0.7919210    1.1167210   -0.4189900  
C    -1.8351610    0.2171840   -0.3407530  
C    -3.0576780    0.9641620   -0.2588500  
C    -2.6970510    2.3372300   -0.3000400  
N    -1.3176510    2.4058190   -0.3551730  
C    -3.6343320    3.3748890   -0.3009900  
C    -4.9689600    3.0048560   -0.2790930  
O    -5.9431110    3.9514950   -0.3060950  
C    -5.3613690    1.6368210   -0.2221780  
O    -6.7260860    1.4574080   -0.1727640  
C    -4.4330500    0.5963380   -0.1779840  
H    -1.7292680   -0.8580320   -0.3193620  
H    -0.8034900    3.2360620   -0.6092430  
H    -3.3590800    4.4236510   -0.3400650  
H    -6.7862270    3.4580280   -0.3035880  
H    -6.9534050    0.7257540   -0.7879520  
C     1.2229070   -0.1439030   -1.2444310  
C     0.6343510    0.8758970   -0.5538580  
C     1.7238450    1.6526460    0.0400130  
C     2.9816090    0.9832390   -0.3714210  
N     2.6134880   -0.0834580   -1.1518760  
C     4.2322300    1.4041910    0.0002690  
C     4.3331710    2.6253920    0.8118330  
O     5.4021480    3.1182010    1.1357610  
C     3.0021640    3.3299500    1.2629030  
O     3.0860500    4.3340870    1.9494990  
C     1.7278960    2.7606840    0.8274260  
H     0.8188890    3.2448700    1.1675130  
H     0.7552270   -0.9211130   -1.8327530  
H     3.2457270   -0.8030530   -1.4706960  
C     6.5561390    1.3742780   -0.9007070  
C     7.5392880    0.4856170   -1.1736800  
C     7.0647690   -0.8245720   -0.7862880  
C     5.6955580   -0.6236670   -0.2465220  
N     5.4183080    0.7355120   -0.3682200  
C     4.9341830   -1.6212500    0.2804710  
C     5.4702130   -2.9823030    0.2848320  
O     4.8523910   -3.9332790    0.7380520  
C     6.8969710   -3.2197910   -0.3261090  
O     7.3450850   -4.3544270   -0.3624210  
C     7.6359620   -2.0561680   -0.8239470  
H     8.5071980    0.7140920   -1.5956630  
H     3.9686960   -1.4586790    0.7460840  
H     8.6391890   -2.2227900   -1.2044660  
H     6.5370700    2.4452920   -1.0316860  
