60


C     1.4457340   -5.2506030   -2.0418580  
C     1.2266170   -3.9733430   -1.5893660  
C    -0.0301660   -3.9789420   -0.8993880  
C    -0.5357560   -5.3024970   -0.9777750  
N     0.3887210   -6.0554710   -1.6711100  
C    -1.7694930   -5.6821780   -0.4384070  
C    -2.5191740   -4.7036810    0.1943120  
O    -3.7228170   -5.0252410    0.7484910  
C    -2.0495240   -3.3693860    0.2871870  
O    -2.9095090   -2.5409670    0.9717040  
C    -0.8093530   -2.9791420   -0.2459400  
H     1.8784740   -3.1284540   -1.7529950  
H     0.2931450   -7.0340300   -1.8930060  
H    -2.1510390   -6.6966010   -0.4944630  
H    -4.0678800   -4.2169590    1.1664880  
H    -2.4937420   -1.6682420    1.1115900  
H     2.2751730   -5.6556940   -2.6039170  
C    -0.3250350   -1.6167220   -0.0989970  
C     0.9439780   -1.1351040    0.0709160  
C     0.8882300    0.2967310    0.1944250  
C    -0.5360900    0.6573100    0.0794800  
N    -1.2572120   -0.5410900   -0.0221450  
C    -1.0370560    1.9209360    0.0361380  
C    -0.0587780    3.0208410    0.1913630  
O    -0.3901270    4.1913370    0.2190950  
C     1.4513170    2.6600880    0.4209030  
O     2.2166140    3.5660040    0.7014800  
C     1.8679100    1.2447060    0.3470970  
H     1.8305580   -1.7397600    0.1771780  
H    -2.0632620   -0.5510480   -0.6412060  
C     5.2687060    2.5790950   -2.0640080  
C     6.3254910    2.0580350   -1.4011770  
C     5.7433230    1.3044930   -0.2935290  
C     4.2688550    1.5208400   -0.4419510  
N     3.9983480    2.2412230   -1.4864470  
C     3.3008400    0.9270460    0.4740150  
C     3.8130340    0.1011610    1.4293180  
O     3.0638000   -0.5435950    2.3441970  
C     5.2857930   -0.1453090    1.5866530  
O     5.6410740   -0.8904480    2.5009150  
C     6.2389140    0.5056010    0.6701690  
H     7.3773360    2.1534070   -1.6320350  
H     3.7124670   -1.0228130    2.9077410  
H     7.2934200    0.2918200    0.8163250  
H     5.2755260    3.1997730   -2.9518310  
C    -4.6466040    0.9727300    2.4572590  
C    -3.3761780    1.0756170    1.9841370  
C    -3.4356180    1.8313430    0.7490030  
C    -4.8647790    2.1721710    0.5459490  
N    -5.5458870    1.6013290    1.6063560  
C    -5.3481040    2.9187880   -0.4792000  
C    -4.4022100    3.4223030   -1.4675400  
O    -4.7302280    4.1287240   -2.4077010  
C    -2.8913740    3.0135280   -1.3233750  
O    -2.1227510    3.2946330   -2.2240600  
C    -2.4665630    2.2374320   -0.1287650  
H    -2.4830680    0.7007680    2.4609610  
H    -6.3971340    3.1748620   -0.5912890  
H    -5.0047160    0.4935610    3.3589740  
H    -6.5328190    1.7105660    1.7796240  
