60


C    -3.7682220   -4.1102870   -1.1361950  
C    -4.9612130   -4.5049780   -0.5901920  
C    -5.5660550   -3.3373810   -0.0158570  
C    -4.6803720   -2.2551110   -0.2352950  
N    -3.5889090   -2.7574620   -0.9084840  
C    -4.9616070   -0.9158190    0.1455570  
C    -6.2012580   -0.7140950    0.7868020  
O    -6.5475440    0.5053910    1.2563110  
C    -7.0875490   -1.7998460    1.0208490  
O    -8.2467370   -1.4261210    1.6738320  
C    -6.7905280   -3.0918890    0.6368930  
H    -5.3645340   -5.5081770   -0.5963320  
H    -2.8638170   -2.1797020   -1.3050580  
H    -7.4261040    0.4157090    1.6677770  
H    -8.7919040   -2.2074570    1.8470700  
H    -7.4923550   -3.9001670    0.8324400  
H    -3.0157450   -4.6824730   -1.6600690  
C    -4.0215410    0.1594340   -0.1106600  
C    -2.6438120    0.0931570   -0.1455480  
C    -2.1873500    1.4251190   -0.4466030  
C    -3.4505890    2.2080040   -0.6049450  
N    -4.5086990    1.4776130   -0.4078150  
C    -3.4430330    3.6129890   -0.9227910  
C    -2.2400470    4.2183660   -1.0305710  
O    -2.0713530    5.5215210   -1.3010830  
C    -0.9419070    3.4644480   -0.8602230  
O     0.0922580    4.1172410   -1.0143610  
C    -0.9544900    2.0150260   -0.5562390  
H    -2.0237980   -0.7410430    0.1518980  
H    -4.3775770    4.1491090   -1.0428970  
H    -1.0970690    5.6547200   -1.3263240  
C     0.5629190    0.0843930   -1.0770350  
C     0.3138390    1.2875190   -0.4764090  
C     1.5364730    1.6347370    0.2572890  
C     2.4963130    0.5336700    0.0121690  
N     1.8416810   -0.3659470   -0.8084340  
C     3.7550460    0.4411980    0.5350680  
C     4.1950550    1.5568470    1.4001780  
O     5.3306200    1.6469530    1.8310010  
C     3.1683110    2.6968520    1.7276730  
O     3.4990670    3.5799920    2.5015910  
C     1.8530030    2.6649940    1.0822560  
H     1.1746430    3.4832650    1.2912350  
H    -0.0913490   -0.4907200   -1.7181790  
H     2.2534010   -1.2163210   -1.1603750  
C     5.5152290   -1.3121070   -3.1712360  
C     4.8175650   -0.5509490   -2.2873650  
C     5.0875920   -1.0716890   -0.9606310  
C     6.0169570   -2.2116110   -1.1512600  
N     6.2132160   -2.3189860   -2.5169190  
C     6.5589800   -2.9519250   -0.1506180  
C     6.1997970   -2.6187780    1.2213900  
O     6.6570020   -3.1989570    2.1935050  
C     5.1541510   -1.4693790    1.4537410  
O     4.7200860   -1.2954170    2.5768850  
C     4.6732910   -0.6807850    0.2855470  
H     4.2056110    0.3056140   -2.5271770  
H     7.2593320   -3.7642140   -0.3188150  
H     5.5819510   -1.2235980   -4.2476760  
H     6.8714290   -2.9466070   -2.9518180  
