62


C     4.0703240   -0.0480770    0.0140160  
C     4.7881890    1.1367100    0.0727820  
C     3.8500660    2.2086470    0.1892740  
C     2.5549320    1.6260080    0.2052210  
N     2.7197580    0.2674440    0.0874970  
C     1.3690650    2.3957090    0.2750300  
C     1.5370200    3.7853670    0.3500860  
O     0.4461710    4.5824910    0.4938080  
C     2.8258300    4.3739830    0.3468290  
O     2.8033520    5.7513660    0.4463020  
C     3.9741890    3.6098770    0.2656170  
H     5.8643390    1.2275380    0.1135760  
H     1.9990230   -0.4369980    0.1473540  
H     0.7494720    5.5059060    0.4404200  
H     3.6992490    6.1013540    0.3328600  
H     4.9529130    4.0854200    0.2653290  
C    -0.6511500   -0.7230160    2.7244770  
C     0.2371390    0.1584410    2.2087640  
C    -0.4061920    0.8105570    1.0814480  
C    -1.7536730    0.2203670    0.9811050  
N    -1.8319420   -0.7211620    1.9719060  
C    -2.7493110    0.6042770    0.0955740  
C    -2.4281220    1.7679490   -0.7328530  
O    -3.2480410    2.3860700   -1.4055560  
C    -0.9429010    2.2604320   -0.7970230  
O    -0.6205900    2.9566410   -1.7382550  
C     0.0225340    1.8119660    0.2473440  
H     1.2360500    0.3506770    2.5686990  
H    -0.5600130   -1.3832250    3.5760640  
H    -2.7096010   -1.1214550    2.2738590  
C    -4.0496650   -0.0309440    0.0343820  
C    -4.4609700   -1.2784860    0.4734240  
C    -5.8496810   -1.4301850    0.1415680  
C    -6.2489730   -0.1692970   -0.5341700  
N    -5.1263800    0.6272450   -0.5551160  
C    -7.4952900    0.0800970   -1.0112930  
C    -8.5179510   -0.9500960   -0.8565720  
O    -9.6659580   -0.8137260   -1.2537640  
C    -8.1166080   -2.2950110   -0.1449940  
O    -8.9645130   -3.1663700   -0.0080090  
C    -6.7427380   -2.4448320    0.3254010  
H    -3.8325140   -2.0628000    0.8689030  
H    -7.7691510    1.0076840   -1.5041780  
H    -6.4769910   -3.3782190    0.8129990  
H    -4.9985730    1.5105610   -1.0354250  
C     7.7760830   -1.6706050   -1.7441640  
C     7.5566660   -2.9910860   -1.4568750  
C     6.2866840   -3.0718530   -0.7916750  
C     5.7859790   -1.7482480   -0.6888620  
N     6.7241760   -0.9128730   -1.2607200  
C     4.5336620   -1.4289170   -0.1105110  
C     3.7805050   -2.5274890    0.3220020  
O     2.5287550   -2.3379170    0.8621940  
C     4.2703040   -3.8516740    0.2330150  
O     3.3928140   -4.7971830    0.7358600  
C     5.5111480   -4.1396310   -0.3015790  
H     8.2182170   -3.8134830   -1.6916360  
H     6.5456210    0.0521010   -1.4936310  
H     2.1805200   -3.2215820    1.0763880  
H     3.7512640   -5.6842970    0.5864950  
H     5.8663750   -5.1662850   -0.3577890  
H     8.6060380   -1.1940920   -2.2466240  
