62


C    -3.4569010   -4.3217280   -0.3267340  
C    -3.1635820   -2.9776290   -0.3253160  
C    -4.3860730   -2.2702110   -0.0837150  
C    -5.3974100   -3.2527490    0.0423350  
N    -4.8027250   -4.4894770   -0.0978480  
C    -6.7516130   -2.9495970    0.2424880  
C    -7.1033260   -1.6146140    0.3028860  
O    -8.4042430   -1.2545670    0.4816740  
C    -6.1267190   -0.5874960    0.1838680  
O    -6.6506090    0.6550770    0.2695020  
C    -4.7446970   -0.8815320    0.0163490  
H    -2.1867300   -2.5646720   -0.5195880  
H    -5.2863270   -5.3732210   -0.0641250  
H    -7.5170310   -3.7136180    0.3365030  
H    -8.4176540   -0.2794530    0.4898810  
H    -5.8952040    1.3094100    0.1295700  
H    -2.8097940   -5.1741330   -0.4765330  
C    -3.7766810    0.1804790   -0.0208340  
C    -2.3959460    0.1643340    0.0077250  
C    -1.9640270    1.5179460   -0.0564620  
C    -3.2325940    2.3191460   -0.1136090  
N    -4.2723330    1.5367360   -0.0819190  
C    -3.2405960    3.7503600   -0.1731750  
C    -2.0331130    4.3624040   -0.1713420  
O    -1.8592490    5.6826490   -0.2304670  
C    -0.7197830    3.5920810   -0.1152510  
O     0.2983370    4.2873230   -0.1736140  
C    -0.7334450    2.1324220   -0.0261470  
H    -1.7484880   -0.6910020    0.0805120  
H    -4.1731570    4.3014670   -0.2169190  
H    -0.8778130    5.8003770   -0.2281790  
C     1.0719520   -0.9797740   -2.5638340  
C     2.2708680   -1.1829620   -1.9660030  
C     2.2888890   -0.2679000   -0.8278700  
C     0.9656890    0.4202670   -0.8986950  
N     0.2647110    0.0013230   -1.9155450  
C     0.5574150    1.4238800    0.0722810  
C     1.4570320    1.6922550    1.0593810  
O     1.2271490    2.5634020    2.0518510  
C     2.8133150    1.0455410    1.1352320  
O     3.5738330    1.4598710    2.0034150  
C     3.1996660   -0.0135910    0.1478940  
H     3.0484250   -1.8809780   -2.2415760  
H     2.0648790    2.5967810    2.5655620  
H     0.6736170   -1.4727380   -3.4429840  
C     6.5362720   -0.2166470   -2.7670220  
C     7.4321660   -0.8775430   -1.9690560  
C     6.7746760   -1.1306640   -0.7182720  
C     5.4639530   -0.5952050   -0.8212470  
N     5.3504820   -0.0391710   -2.0770070  
C     4.5355140   -0.6241550    0.2457250  
C     4.9617760   -1.2504040    1.4214770  
O     4.0963930   -1.3855500    2.4629930  
C     6.2631930   -1.8005910    1.5299080  
O     6.5123500   -2.3906890    2.7548330  
C     7.1680890   -1.7433390    0.4871960  
H     8.4439080   -1.1494280   -2.2364220  
H     4.5145080    0.3851600   -2.4483920  
H     4.5925800   -1.7788300    3.2021070  
H     7.4371360   -2.6753110    2.7959510  
H     8.1629070   -2.1703540    0.5977710  
H     6.6378660    0.1478190   -3.7793910  
