60


C     3.4825440   -1.6284280   -1.8563380  
C     4.6785030   -2.2801380   -1.8622780  
C     5.4513790   -1.7720620   -0.7593370  
C     4.6697350   -0.7812050   -0.1181140  
N     3.4476700   -0.7002760   -0.8048230  
C     5.1024520   -0.1215190    1.0364640  
C     6.3578170   -0.4461360    1.5298960  
O     6.8250050    0.1792890    2.6476600  
C     7.1604180   -1.4227120    0.8868550  
O     8.3800820   -1.6365110    1.4949970  
C     6.7203470   -2.0876880   -0.2446710  
H     4.9892970   -3.0246540   -2.5827950  
H     4.5210120    0.6422060    1.5362100  
H     7.7206310   -0.1594980    2.8178190  
H     8.8961810   -2.2705250    0.9754200  
H     7.3408920   -2.8474570   -0.7154520  
H     2.6505230   -1.6837430   -2.5419000  
C    -0.8500050   -1.5973280   -0.6327680  
C     0.5239990   -1.6754720   -0.7057880  
C     1.0592360   -0.3585860   -0.5319410  
C    -0.0952630    0.5397420   -0.3448420  
N    -1.2099270   -0.2636590   -0.3953370  
C    -0.0376520    1.9034050   -0.1852040  
C     1.3066560    2.4894380   -0.0902470  
O     1.5113120    3.6455780    0.2358410  
C     2.5579780    1.5779410   -0.3532810  
O     3.6478710    2.1116570   -0.4436710  
C     2.3541790    0.1194740   -0.5156270  
H     1.0953730   -2.5859120   -0.8026890  
H    -2.1509930    0.0980910   -0.4388550  
C    -1.6859590   -3.8580100   -1.3567150  
C    -1.8319450   -2.6380520   -0.7422510  
C    -3.2136550   -2.6654480   -0.2151590  
C    -3.7279710   -4.0021300   -0.6342580  
N    -2.8198450   -4.6808460   -1.2939980  
C    -5.0534890   -4.4414680   -0.3106380  
C    -5.8387550   -3.6083960    0.4183150  
O    -7.0928350   -3.8934830    0.7920110  
C    -5.3416260   -2.2696500    0.8856030  
O    -6.0990060   -1.5752830    1.5587120  
C    -3.9708780   -1.8359750    0.5291500  
H    -5.3953980   -5.4166110   -0.6388290  
H    -7.4016590   -3.1181040    1.3103320  
H    -3.6640270   -0.8663500    0.9119140  
H    -0.8100630   -4.2153590   -1.8855570  
C    -3.8170150    1.9784350    2.2717010  
C    -2.6003560    1.6016300    1.7950590  
C    -2.2773120    2.5802160    0.7615550  
C    -3.4488440    3.5045120    0.7704670  
N    -4.3464260    3.1414160    1.6481180  
C    -3.5169270    4.6585710   -0.0864570  
C    -2.4749200    4.8860280   -0.9184290  
O    -2.4042000    5.9197720   -1.7709460  
C    -1.3023190    3.9444320   -1.0008520  
O    -0.4858540    4.1474910   -1.8915220  
C    -1.2133930    2.7688470   -0.0687490  
H    -1.9703430    0.7957520    2.1444400  
H    -4.3794580    5.3143620   -0.0462450  
H    -1.5689540    5.7923510   -2.2720300  
H    -4.3940570    1.5073100    3.0591160  
