60


C    -5.1186510   -0.6190360    2.3556180  
C    -6.2963090   -1.3019960    2.3524710  
C    -6.5709450   -1.6836660    0.9917680  
C    -5.5188080   -1.1788440    0.1913720  
N    -4.6193670   -0.5195780    1.0469870  
C    -5.4433300   -1.4249890   -1.1828770  
C    -6.4664600   -2.1627880   -1.7608030  
O    -6.4394030   -2.4179160   -3.0993890  
C    -7.5385450   -2.6573500   -0.9749310  
O    -8.4759340   -3.3722210   -1.6909350  
C    -7.5983180   -2.4294300    0.3888940  
H    -6.9164040   -1.4959170    3.2172780  
H    -4.6485710   -1.0457640   -1.8120060  
H    -7.2443520   -2.9185730   -3.3170260  
H    -9.2036290   -3.6321650   -1.1068190  
H    -8.4177440   -2.8314920    0.9811110  
H    -4.5969850   -0.1243860    3.1608280  
C    -0.6821550   -0.6317960    2.9450360  
C    -1.9640260   -0.8960360    2.5839670  
C    -2.2729530   -0.0485080    1.4511920  
C    -1.0544970    0.7321770    1.1713250  
N    -0.1378980    0.3463650    2.1199240  
C    -0.9055510    1.6738490    0.1727590  
C    -2.0538610    1.8327140   -0.7333260  
O    -2.0042320    2.4454830   -1.7848710  
C    -3.4076230    1.1183180   -0.3834120  
O    -4.4040030    1.4361380   -1.0017420  
C    -3.4212530    0.1088610    0.7094220  
H    -2.6247810   -1.6146800    3.0431660  
H    -0.0830190   -1.0651450    3.7342480  
H     0.8205920    0.6638430    2.1399780  
C     3.5394170    0.8600220   -0.1496810  
C     2.1760050    0.6726360   -0.0210710  
C     1.5898960    1.9845820   -0.0835230  
C     2.7611920    2.8893100   -0.2687970  
N     3.8887930    2.2353200   -0.2951950  
C     2.6083530    4.3119090   -0.4291210  
C     1.3533840    4.8150360   -0.4098700  
O     1.0636040    6.1172120   -0.5478110  
C     0.1463960    3.9452290   -0.1709130  
O    -0.9268240    4.5183940   -0.0153060  
C     0.3021490    2.4601200   -0.0464680  
H     1.6510580   -0.2695920    0.0517920  
H     3.4822270    4.9383610   -0.5679760  
H     0.0893250    6.1827570   -0.4376800  
C     4.5588000   -0.1559330   -0.1674930  
C     4.3832980   -1.5206800   -0.1613870  
C     5.7069970   -2.0872340   -0.1901930  
C     6.6142720   -0.8926740   -0.2086900  
N     5.9488400    0.2224320   -0.1962000  
C     8.0483370   -1.0400930   -0.2353060  
C     8.5520780   -2.2962030   -0.2479030  
O     9.8613210   -2.5848510   -0.2738940  
C     7.6622460   -3.5177360   -0.2323610  
O     8.2154700   -4.6180300   -0.2432590  
C     6.2049340   -3.3475020   -0.2028060  
H     3.4515980   -2.0694470   -0.1578360  
H     8.6834620   -0.1614730   -0.2477200  
H     9.9091660   -3.5672100   -0.2779870  
H     5.5986760   -4.2481760   -0.1916700  
