66


C    -1.4344370   -0.2310140    0.8883950  
C    -2.7710470    0.0096880    0.6900200  
C    -2.8556840    1.0234790   -0.3437180  
C    -1.5373620    1.3577880   -0.7331470  
N    -0.6830960    0.5807460    0.0407570  
C    -1.2436880    2.3160450   -1.7075160  
C    -2.3178860    2.9614330   -2.3022080  
O    -2.0979560    3.9069050   -3.2618760  
C    -3.6498690    2.6529590   -1.9186710  
O    -4.6104930    3.3832720   -2.5960860  
C    -3.9288420    1.7026870   -0.9533820  
H    -0.2286670    2.5679260   -1.9936610  
H    -2.9669230    4.2610960   -3.5183040  
H    -5.4787810    3.2137040   -2.2016750  
H    -4.9556600    1.4860980   -0.6682090  
H    -0.9344870   -0.9259710    1.5470100  
C     1.4344580   -0.2309610   -0.8884450  
C     2.7710650    0.0097350   -0.6900400  
C     2.8556850    1.0234870    0.3437370  
C     1.5373580    1.3577720    0.7331660  
N     0.6831040    0.5807600   -0.0407820  
C     1.2436680    2.3159850    1.7075750  
C     2.3178560    2.9613530    2.3023050  
O     2.0979090    3.9067760    3.2620190  
C     3.6498450    2.6529100    1.9187630  
O     4.6104530    3.3832150    2.5962050  
C     3.9288320    1.7026830    0.9534330  
H     0.2286430    2.5678420    1.9937260  
H     2.9668720    4.2609380    3.5185010  
H     5.4787810    3.2134800    2.2019550  
H     4.9556540    1.4861210    0.6682530  
H     0.9345190   -0.9258900   -1.5470990  
C    -3.9957160   -0.7595040    2.7722360  
C    -3.8819150   -0.6216930    1.4069960  
C    -5.0611760   -1.2394420    0.8402940  
C    -5.8436950   -1.7266000    1.9186460  
N    -5.1658930   -1.4253570    3.0829920  
C    -7.0587710   -2.3975740    1.7293960  
C    -7.4894210   -2.5869810    0.4254970  
O    -8.6675190   -3.2354090    0.1835760  
C    -6.7129020   -2.1182710   -0.6668380  
O    -7.2697910   -2.3877210   -1.9056830  
C    -5.5144410   -1.4557930   -0.4767590  
H    -5.4910660   -1.6255990    4.0154210  
H    -7.6590090   -2.7733240    2.5519740  
H    -8.7691800   -3.2899460   -0.7822450  
H    -6.6409050   -2.1394850   -2.5992080  
H    -4.9315520   -1.1120600   -1.3282970  
H    -3.3336270   -0.4100600    3.5519530  
C     3.9957730   -0.7593510   -2.7722730  
C     3.8819450   -0.6216120   -1.4070280  
C     5.0611910   -1.2393990   -0.8403350  
C     5.8437340   -1.7264940   -1.9186970  
N     5.1659580   -1.4251830   -3.0830410  
C     7.0588040   -2.3974820   -1.7294590  
C     7.4894250   -2.5869660   -0.4255620  
O     8.6675130   -3.2354150   -0.1836510  
C     6.7128830   -2.1183150    0.6667830  
O     7.2697490   -2.3878280    1.9056260  
C     5.5144280   -1.4558230    0.4767160  
H     5.4911490   -1.6253780   -4.0154750  
H     7.6590580   -2.7731890   -2.5520450  
H     8.7691390   -3.2900270    0.7821710  
H     6.6407890   -2.1397650    2.5991470  
H     4.9315240   -1.1121330    1.3282610  
H     3.3337000   -0.4098640   -3.5519840  
