62


C     1.1918720   -1.4090600    0.3407430  
C     0.5209410   -0.1943250    0.2106950  
C     1.5542990    0.8150030    0.0305610  
C     2.7971380    0.1407910    0.0772600  
N     2.5345480   -1.2097700    0.2548760  
C     4.0543210    0.7708380   -0.0059070  
C     4.0269850    2.1591080   -0.1388120  
O     5.1866710    2.8547690   -0.2615290  
C     2.7919110    2.8594380   -0.1722260  
O     2.9390130    4.2251140   -0.3114040  
C     1.5711010    2.2178590   -0.0910180  
H     3.2440780   -1.9280700    0.2786660  
H     4.9518150    3.7971880   -0.3231610  
H     2.0658030    4.6422210   -0.3564920  
H     0.6487410    2.7846600   -0.1505750  
H     0.7782730   -2.4028890    0.4291910  
C    -2.6481120   -2.3544070    2.4844090  
C    -1.4380120   -1.8707910    2.1072230  
C    -1.7198880   -0.8944120    1.0590480  
C    -3.1931760   -0.9130360    0.9487150  
N    -3.7320750   -1.7752070    1.7702140  
C    -3.9166560   -0.0584860    0.0161340  
C    -3.1580580    0.7982910   -0.7190930  
O    -3.6749120    1.7097070   -1.5612060  
C    -1.6620190    0.8458590   -0.6255000  
O    -1.0987570    1.6790440   -1.3358040  
C    -0.9258380   -0.1006740    0.2730240  
H    -0.4691260   -2.1115870    2.5201320  
H    -2.8990370    2.1579200   -1.9637380  
H    -2.8659840   -3.0908310    3.2484690  
C    -7.4516310    0.4113560    2.7456950  
C    -6.1760190    0.3084390    2.3090290  
C    -6.2821590    0.0317000    0.8793280  
C    -7.7580050    0.0049480    0.6286990  
N    -8.4346620    0.2327680    1.7169410  
C    -8.3037360   -0.2225250   -0.6847370  
C    -7.4322280   -0.4142160   -1.6996470  
O    -7.7934220   -0.6519440   -2.9726910  
C    -5.9419930   -0.4008240   -1.4847920  
O    -5.2373020   -0.6551080   -2.4575360  
C    -5.3835550   -0.1189860   -0.1259470  
H    -5.2629960    0.3792760    2.8798260  
H    -9.3779490   -0.2393520   -0.8315350  
H    -6.9488910   -0.7725580   -3.4601770  
H    -7.7965810    0.6063600    3.7542200  
C     5.5767620   -2.3055220   -2.7744450  
C     6.7344310   -2.6109320   -2.1084790  
C     6.7841060   -1.7767880   -0.9396880  
C     5.6103110   -0.9808260   -0.9495670  
N     4.8806590   -1.3384070   -2.0686400  
C     5.3128290   -0.0150610    0.0355270  
C     6.2526550    0.1299690    1.0562810  
O     6.0305240    1.0196400    2.0630600  
C     7.4332330   -0.6594440    1.0809660  
O     8.2501900   -0.3947360    2.1655670  
C     7.7069070   -1.6045560    0.1109120  
H     7.4672230   -3.3459090   -2.4123780  
H     4.0734120   -0.8359060   -2.4057580  
H     6.8091920    0.9916530    2.6456980  
H     9.0603520   -0.9206350    2.0953600  
H     8.6191220   -2.1960480    0.1592770  
H     5.1749260   -2.7054240   -3.6947790  
