62


C    -5.1739970   -0.6122710   -0.3871580  
C    -5.9105400   -1.7498790   -0.1407230  
C    -7.2977750   -1.4096290   -0.2667730  
C    -7.3575570   -0.0299830   -0.5944080  
N    -6.0568890    0.4438250   -0.6245360  
C    -8.5642860    0.6446570   -0.8097160  
C    -9.7372530   -0.0850140   -0.6843160  
O   -10.9422800    0.5239920   -0.8878650  
C    -9.6984820   -1.4622970   -0.3411590  
O   -10.9475790   -2.0475320   -0.2451460  
C    -8.5038200   -2.1259870   -0.1300510  
H    -5.5006300   -2.7077560    0.1499450  
H    -5.7780620    1.3009290   -1.0787410  
H    -8.6146640    1.6981410   -1.0660880  
H   -11.6305300   -0.1502130   -0.7538440  
H   -10.8486880   -2.9845180   -0.0209460  
H    -8.5002870   -3.1827580    0.1301690  
C    -2.7916780   -1.2850530   -0.8903160  
C    -3.7343810   -0.4028990   -0.4111760  
C    -3.0029680    0.7511630    0.0684530  
C    -1.6269960    0.4933340   -0.1566410  
N    -1.5266260   -0.7506770   -0.7376240  
C    -0.6276590    1.4164830    0.2047660  
C    -1.0311840    2.6126040    0.7967310  
O    -0.0966310    3.5367930    1.1521430  
C    -2.4060120    2.8725030    1.0241780  
O    -2.6376810    4.0956320    1.6189030  
C    -3.3867190    1.9624180    0.6757750  
H    -0.6657250   -1.2114460   -0.9878590  
H    -0.5699610    4.2715980    1.5820630  
H    -3.5631950    4.1560690    1.8991760  
H    -4.4333930    2.1747200    0.8787080  
H    -2.9301770   -2.2534500   -1.3485320  
C     1.5934920    1.9631940   -0.7935880  
C     2.8710050    1.4864620   -0.7969540  
C     2.8970930    0.3067110    0.0210950  
C     1.5082240    0.1242130    0.5040890  
N     0.7534570    1.1664690   -0.0281960  
C     1.0901760   -0.8756880    1.3244700  
C     2.0624920   -1.8843520    1.7137400  
O     1.8070520   -2.8142110    2.4615320  
C     3.5134140   -1.7849390    1.1225480  
O     4.2545910   -2.7418530    1.3118490  
C     3.9111070   -0.5732520    0.3696700  
H     3.6908660    1.9035750   -1.3582140  
H     0.0806680   -0.9465590    1.7133110  
H     1.1833770    2.8289940   -1.2941650  
C     5.3065110   -0.3634710    0.0250610  
C     5.9692930    0.8012440   -0.3130070  
C     7.3543240    0.4843680   -0.5120320  
C     7.4826360   -0.9732160   -0.2613770  
N     6.2176150   -1.4226610    0.0397320  
C     8.6515940   -1.6603970   -0.3349580  
C     9.8658650   -0.9316620   -0.6873750  
O    10.9616440   -1.4652350   -0.7795690  
C     9.7519560    0.6136440   -0.9623210  
O    10.7598940    1.2379290   -1.2616850  
C     8.4373260    1.2428020   -0.8478730  
H     5.5456060    1.7921370   -0.3473550  
H     8.7282040   -2.7264850   -0.1455130  
H     8.3706720    2.3102630   -1.0361160  
H     5.9597410   -2.3309180    0.4051240  
