64


C     5.5137150   -1.3837870   -1.7391480  
C     4.8807840   -0.5990490   -0.7934080  
C     5.8812870   -0.2929290    0.2068100  
C     7.0858140   -0.9237450   -0.1929680  
N     6.8309280   -1.5818800   -1.3806690  
C     8.2673260   -0.8526410    0.5566160  
C     8.2299530   -0.1265520    1.7359140  
O     9.3522240   -0.0149220    2.5058190  
C     7.0304290    0.5089640    2.1543080  
O     7.1511890    1.1945590    3.3506700  
C     5.8669460    0.4318150    1.4145500  
H     7.5179050   -2.0652840   -1.9374110  
H     9.1906730   -1.3333140    0.2495000  
H     9.1204640    0.5478460    3.2648100  
H     6.3319710    1.6823990    3.5212930  
H     4.9673720    0.9452920    1.7403040  
H     5.1336380   -1.7704340   -2.6747140  
C     1.3357350   -3.0297300   -1.6556860  
C     0.3841520   -2.0479530   -1.5451250  
C     1.0618390   -0.8320600   -1.1866080  
C     2.4442380   -1.1449680   -1.1181980  
N     2.5788910   -2.4880170   -1.4069510  
C     3.4611540   -0.2129310   -0.8223510  
C     3.0098670    1.0916490   -0.6052760  
O     3.8969830    2.0909020   -0.3319340  
C     1.6372020    1.4428420   -0.6801040  
O     1.4026410    2.7777250   -0.4302400  
C     0.6300800    0.5063380   -0.9386360  
H    -0.6756400   -2.1794490   -1.7052050  
H     3.4510990   -2.9897590   -1.3402060  
H     3.3547520    2.9044290   -0.3022030  
H     0.7467160    3.0778450   -1.1037580  
H     1.2297240   -4.0768270   -1.9024120  
C    -2.8839830   -1.3059580    1.0692380  
C    -1.6335910   -0.9591000    0.6761650  
C    -1.7579440    0.1276570   -0.2663000  
C    -3.2120930    0.3894040   -0.3917960  
N    -3.8550360   -0.5087330    0.4479730  
C    -3.7648480    1.3269620   -1.2124150  
C    -2.8602620    2.1656930   -1.9726150  
O    -3.2239820    3.0122230   -2.7758110  
C    -1.3150090    2.0080770   -1.7186700  
O    -0.5966670    2.8971940   -2.1746420  
C    -0.8074180    0.8554970   -0.9524610  
H    -0.7107400   -1.4089390    1.0060130  
H    -4.8326340    1.4388030   -1.3613770  
H    -3.2048920   -2.0689420    1.7635480  
C    -6.7914930    2.4821180    1.7734460  
C    -7.8812150    1.6528450    1.7684140  
C    -7.4272910    0.3593890    1.3405200  
C    -6.0323150    0.4747240    1.1003800  
N    -5.6679200    1.7720340    1.3873680  
C    -5.2539460   -0.6160620    0.6665210  
C    -5.9030110   -1.8369000    0.4834820  
O    -5.1925510   -2.9255010    0.0682640  
C    -7.2911720   -1.9605790    0.7408060  
O    -7.7745390   -3.2374150    0.5258530  
C    -8.0552200   -0.8882220    1.1609510  
H    -8.8906930    1.9264500    2.0420310  
H    -4.7614090    2.1719140    1.1986980  
H    -5.8260770   -3.6594280   -0.0205650  
H    -8.7398630   -3.2374640    0.6048670  
H    -9.1183940   -1.0119260    1.3551020  
H    -6.7126520    3.5300040    2.0256630  
