62


C     4.8242380   -0.0540700    0.1581170  
C     5.6082620   -0.1571570    1.2849370  
C     6.9599780   -0.3943560    0.8686360  
C     6.9580220   -0.4269380   -0.5469960  
N     5.6391950   -0.2837500   -0.9726250  
C     8.1206790   -0.6048390   -1.3010920  
C     9.3127810   -0.7669430   -0.6085660  
O    10.4771540   -0.9410390   -1.2948040  
C     9.3312160   -0.7604030    0.8119700  
O    10.5884940   -0.9456280    1.3512710  
C     8.1775470   -0.5809420    1.5529020  
H     5.2419240   -0.1293850    2.3015590  
H     5.4162030    0.1433550   -1.8637950  
H     8.1247540   -0.6254530   -2.3860640  
H    11.1884130   -1.0403280   -0.6384450  
H    10.5346440   -0.9230140    2.3181300  
H     8.2158620   -0.5749270    2.6402730  
C     1.8848930    2.3976440    2.4883230  
C     3.0295850    1.8118010    2.0158310  
C     2.6539050    0.9864460    0.9027300  
C     1.2517540    1.1253900    0.7406610  
N     0.8100770    1.9778760    1.7283460  
C     0.5104890    0.4414380   -0.2522220  
C     1.2561820   -0.3655300   -1.1202080  
O     0.6351700   -0.9991990   -2.1489530  
C     2.6567360   -0.5004090   -0.9869420  
O     3.2169230   -1.3381730   -1.9336620  
C     3.3846310    0.1481490    0.0164470  
H     4.0261830    1.9630740    2.4022970  
H    -0.1406920    2.2987610    1.8292420  
H     1.2979920   -1.5778930   -2.5671880  
H     4.1105290   -1.5944140   -1.6401390  
H     1.7399650    3.0886740    3.3064700  
C    -2.4355640    3.7883810   -0.5887390  
C    -1.2715850    3.1014220   -0.4976450  
C    -1.6614500    1.6972850   -0.4257620  
C    -3.1485700    1.7270310   -0.4952590  
N    -3.5872640    2.9525870   -0.5854020  
C    -3.9728990    0.5116520   -0.4730570  
C    -3.2565950   -0.6538610   -0.4121700  
O    -3.8179400   -1.8820040   -0.4191810  
C    -1.7684350   -0.7137640   -0.3067650  
O    -1.2697690   -1.8253230   -0.1348660  
C    -0.9500600    0.5401740   -0.3614960  
H    -0.2627770    3.4888200   -0.5066920  
H    -3.0565510   -2.4998020   -0.3223730  
H    -2.5761160    4.8593830   -0.6731130  
C    -6.1484180    1.6371270   -1.0863680  
C    -5.4256640    0.6047070   -0.5437160  
C    -6.4663510   -0.3195200   -0.0288700  
C    -7.7527020    0.3462430   -0.3965230  
N    -7.5508430    1.4762260   -1.0181100  
C    -9.0340310   -0.2198080   -0.0698710  
C    -9.0551710   -1.3802570    0.6271230  
O   -10.1726480   -2.0176040    1.0121200  
C    -7.7825330   -2.0578080    1.0475670  
O    -7.8782770   -3.1027520    1.6904740  
C    -6.4794210   -1.4637870    0.6829860  
H    -9.9404610    0.2940110   -0.3702220  
H    -9.8605590   -2.8137300    1.4967230  
H    -5.5929980   -2.0036380    0.9879410  
H    -5.7460050    2.5327140   -1.5350400  
