62


C    -5.1886790    0.1532790   -0.0597440  
C    -5.6510640   -0.5215070    1.0454030  
C    -6.9540700   -1.0417020    0.7388390  
C    -7.2537300   -0.6522610   -0.5888370  
N    -6.1970450    0.1321800   -1.0482080  
C    -8.4397380   -1.0125850   -1.2336600  
C    -9.3513350   -1.7758130   -0.5168300  
O   -10.5234640   -2.1585320   -1.1002840  
C    -9.0782370   -2.1571150    0.8228900  
O   -10.0845910   -2.9028330    1.4056490  
C    -7.9009430   -1.7991040    1.4554050  
H    -5.1385770   -0.5831900    1.9955450  
H    -5.9559270    0.1717420   -2.0312850  
H    -8.6715290   -0.7190220   -2.2524220  
H   -11.0212550   -2.6699550   -0.4392520  
H    -9.8403250   -3.1206020    2.3172600  
H    -7.7119890   -2.1061630    2.4821380  
C    -0.9581670   -0.6968690    1.1156660  
C    -2.3063410   -0.7619150    0.9234110  
C    -2.7011620    0.4350520    0.2304570  
C    -1.5320040    1.2068900    0.0301510  
N    -0.4582600    0.4993280    0.5866000  
C    -1.5321370    2.4049420   -0.6904040  
C    -2.7484580    2.8442080   -1.1896840  
O    -2.8107010    4.0172910   -1.8808040  
C    -3.9359330    2.0996390   -0.9860180  
O    -5.0596270    2.6862580   -1.5306340  
C    -3.9443710    0.8918920   -0.2798140  
H    -2.9523080   -1.5669820    1.2415860  
H    -0.6454580    3.0062750   -0.8450780  
H    -3.7484380    4.1775210   -2.0863540  
H    -5.8512490    2.2243940   -1.1980130  
H    -0.2906690   -1.3688500    1.6347620  
C     3.0778470   -1.7548220   -0.5650060  
C     1.8133640   -1.3234300   -0.3653280  
C     1.8836260    0.0001470    0.2116910  
C     3.3178410    0.3320250    0.3356920  
N     4.0227330   -0.7990160   -0.1487740  
C     3.7900650    1.5151150    0.7994190  
C     2.8200490    2.5276100    1.2087290  
O     3.1441000    3.6416920    1.5862540  
C     1.2907310    2.1817440    1.1608360  
O     0.4893450    2.9795610    1.6075740  
C     0.8943190    0.8656660    0.5954790  
H     0.9109570   -1.8637020   -0.6095180  
H     4.8450300    1.7372480    0.8676380  
H     3.4198790   -2.6859250   -0.9898480  
C     5.3797280   -1.0035060   -0.2422490  
C     6.0286040   -2.1177440   -0.7382190  
C     7.4172850   -1.8203130   -0.6058010  
C     7.4503190   -0.4431720    0.0079020  
N     6.2457970    0.0187210    0.2138990  
C     8.6800210    0.2271370    0.3072550  
C     9.8269660   -0.4337730    0.0126100  
O    11.0490490    0.0483230    0.2276430  
C     9.8329890   -1.8281650   -0.6088950  
O    10.9472420   -2.3129860   -0.8246510  
C     8.5726890   -2.4815750   -0.9001510  
H     5.6060270   -3.0246080   -1.1430040  
H     8.6756560    1.2173570    0.7484850  
H    11.6586240   -0.6617860   -0.0890530  
H     8.6077230   -3.4722920   -1.3413560  
