62


C     5.8086740   -1.6066830   -1.8754050  
C     7.1559040   -1.4626460   -1.9875370  
C     7.5753280   -0.5214330   -0.9819130  
C     6.4171970   -0.0949780   -0.2888970  
N     5.3181190   -0.7723330   -0.8564070  
C     6.4882750    0.7683060    0.8085850  
C     7.7396390    1.2383110    1.1805890  
O     7.8494750    2.0936490    2.2376120  
C     8.9041870    0.8415980    0.4769170  
O    10.0711370    1.3938280    0.9629270  
C     8.8341810   -0.0325920   -0.5934280  
H     7.7852650   -1.9535290   -2.7175060  
H     5.6181100    1.1059530    1.3544720  
H     8.7917530    2.3129430    2.3369510  
H    10.8209520    1.0927770    0.4286650  
H     9.7379180   -0.3464850   -1.1116650  
H     5.1113170   -2.1828890   -2.4639730  
C     2.2911220   -3.9133440   -0.2714320  
C     3.4828950   -3.3088730   -0.4964200  
C     3.2090720   -1.8810840   -0.3913940  
C     1.7608520   -1.8013260   -0.0949690  
N     1.2337390   -2.9960860   -0.0331510  
C     1.0492380   -0.5287110    0.1100070  
C     1.8467840    0.5843580    0.0539290  
O     1.3941000    1.8453780    0.2813790  
C     3.2905210    0.5515880   -0.2493910  
O     3.8886540    1.6295700   -0.3288570  
C     3.9807480   -0.7630910   -0.4691980  
H     4.4410560   -3.7714210   -0.6834010  
H     2.1865810    2.4137600    0.1582250  
H     2.0734920   -4.9742210   -0.2467600  
C    -1.0679180   -1.5677140    0.9761100  
C    -0.3837470   -0.5185270    0.3736370  
C    -1.3904650    0.4935670    0.0828950  
C    -2.6299330   -0.0058580    0.5514710  
N    -2.3881860   -1.2514470    1.1021420  
C    -3.8695820    0.6578270    0.4027610  
C    -3.8155420    1.8815330   -0.2752940  
O    -4.9510410    2.6196290   -0.4541680  
C    -2.5905520    2.3902040   -0.7653000  
O    -2.7174100    3.6084230   -1.4085690  
C    -1.3905340    1.7240720   -0.6011170  
H    -3.1071160   -1.8686370    1.4494840  
H    -4.6827280    3.4464460   -0.8935340  
H    -1.8369720    3.9669810   -1.5943470  
H    -0.4682160    2.1525240   -0.9747110  
H    -0.6822830   -2.5169910    1.3089100  
C    -5.2786060   -0.5422580    2.1442260  
C    -5.1068380    0.0923150    0.9476460  
C    -6.4400590   -0.0032960    0.3069120  
C    -7.2739780   -0.7371280    1.3002400  
N    -6.5900370   -1.0427530    2.3683100  
C    -8.6586700   -1.0434090    1.0495160  
C    -9.1868560   -0.6625410   -0.1378720  
O   -10.4593970   -0.8870330   -0.5089800  
C    -8.3655940    0.0603140   -1.1666500  
O    -8.9143210    0.3719310   -2.2230960  
C    -6.9485130    0.3732540   -0.8805560  
H    -9.2397610   -1.5710120    1.7978160  
H   -10.5381400   -0.4988230   -1.4079990  
H    -6.3972070    0.9204480   -1.6360020  
H    -4.5424090   -0.6630360    2.9311060  
