60


C    -5.2308710    2.2903080   -0.2759090  
C    -5.1249160    0.9209820   -0.0775470  
C    -6.3630070    0.4994700    0.5516610  
C    -7.1644580    1.6576520    0.6922260  
N    -6.4419370    2.7247530    0.1791130  
C    -8.4343890    1.6424650    1.2775630  
C    -8.9078150    0.4250390    1.7417310  
O   -10.1366290    0.3520740    2.3188790  
C    -8.1110750   -0.7470350    1.6324060  
O    -8.7088360   -1.8707860    2.1575370  
C    -6.8552800   -0.7234340    1.0515100  
H    -6.7735720    3.6761100    0.1221030  
H    -9.0444740    2.5329020    1.3870030  
H   -10.2755480   -0.5687140    2.6014210  
H    -8.0938250   -2.6190290    2.1323610  
H    -6.2565170   -1.6303280    1.0203490  
H    -4.5335190    2.9690900   -0.7451840  
C    -3.9941770    0.1225800   -0.4657450  
C    -2.6713910    0.4819150   -0.6505840  
C    -1.9397230   -0.6673110   -1.0707740  
C    -2.9209560   -1.7727890   -1.1222810  
N    -4.1353170   -1.2432590   -0.7109310  
C    -2.6437670   -3.0499170   -1.4794580  
C    -1.2622300   -3.3867080   -1.8056110  
O    -0.9056650   -4.5223490   -2.0746720  
C    -0.1962500   -2.2338750   -1.8140600  
O     0.9045830   -2.4962370   -2.2659420  
C    -0.5965240   -0.8800230   -1.3558740  
H    -2.2585310    1.4525430   -0.4245260  
H    -3.3859530   -3.8425060   -1.4939590  
H    -5.0244630   -1.6733320   -0.9198860  
C     0.3961960    0.1685220   -1.2836980  
C     0.2658550    1.5162290   -1.5110000  
C     1.5721610    2.0853360   -1.3030300  
C     2.4279470    0.9193610   -0.9122120  
N     1.7437340   -0.1797910   -0.8969730  
C     3.8530610    1.0587680   -0.5818360  
C     4.3405080    2.3340760   -0.7008210  
O     5.6309640    2.6717720   -0.5005250  
C     3.5057770    3.5111680   -1.0988420  
O     4.0772370    4.6067240   -1.1691230  
C     2.0843880    3.3341590   -1.3904470  
H    -0.6071410    2.0456940   -1.8641320  
H     5.6551710    3.6425030   -0.6762990  
H     1.5138170    4.2168840   -1.6620560  
C     4.3512220   -1.4183870   -0.5492240  
C     4.6303840   -0.1170300   -0.2117850  
C     5.8443150   -0.2211230    0.6334810  
C     6.1437210   -1.6845780    0.6533490  
N     5.2754050   -2.3641860   -0.0437380  
C     7.2580150   -2.2319050    1.3808230  
C     8.0301450   -1.3785510    2.0936380  
O     9.0937190   -1.7447000    2.8288000  
C     7.7366150    0.0936250    2.1265650  
O     8.4742570    0.8068600    2.8069270  
C     6.5966680    0.6319770    1.3564090  
H     7.4433520   -3.3000220    1.3548370  
H     9.4318940   -0.9096120    3.2216760  
H     6.4426260    1.7022760    1.3930570  
H     3.5155490   -1.7697240   -1.1378760  
