60


C    -5.2135050   -1.9443700    3.3953140  
C    -4.7065450   -1.0367080    2.5037870  
C    -5.2148330   -1.3801440    1.2059500  
C    -6.0473450   -2.5176270    1.3839050  
N    -6.0161480   -2.8471230    2.7225830  
C    -6.7576600   -3.1215650    0.3410780  
C    -6.6470550   -2.5434100   -0.9127330  
O    -7.3229020   -3.0678720   -1.9727360  
C    -5.8399930   -1.3954300   -1.1237340  
O    -5.8176640   -0.9628250   -2.4356310  
C    -5.0891520   -0.8118330   -0.0941910  
H    -4.0339770   -0.2278770    2.7452090  
H    -6.5451250   -3.5911200    3.1490400  
H    -7.3896630   -3.9924030    0.4834360  
H    -7.1059890   -2.4906100   -2.7295100  
H    -5.9929420    0.0016560   -2.4397910  
H    -5.0649010   -2.0302350    4.4624580  
C    -0.8570710   -0.1424790    0.8276600  
C    -0.6195190    1.1318790    0.3796090  
C    -1.9318350    1.5543380   -0.1724830  
C    -2.8235430    0.3845850    0.0632610  
N    -2.1761340   -0.5904110    0.6451300  
C    -4.2229880    0.3548220   -0.3593580  
C    -4.6256040    1.4504430   -1.0680180  
O    -5.8810340    1.5874110   -1.5826170  
C    -3.7602790    2.6188740   -1.3468540  
O    -4.2442090    3.5616010   -1.9815930  
C    -2.3682610    2.6288350   -0.8530540  
H    -5.8749940    2.4737180   -2.0145070  
H    -1.7755760    3.5106560   -1.0608340  
H    -0.1538940   -0.7946110    1.3300000  
C     3.6541370   -0.1597630    0.0157090  
C     2.2718260   -0.1590220    0.0172570  
C     1.8759860    1.1835620    0.2939190  
C     3.1711800    1.9209670    0.4373780  
N     4.1992020    1.1346310    0.2822230  
C     3.2256990    3.3325860    0.7012290  
C     2.0471710    3.9882580    0.7904960  
O     1.9342180    5.3024370    1.0143660  
C     0.7127880    3.2833390    0.6419020  
O    -0.2820740    4.0036920    0.7484740  
C     0.6560640    1.8240210    0.4070250  
H     1.6166790   -0.9937800   -0.1834110  
H     4.1803720    3.8352840    0.8067620  
H     0.9662310    5.4799750    1.0326810  
C     4.1973020   -2.5543210   -0.4850070  
C     4.5571540   -1.2507070   -0.2186610  
C     6.0263550   -1.2255590   -0.2301760  
C     6.4619020   -2.6108360   -0.5234830  
N     5.2980330   -3.3537540   -0.6649550  
C     7.7485430   -3.0238220   -0.6237750  
C     8.8051060   -2.0320170   -0.4287860  
O     9.9929510   -2.3036300   -0.4980360  
C     8.3720230   -0.5542610   -0.1167470  
O     9.2362080    0.2900050    0.0493370  
C     6.9369400   -0.2393420   -0.0353560  
H     8.0348590   -4.0484200   -0.8404540  
H     6.6368040    0.7788600    0.1796990  
H     3.2048370   -2.9786490   -0.5597940  
H     5.2687100   -4.3421480   -0.8667350  
