64


C     1.3965020    0.4368980   -1.3283170  
C     2.7214140    0.3754010   -0.9670450  
C     2.8989990    1.3651780    0.0734120  
C     1.6451570    1.9865320    0.2922710  
N     0.7301260    1.4118870   -0.5859070  
C     1.4566180    2.9889560    1.2507510  
C     2.5626190    3.3863270    1.9856260  
O     2.4369630    4.3657620    2.9293320  
C     3.8326190    2.7918890    1.7629130  
O     4.8392000    3.3001130    2.5656010  
C     4.0123430    1.7951340    0.8223020  
H     0.4993610    3.4688960    1.4149600  
H     3.3238940    4.5238430    3.2961120  
H     5.6926030    2.9536030    2.2658330  
H     4.9929820    1.3531320    0.6623610  
H     0.8639540   -0.1183690   -2.0882810  
C    -2.4316600   -1.4023690    0.2429630  
C    -3.5225360   -0.5731490    0.0062420  
C    -2.9691010    0.7142350   -0.3864520  
C    -1.5624060    0.5777010   -0.3460480  
N    -1.2697380   -0.7200600    0.0312240  
C    -0.6689730    1.6277220   -0.6238170  
C    -1.2255250    2.8636870   -0.9450700  
O    -0.4233080    3.9186250   -1.2437550  
C    -2.6365120    3.0218180   -0.9608000  
O    -3.0354970    4.3017700   -1.2880890  
C    -3.5045110    1.9804930   -0.6940150  
H    -0.3357440   -1.1014460    0.0841540  
H    -1.0048900    4.6750920   -1.4372830  
H    -4.0004430    4.3302350   -1.3697520  
H    -4.5763680    2.1344140   -0.7473520  
H    -2.4230460   -2.4513710    0.4999950  
C     3.9659740   -0.6896180   -2.9018700  
C     3.7400360   -0.4959390   -1.5572640  
C     4.6870590   -1.3431870   -0.8644210  
C     5.4523640   -2.0175980   -1.8502980  
N     4.9854840   -1.6047110   -3.0821190  
C     6.4617840   -2.9342200   -1.5289530  
C     6.6996930   -3.1805940   -0.1857900  
O     7.6738850   -4.0644430    0.1831190  
C     5.9345550   -2.5255240    0.8150410  
O     6.2833850   -2.8802300    2.1068520  
C     4.9386430   -1.6216370    0.4945100  
H     5.3619740   -1.8877490   -3.9729050  
H     7.0489550   -3.4519930   -2.2807780  
H     7.6672320   -4.1077610    1.1547780  
H     5.6866910   -2.4422190    2.7314940  
H     4.3610310   -1.1352420    1.2774360  
H     3.4859100   -0.2215120   -3.7497140  
C    -5.5928480   -3.3409600    2.8332510  
C    -4.6529230   -2.5316670    2.2835940  
C    -5.3043370   -1.9095740    1.1332040  
C    -6.6742190   -2.4704050    1.1605120  
N    -6.8397830   -3.3137490    2.1457290  
C    -7.6770460   -2.0899740    0.1959180  
C    -7.3333620   -1.1755380   -0.7368540  
O    -8.1732890   -0.7046580   -1.6808200  
C    -5.9562930   -0.5813490   -0.7946730  
O    -5.7528560    0.2541120   -1.6756790  
C    -4.8964460   -1.0218700    0.1748090  
H    -3.6503640   -2.3434600    2.6395510  
H    -8.6705730   -2.5218150    0.2451270  
H    -7.6388450   -0.0722580   -2.2075480  
H    -5.5008770   -3.9668100    3.7130150  
