62


C     2.7670530    3.2555130   -1.8319410  
C     3.6836560    2.2997180   -1.4809390  
C     2.9963040    1.3405240   -0.6643970  
C     1.6540400    1.7759850   -0.5478410  
N     1.5459040    2.9490780   -1.2591700  
C     0.6411380    1.0444890    0.1276040  
C     1.0604700   -0.1652110    0.7156230  
O     0.2098580   -0.8952330    1.4718010  
C     2.4035280   -0.6077160    0.6045240  
O     2.6433420   -1.7957500    1.2617570  
C     3.3894870    0.1114800   -0.0717980  
H     4.7261300    2.2760940   -1.7622190  
H     0.6708040    3.4133470   -1.4506130  
H     0.7041690   -1.6733770    1.7888730  
H     3.6041700   -1.9468020    1.2971880  
H     2.8800540    4.1445170   -2.4359280  
C    -0.7241710    1.5221260    0.2004090  
C    -1.1716770    2.8226780    0.2437790  
C    -2.6073180    2.7495480    0.2726110  
C    -2.8989050    1.2777000    0.2044910  
N    -1.8096910    0.5735250    0.1718350  
C    -4.2604380    0.7662530    0.1701560  
C    -5.2489490    1.7007110    0.2707750  
O    -6.5490340    1.4035380    0.3255310  
C    -4.9773230    3.1873220    0.3697620  
O    -5.9666880    3.9194840    0.4526840  
C    -3.6028990    3.6673870    0.3557660  
H    -0.5795580    3.7204920    0.3574390  
H    -7.0055480    2.2760840    0.3841180  
H    -3.4432360    4.7395590    0.4118810  
C    -3.1715290   -3.0211880    2.3405920  
C    -3.1958940   -1.7204900    1.9722850  
C    -4.0729170   -1.6704900    0.8049950  
C    -4.4931090   -3.0947600    0.6121670  
N    -3.9740590   -3.8757360    1.5147220  
C    -5.3913700   -3.4902430   -0.4422120  
C    -5.8482360   -2.5245330   -1.2694820  
O    -6.6744880   -2.7446550   -2.3073630  
C    -5.4416180   -1.0841740   -1.1120890  
O    -5.8446380   -0.2963180   -1.9633760  
C    -4.5570960   -0.6720910    0.0232440  
H    -2.6517500   -0.8929800    2.3997540  
H    -5.6734030   -4.5313050   -0.5536960  
H    -6.7984620   -1.8650820   -2.7271880  
H    -2.6283310   -3.4699920    3.1639550  
C     7.3420110    1.7450930    1.3640640  
C     6.0117800    1.5757110    1.0795100  
C     5.8848880    0.3243720    0.3872570  
C     7.1895220   -0.2278580    0.2858090  
N     8.0558600    0.6606370    0.8882190  
C     7.4505080   -1.4623090   -0.3215190  
C     6.3706230   -2.1567170   -0.8413780  
O     6.5659380   -3.3566940   -1.4596080  
C     5.0549570   -1.6315830   -0.7445870  
O     4.0949070   -2.4371220   -1.3211280  
C     4.7823720   -0.4027650   -0.1369000  
H     5.2151220    2.2619340    1.3269620  
H     9.0523260    0.5352410    0.9720350  
H     8.4484280   -1.8805790   -0.4051390  
H     5.7001560   -3.6527860   -1.7912070  
H     3.2575070   -1.9467690   -1.3798430  
H     7.8484110    2.5549780    1.8699400  
