62


C    -3.7438140    0.2052570   -0.0397080  
C    -2.3722950    0.2571390    0.0178910  
C    -1.9607910    1.6138950   -0.2014250  
C    -3.1437550    2.3739180   -0.3740950  
N    -4.2300960    1.5178540   -0.2174200  
C    -3.1468780    3.7491650   -0.6082360  
C    -1.9141680    4.3851920   -0.6303820  
O    -1.8394840    5.7277130   -0.8417700  
C    -0.7127580    3.6627100   -0.4195770  
O     0.4252920    4.4420380   -0.4857690  
C    -0.6998750    2.2734360   -0.2274680  
H    -1.7321470   -0.5844690    0.2298530  
H    -5.1068270    1.6848400   -0.6961250  
H    -4.0572060    4.3237260   -0.7459360  
H    -0.8895270    5.9464660   -0.7877640  
H     0.9722340    4.2433130    0.3036470  
C     0.8955590   -1.3107070   -2.2592750  
C     2.1050920   -1.4629270   -1.6732180  
C     2.2088560   -0.3614530   -0.7212710  
C     0.9064890    0.3616700   -0.8564820  
N     0.1543770   -0.1958140   -1.7601020  
C     0.5767340    1.5471700   -0.0601350  
C     1.5688330    1.9528040    0.7810660  
O     1.4703500    3.0636300    1.5657380  
C     2.8840750    1.2740310    0.9259230  
O     3.7149180    1.8017670    1.6646840  
C     3.1733870    0.0320730    0.1463970  
H     2.8495380   -2.2231080   -1.8603300  
H     2.3303110    3.1059270    2.0461610  
H     0.4432580   -1.9226720   -3.0303690  
C     6.5731470   -0.9996440   -2.5558600  
C     5.3878390   -0.5616900   -2.0536640  
C     5.3805690   -0.8643590   -0.6397560  
C     6.6836260   -1.5181200   -0.3546820  
N     7.3500180   -1.5818520   -1.5640060  
C     7.0964480   -1.9314170    0.8699290  
C     6.2037250   -1.7255110    2.0041720  
O     6.4941350   -2.0344850    3.1484250  
C     4.7979730   -1.0836650    1.7314230  
O     3.9958300   -1.0203060    2.6457060  
C     4.4705870   -0.6274180    0.3576230  
H     4.5981850   -0.0802940   -2.6097830  
H     8.0635980   -2.3896860    1.0521280  
H     6.9456910   -0.9482460   -3.5704590  
H     8.2866280   -1.9337000   -1.6864040  
C    -3.5056700   -4.0826940   -1.3280770  
C    -3.2450480   -2.7525640   -1.1230370  
C    -4.3454660   -2.2171520   -0.3712070  
C    -5.2576470   -3.2830500   -0.1565090  
N    -4.7168760   -4.4083060   -0.7451450  
C    -6.4723220   -3.1247290    0.5216540  
C    -6.7706350   -1.8571300    0.9956140  
O    -7.9331660   -1.6414030    1.6795080  
C    -5.8794960   -0.7739980    0.7939880  
O    -6.3229720    0.4172040    1.3421630  
C    -4.6629540   -0.9211820    0.1201230  
H    -2.3816170   -2.2088800   -1.4780340  
H    -5.1441420   -5.3206950   -0.7550100  
H    -7.1681860   -3.9404970    0.6890040  
H    -7.9191720   -0.7114980    1.9669070  
H    -5.5803940    1.0479040    1.3652450  
H    -2.9276050   -4.8351520   -1.8459430  
