62


C     0.0573630   -1.7819640   -1.6728940  
C    -1.2388180   -2.2093260   -1.6054880  
C    -1.2861640   -3.2720340   -0.6373450  
C     0.0329320   -3.4556510   -0.1515850  
N     0.8546050   -2.5268930   -0.8001970  
C     0.3386130   -4.3882260    0.8459450  
C    -0.6997130   -5.1617910    1.3413780  
O    -0.4499250   -6.0907400    2.3099870  
C    -2.0227270   -5.0009720    0.8540240  
O    -2.9460150   -5.8433940    1.4440490  
C    -2.3250630   -4.0698440   -0.1226270  
H    -2.0575470   -1.8453930   -2.2126170  
H     1.3433300   -4.5476340    1.2156640  
H    -1.2891310   -6.5451520    2.4966400  
H    -3.8073900   -5.7261050    1.0170750  
H    -3.3475770   -3.9544810   -0.4776980  
H     0.5176470   -1.0377650   -2.3058650  
C     2.9843770    1.2152770   -0.0432340  
C     2.0312210    0.2396160   -0.2263100  
C     2.7008810   -1.0137030   -0.3811890  
C     4.1493830   -0.7314200   -0.2746510  
N     4.2564000    0.6268440   -0.0845750  
C     5.1277030   -1.6742100   -0.3385330  
C     4.7324860   -3.0590520   -0.5289760  
O     5.5221550   -3.9914100   -0.5581450  
C     3.1994730   -3.3915530   -0.7076660  
O     2.8760070   -4.5403100   -0.9559580  
C     2.2256260   -2.2866660   -0.5876200  
H     0.9714910    0.4132760   -0.2313790  
H     6.1844830   -1.4465110   -0.2438000  
H     5.1142170    1.1411120    0.0482060  
C    -0.6935850    3.6188070    0.1875540  
C    -0.1657380    4.8765710    0.3899550  
C     1.2484770    4.7080740    0.4159620  
C     1.4598000    3.2326710    0.2051130  
N     0.3281590    2.6118730    0.0721590  
C     2.7979700    2.6376240    0.1652000  
C     3.8259610    3.5286290    0.3384230  
O     5.1230570    3.1906780    0.3385050  
C     3.6362870    5.0125110    0.5518350  
O     4.6830100    5.6643300    0.6891330  
C     2.3031820    5.5600130    0.5818230  
H    -0.7043780    5.8056320    0.5113660  
H     5.5901020    4.0559280    0.4862030  
H     2.1953190    6.6285490    0.7361660  
C    -2.0348600    3.1633350    0.0838490  
C    -3.2579800    3.8418270    0.1479350  
C    -4.2836820    2.8853300   -0.0079770  
C    -3.6480600    1.6092210   -0.1672990  
N    -2.3005420    1.8123290   -0.1099540  
C    -4.3706300    0.4219960   -0.3408140  
C    -5.7507030    0.5193700   -0.3581040  
O    -6.5069690   -0.5935050   -0.5220790  
C    -6.4063830    1.7859930   -0.2035450  
O    -7.7787200    1.6904990   -0.2471730  
C    -5.6995450    2.9519290   -0.0307660  
H    -3.3742280    4.9070610    0.2931130  
H    -1.5736950    1.1148810   -0.1921470  
H    -3.8897380   -0.5437700   -0.4521720  
H    -7.4418830   -0.3215900   -0.5051440  
H    -8.1758960    2.5670000   -0.1330850  
H    -6.2147910    3.9024300    0.0866490  
