64


C    -5.2870950   -1.1587180   -2.0004960  
C    -4.9763620   -0.6569660   -0.7537820  
C    -6.1811990   -0.0094830   -0.2703280  
C    -7.1734210   -0.1631300   -1.2728440  
N    -6.5964850   -0.8633480   -2.3132700  
C    -8.4666340    0.3590590   -1.1457350  
C    -8.7648230    1.0540400    0.0156230  
O   -10.0101380    1.5801230    0.1924100  
C    -7.7810350    1.2301160    1.0263240  
O    -8.2276840    1.9518070    2.1155710  
C    -6.5049470    0.7148580    0.8982490  
H    -7.0658690   -1.1356300   -3.1628870  
H    -9.2265720    0.2441650   -1.9118950  
H   -10.0120580    2.0351780    1.0523180  
H    -7.5051110    2.0611400    2.7515450  
H    -5.7658400    0.8725660    1.6799590  
H    -4.6696950   -1.7284150   -2.6803990  
C    -0.8041710    0.3578980   -2.0182340  
C    -2.1495100    0.1689150   -1.9620890  
C    -2.4541350   -0.4279190   -0.6867270  
C    -1.2293270   -0.5981220    0.0010300  
N    -0.2046540   -0.1178630   -0.8401030  
C    -1.1717760   -1.0586940    1.3188030  
C    -2.3722180   -1.3962960    1.9265100  
O    -2.3681250   -1.8770820    3.2034820  
C    -3.6023920   -1.2643180    1.2402010  
O    -4.6976670   -1.6690950    1.9730730  
C    -3.6772630   -0.7788850   -0.0666190  
H    -2.8558350    0.4162200   -2.7415290  
H    -0.2479210   -1.1911320    1.8652830  
H    -3.2888530   -2.0978040    3.4276910  
H    -5.4874070   -1.6330420    1.4066030  
H    -0.1788370    0.7350790   -2.8127840  
C     2.8036230    3.0167620   -1.5802140  
C     1.6057240    2.3906940   -1.4738320  
C     1.9114360    1.0788770   -0.9134420  
C     3.3804950    1.0963100   -0.7241740  
N     3.8934240    2.2278710   -1.1245770  
C     4.1263650   -0.0379090   -0.1657830  
C     3.3608310   -1.1285630    0.1243830  
O     3.8807440   -2.2923610    0.6250750  
C     1.8957810   -1.2008760   -0.0534640  
O     1.3378820   -2.2670720    0.2172250  
C     1.1580560   -0.0063690   -0.5810140  
H     0.6276750    2.7731050   -1.7273040  
H     3.1030660   -2.8895100    0.7191100  
H     3.0058740    4.0147890   -1.9494480  
C     6.9381030    2.8985780    1.8062670  
C     5.8215160    2.2604400    1.3357280  
C     6.2587800    1.0754920    0.6541670  
C     7.6754910    1.0467940    0.7601790  
N     8.0617770    2.1737300    1.4544190  
C     8.4654630    0.0121860    0.2484830  
C     7.8043310   -1.0403640   -0.3621250  
O     8.5071430   -2.0909840   -0.8706870  
C     6.3894480   -1.0583780   -0.4658240  
O     5.8959340   -2.1662840   -1.1250890  
C     5.5916280   -0.0036580    0.0032220  
H     4.8064000    2.6103420    1.4403580  
H     9.0102590    2.4048550    1.7032860  
H     9.5478430    0.0003250    0.3288880  
H     7.8343320   -2.7025880   -1.2262630  
H     5.1697510   -2.5408750   -0.5814690  
H     7.0310650    3.8218590    2.3605120  
