62


C    -0.7805240   -0.6306920    0.1595840  
C    -0.8001640   -2.0134130    0.2688630  
C    -2.1501070   -2.4307560    0.1280360  
C    -2.9346850   -1.2568120   -0.0600170  
N    -2.0900640   -0.1665490    0.0085010  
C    -4.3382960   -1.2704110   -0.2455140  
C    -4.9057140   -2.5489670   -0.2532700  
O    -6.2523340   -2.7044330   -0.4276240  
C    -4.1351090   -3.7322220   -0.0545920  
O    -4.8961140   -4.8820720   -0.0812310  
C    -2.7753580   -3.6950980    0.1470260  
H     0.0554260   -2.6414640    0.4765080  
H    -2.3104300    0.6487120   -0.5598380  
H    -6.4231190   -3.6622910   -0.4930250  
H    -4.3200310   -5.6611430   -0.0760110  
H    -2.2048340   -4.6063880    0.3073170  
C     0.3222490    0.2716670    0.2392520  
C     1.6825030    0.0246590    0.1258460  
C     2.3811940    1.2515960    0.2770260  
C     1.3410500    2.2842300    0.4819550  
N     0.1164890    1.6371790    0.4190450  
C     1.5748850    3.6020890    0.6925740  
C     2.9544430    4.0632620    0.6489240  
O     3.2770880    5.2248980    0.8378730  
C     4.0761830    3.0189770    0.3138920  
O     5.2046210    3.4704900    0.1336980  
C     3.7367350    1.5872730    0.2365600  
H     2.1061320   -0.9314490   -0.1337120  
H     0.7900590    4.3305600    0.8706030  
H    -0.7333840    2.0221560    0.8063420  
C     4.7926050    0.5999780    0.1296830  
C     4.7720900   -0.7645130    0.3669100  
C     6.0936940   -1.2754630    0.1602000  
C     6.9298800   -0.1086140   -0.2202490  
N     6.0881750    0.9776350   -0.2329680  
C     8.2595280   -0.1788490   -0.4893340  
C     8.9189160   -1.4774970   -0.4069600  
O    10.1102790   -1.6365670   -0.6327580  
C     8.0508140   -2.7288000   -0.0094800  
O     8.5914200   -3.8250370    0.0595160  
C     6.6313950   -2.5269670    0.2598410  
H     3.9340050   -1.3406490    0.7233660  
H     8.8568970    0.6851050   -0.7635230  
H     6.0424040   -3.3964680    0.5368100  
H     6.3385690    1.9557220   -0.3191380  
C    -8.0641240    0.0286850    1.8170250  
C    -8.1497930    1.2842920    1.2803750  
C    -7.0504770    1.4228300    0.3680310  
C    -6.3212690    0.2016170    0.4016480  
N    -6.9447980   -0.6160990    1.3218700  
C    -5.1465850   -0.0259060   -0.3581160  
C    -4.7639090    1.0405920   -1.1798540  
O    -3.6368650    0.9442730   -1.9708970  
C    -5.4800110    2.2599130   -1.2236110  
O    -4.9261620    3.1956770   -2.0831920  
C    -6.6094650    2.4702010   -0.4586290  
H    -8.8968580    2.0308720    1.5116830  
H    -6.8235110   -1.6183460    1.3230340  
H    -3.6348170    1.7352510   -2.5418490  
H    -5.5735290    3.8930310   -2.2645180  
H    -7.1363580    3.4211080   -0.4947560  
H    -8.7061300   -0.4685900    2.5307270  
