64


C     4.1737730   -2.4912060   -2.5403900  
C     4.0066600   -1.2303080   -2.0276820  
C     4.7445260   -1.1661570   -0.7933390  
C     5.3546170   -2.4375820   -0.6211920  
N     4.9726360   -3.2280970   -1.6870990  
C     6.2086440   -2.7387270    0.4450930  
C     6.4702350   -1.7163990    1.3420200  
O     7.3114850   -1.9209170    2.3911630  
C     5.8763680   -0.4316610    1.1998540  
O     6.2336970    0.4523120    2.1898780  
C     4.9823500   -0.1362820    0.1669490  
H     3.4352820   -0.4381130   -2.4889760  
H     5.3160670   -4.1583060   -1.8673730  
H     6.6822860   -3.7072190    0.5697150  
H     7.3721890   -1.0570730    2.8441720  
H     6.4019880    1.3197470    1.7473840  
H     3.7918850   -2.9281700   -3.4523830  
C     0.7132660    0.8167320   -0.3265770  
C     0.8050120    2.1878880   -0.4321480  
C     2.1868010    2.5555720   -0.3025900  
C     2.9339860    1.2870300   -0.1172240  
N     1.9933310    0.2884490   -0.1370990  
C     4.2950580    1.1741890    0.0596630  
C     5.0046800    2.4486980    0.1764110  
O     6.1758450    2.5453660    0.5503480  
C     4.2632240    3.7968770   -0.1525620  
O     4.9292880    4.8201730   -0.2103390  
C     2.8229520    3.7606770   -0.3382350  
H     0.0006840    2.8690910   -0.6657110  
H     2.3056340    4.6982840   -0.5150930  
H     2.2001120   -0.7009120   -0.1717500  
C    -3.4964120    1.7313600    0.6404950  
C    -4.0430580    0.5058610    0.3320390  
C    -2.9332160   -0.3249280   -0.0921770  
C    -1.7580680    0.4640910   -0.0275470  
N    -2.1356890    1.7148340    0.4077170  
C    -0.4703800   -0.0323910   -0.3584080  
C    -0.4214390   -1.3884590   -0.7201690  
O     0.7745760   -1.9693220   -1.0217270  
C    -1.5936450   -2.1773530   -0.8105840  
O    -1.3503650   -3.4734140   -1.2169480  
C    -2.8420380   -1.6652080   -0.5169840  
H    -1.4887680    2.4298520    0.7045000  
H     0.6050860   -2.8979860   -1.2609550  
H    -2.1824810   -3.9682870   -1.2530020  
H    -3.7304460   -2.2860710   -0.5929260  
H    -3.9809630    2.6225140    1.0128030  
C    -7.7643360    2.4048310   -1.3379630  
C    -6.4652180    2.1196050   -1.0080100  
C    -6.4819770    0.9248580   -0.2100160  
C    -7.8402320    0.5248740   -0.0950270  
N    -8.5973400    1.4467860   -0.7891350  
C    -8.2415820   -0.6194120    0.6046170  
C    -7.2463360   -1.3734040    1.2054970  
O    -7.5746940   -2.4912060    1.9193090  
C    -5.8845580   -0.9941990    1.1014210  
O    -5.0160090   -1.8437630    1.7692660  
C    -5.4713780    0.1392640    0.4034710  
H    -5.5955420    2.6862010   -1.3083250  
H    -9.6004920    1.4232240   -0.8817710  
H    -9.2792650   -0.9228340    0.6987220  
H    -6.7499470   -2.8251460    2.3132580  
H    -4.1610460   -1.3942720    1.8718540  
H    -8.1730850    3.2154430   -1.9246640  
