64


C     3.3468440   -0.7580190   -2.7872340  
C     3.0578840   -0.5722960   -1.4557040  
C     3.6165340   -1.6829370   -0.7288670  
C     4.2391710   -2.5173910   -1.6903090  
N     4.0485120   -1.9361480   -2.9302360  
C     4.8935330   -3.7064370   -1.3423060  
C     4.9165410   -4.0538330   -0.0010950  
O     5.5439310   -5.1979380    0.3937480  
C     4.2911890   -3.2282230    0.9741550  
O     4.3959620   -3.7154140    2.2616790  
C     3.6444100   -2.0572040    0.6293990  
H     4.4011710   -2.2973700   -3.8026030  
H     5.3771820   -4.3483890   -2.0714410  
H     5.4701570   -5.2477990    1.3626700  
H     4.0385260   -3.0660130    2.8855050  
H     3.1742920   -1.4366300    1.3883420  
H     3.1061430   -0.1367510   -3.6376130  
C     0.9808260    0.7718390   -1.2181920  
C     0.5428660    1.8798250   -0.5266970  
C     1.6718470    2.3231870    0.2675480  
C     2.7501830    1.4433320   -0.0034480  
N     2.3046150    0.4948370   -0.9172290  
C     4.0080280    1.5800570    0.5974480  
C     4.1748560    2.6163180    1.5030470  
O     5.3795890    2.7945820    2.1187160  
C     3.1002950    3.4958290    1.8037580  
O     3.4184970    4.4670920    2.7327800  
C     1.8620140    3.3633760    1.2033210  
H     4.8339320    0.9125570    0.3792930  
H     5.2912950    3.5646400    2.7065910  
H     2.6441920    5.0260820    2.8957330  
H     1.0514200    4.0432130    1.4544060  
H     0.4522460    0.1490020   -1.9253250  
C    -3.5985600    0.1154160   -0.1063380  
C    -2.2160490    0.3129290   -0.1672020  
C    -1.9857190    1.6881140   -0.4480590  
C    -3.2648850    2.3078380   -0.5468060  
N    -4.2115180    1.3353970   -0.3490370  
C    -3.4255110    3.6774460   -0.7875280  
C    -2.2707050    4.4295460   -0.9289270  
O    -2.3561470    5.7666770   -1.1775040  
C    -0.9839550    3.8293650   -0.8334540  
O     0.0533310    4.7217510   -1.0242410  
C    -0.8060840    2.4707790   -0.5962000  
H    -1.4521060   -0.4103680    0.0768690  
H    -5.2143850    1.4452120   -0.2603390  
H    -4.3967370    4.1540940   -0.8644940  
H    -1.4455870    6.0953040   -1.2793920  
H     0.8919300    4.2299490   -1.0421420  
C    -2.5303190   -4.1485580   -0.2301750  
C    -3.6932650   -4.6803350    0.2296070  
C    -4.6076880   -3.5840070    0.4631990  
C    -3.8703570   -2.3571820    0.1170790  
N    -2.6010940   -2.7601870   -0.2608900  
C    -4.3745910   -1.0756070    0.1694330  
C    -5.8128140   -0.9865320    0.5128230  
O    -6.4555440    0.0546530    0.4487300  
C    -6.5869950   -2.2804380    0.9779000  
O    -7.7392820   -2.1411690    1.3641430  
C    -5.9009640   -3.5544780    0.9039720  
H    -3.9024240   -5.7279690    0.3905560  
H    -6.4445230   -4.4479350    1.1934390  
H    -1.6177380   -4.6453930   -0.5322810  
H    -1.9766270   -2.1649120   -0.7853280  
