62


C     4.5103250   -0.6518750   -0.3871430  
C     5.0326220   -1.9195690   -0.5432470  
C     6.4571210   -1.8202230   -0.4408890  
C     6.7613080   -0.4514920   -0.2149040  
N     5.5624440    0.2328690   -0.1597520  
C     8.0718730    0.0191070   -0.0725480  
C     9.0971940   -0.9104270   -0.1547060  
O    10.3940980   -0.5056470   -0.0269960  
C     8.8122960   -2.2862280   -0.3684130  
O     9.9390510   -3.0858180   -0.4197070  
C     7.5171840   -2.7477390   -0.5082640  
H     4.4519650   -2.8236840   -0.6686070  
H     5.4718020    1.2370190   -0.1917970  
H     8.3083800    1.0643550    0.0982220  
H    10.9523260   -1.2979650   -0.1089730  
H     9.6755830   -4.0057260   -0.5689650  
H     7.3248670   -3.8062520   -0.6728060  
C     2.1423670   -0.7088150   -1.2323750  
C     3.1317360   -0.1956970   -0.4405790  
C     2.5158930    0.8740490    0.3439520  
C     1.0946670    0.9261850   -0.0680040  
N     0.9199800   -0.0962300   -0.9859100  
C     0.1657860    1.8194300    0.3816610  
C     0.6216420    2.7856110    1.4046420  
O    -0.1231400    3.5883620    1.9373760  
C     2.1262450    2.7397430    1.8643570  
O     2.5104410    3.5530610    2.6900880  
C     3.0060080    1.7235060    1.2864680  
H     4.0320810    1.6896480    1.6377660  
H     2.2160660   -1.4939460   -1.9729770  
H     0.1095990   -0.1644660   -1.5850340  
C    -2.9646040   -1.2649200    0.7751860  
C    -3.9914510   -0.6069410    0.1179960  
C    -3.4411190    0.6642140   -0.3123820  
C    -2.0932730    0.7035230    0.1174710  
N    -1.8281380   -0.4899570    0.7621500  
C    -1.2393420    1.8111720   -0.0788260  
C    -1.8001000    2.9072760   -0.7348120  
O    -1.0317990    3.9935860   -1.0065820  
C    -3.1513380    2.8840660   -1.1714260  
O    -3.5390140    4.0402100   -1.8173390  
C    -3.9699320    1.7909810   -0.9720090  
H    -0.9522040   -0.7244630    1.2031640  
H    -1.6064530    4.6582120   -1.4254750  
H    -4.4468100    3.9416700   -2.1414880  
H    -4.9873500    1.7875710   -1.3482070  
H    -2.9441320   -2.2633140    1.1896550  
C    -6.6115920   -2.7044400    2.9276300  
C    -7.6756190   -2.9539900    2.1198440  
C    -7.3698220   -2.3990360    0.8190100  
C    -6.0189280   -1.8063610    0.9337450  
N    -5.5956560   -2.0643080    2.2287880  
C    -5.3500240   -1.1312500   -0.0533020  
C    -6.0767730   -0.9957120   -1.3336690  
O    -5.6200720   -0.4033840   -2.2990380  
C    -7.5077770   -1.6457190   -1.4844300  
O    -8.0825660   -1.5199450   -2.5559760  
C    -8.0794770   -2.3433970   -0.3429310  
H    -8.5840510   -3.4700920    2.3946350  
H    -9.0675360   -2.7793250   -0.4518050  
H    -6.4721370   -2.9488690    3.9726670  
H    -4.8069570   -1.5905820    2.6458660  
