60


C    -4.4022720    0.3900680   -2.5267770  
C    -3.2816130   -0.1230170   -1.9200290  
C    -3.7151590   -0.8590780   -0.7653420  
C    -5.1323700   -0.7648190   -0.7388490  
N    -5.5188620    0.0173300   -1.8089500  
C    -5.9252780   -1.4156550    0.2093880  
C    -5.2690210   -2.2115660    1.1366960  
O    -5.9793340   -2.8865980    2.0769330  
C    -3.8556790   -2.3475360    1.1323110  
O    -3.3866800   -3.1533280    2.1377130  
C    -3.0423080   -1.6493180    0.2246410  
H    -2.2687100    0.0007400   -2.2730870  
H    -6.4730940    0.2102460   -2.0702250  
H    -7.0081390   -1.3458530    0.2249260  
H    -5.3215820   -3.4069280    2.5784640  
H    -2.6601460   -3.7014960    1.7530370  
H    -4.4954070    0.9886370   -3.4219070  
C     0.0366230    1.5547760    0.0635030  
C    -1.1216520    0.8114480    0.1933250  
C    -0.7740980   -0.5727890    0.1791870  
C     0.6990810   -0.6210650    0.0581130  
N     1.1232720    0.6846850   -0.0266730  
C     1.4527890   -1.7613500   -0.0038600  
C     0.7188330   -3.0226530    0.1513740  
O     1.2566230   -4.1146100    0.1834550  
C    -0.8371830   -2.9768750    0.3915330  
O    -1.3637950   -4.0455130    0.6980600  
C    -1.5703280   -1.7065250    0.2688820  
H    -2.1138360    1.2047640    0.3348020  
H     2.0814010    1.0052670   -0.0045230  
C     4.9342700   -0.0752720    2.2175560  
C     3.6850790   -0.4323460    1.8193990  
C     3.8222050   -1.1853160    0.5885220  
C     5.2770560   -1.2436650    0.3053690  
N     5.8908740   -0.5335720    1.3209060  
C     5.8425920   -1.8996010   -0.7402970  
C     4.9639000   -2.5957840   -1.6697370  
O     5.3714980   -3.2435930   -2.6212770  
C     3.4126730   -2.4899330   -1.4418580  
O     2.6671250   -2.9347250   -2.2948380  
C     2.9060310   -1.7931430   -0.2284140  
H     2.7641220   -0.2122890    2.3377270  
H     6.9141230   -1.9466870   -0.9081660  
H     5.2406320    0.4833340    3.0921190  
H     6.8883150   -0.4505130    1.4399650  
C    -2.6870320    5.0241480   -0.7195780  
C    -2.2073160    3.7522800   -0.6786830  
C    -0.8331070    3.8796200   -0.2286580  
C    -0.6467460    5.3520460   -0.0620660  
N    -1.7381980    6.0139050   -0.3328520  
C     0.6088960    5.9222410    0.3446880  
C     1.6512830    5.0820740    0.5385990  
O     2.8880500    5.4868300    0.8792930  
C     1.5134430    3.6013430    0.3623650  
O     2.5434090    2.9307870    0.4921740  
C     0.1822780    2.9963450    0.0478050  
H    -2.7206110    2.8483520   -0.9729070  
H     0.7049110    6.9960530    0.4605780  
H     3.4348890    4.6736180    0.9143790  
H    -3.6768750    5.3478130   -1.0189400  
