60


C     3.3978590    2.1212670    3.9268520  
C     3.8788530    3.3053340    3.4341450  
C     3.7962390    3.2318190    2.0024930  
C     3.2414880    1.9658010    1.6836780  
N     2.9927160    1.3162050    2.8762850  
C     3.0319870    1.5215340    0.3594830  
C     3.4093310    2.4083730   -0.6521970  
O     3.2187300    2.0651470   -1.9597640  
C     3.9618590    3.6789480   -0.3482920  
O     4.2612850    4.4293530   -1.4697720  
C     4.1527340    4.1015100    0.9533190  
H     4.2496110    4.1346800    4.0205390  
H     2.7314210    0.3451680    2.9542530  
H     3.5604780    2.7981970   -2.5017170  
H     4.6937070    5.2543610   -1.2044120  
H     4.5763040    5.0825860    1.1580820  
H     3.2977910    1.7788550    4.9471080  
C     1.2692780   -0.2683760    0.5994440  
C     2.4305410    0.2088000    0.0706090  
C     2.9670160   -0.8623200   -0.7662690  
C     2.0211970   -1.9965470   -0.6650860  
N     0.9908230   -1.5802730    0.1936920  
C     2.1558530   -3.1586090   -1.3468020  
C     3.3286000   -3.3294230   -2.2077510  
O     3.5209260   -4.3392600   -2.8654730  
C     4.3700610   -2.1592830   -2.2832380  
O     5.3657860   -2.2916620   -2.9761690  
C     4.0903490   -0.9372990   -1.5217840  
H     1.4599250   -3.9848300   -1.2725850  
H     4.7843470   -0.1102620   -1.6155420  
H     0.5822010    0.2254880    1.2732110  
C    -3.2540020   -0.4104540    0.2133280  
C    -1.8840700   -0.4654010    0.0146590  
C    -1.4131050   -1.7161750    0.5185840  
C    -2.5992960   -2.4309030    1.0364500  
N    -3.6660930   -1.5839630    0.8445510  
C    -2.5877590   -3.6854870    1.5610740  
C    -1.3194970   -4.3878850    1.6377300  
O    -1.1970160   -5.5336970    2.0417430  
C    -0.0168220   -3.6343610    1.1742360  
O     1.0669860   -4.1547800    1.3680840  
C    -0.1602670   -2.2917660    0.5609260  
H    -1.2947660    0.2689820   -0.5093760  
H    -3.4808020   -4.1904190    1.9140350  
H    -4.6445110   -1.8112800    0.9615790  
C    -2.9245380    3.8980580   -1.0086680  
C    -2.5938070    2.6710900   -0.5215950  
C    -3.8303780    1.9149650   -0.5155010  
C    -4.8410070    2.8879310   -1.0378910  
N    -4.3012780    4.0377630   -1.3366530  
C    -6.2301120    2.5495880   -1.1721130  
C    -6.6222150    1.3175010   -0.7737050  
O    -7.8946180    0.8895440   -0.8136090  
C    -5.6489410    0.3195620   -0.2235410  
O    -6.1255940   -0.7491050    0.1730660  
C    -4.1855230    0.6314480   -0.1724120  
H    -1.6239040    2.3533550   -0.1719020  
H    -6.9308730    3.2792070   -1.5621540  
H    -7.8890380   -0.0198810   -0.4470960  
H    -2.2683700    4.7478990   -1.1549850  
