64


C     3.7108620   -1.2429470   -2.0453300  
C     3.4645150   -0.5195110   -0.8974350  
C     4.7133070   -0.5065870   -0.1585070  
C     5.6641750   -1.2334430   -0.9206920  
N     5.0221440   -1.6717320   -2.0610700  
C     6.9826750   -1.4355580   -0.4939060  
C     7.3491000   -0.8971830    0.7295320  
O     8.6218710   -1.0616280    1.1913250  
C     6.4078110   -0.1779040    1.5145250  
O     6.9208760    0.2859320    2.7102140  
C     5.1069240    0.0200310    1.0915800  
H     5.4499350   -2.2068850   -2.8003590  
H     7.7112820   -1.9925580   -1.0741940  
H     8.6700110   -0.6308200    2.0623040  
H     6.2210050    0.7278320    3.2136390  
H     4.4006950    0.5631120    1.7149150  
H     3.0452960   -1.4659700   -2.8669240  
C    -0.7841470   -2.0455930   -0.7039520  
C     0.5826260   -1.9317230   -0.8646090  
C     0.9505970   -0.5863740   -0.5401600  
C    -0.2396960    0.0865480   -0.1669640  
N    -1.2738860   -0.8249230   -0.2517690  
C    -0.3028680    1.4422320    0.2199540  
C     0.9237230    2.1094570    0.2098050  
O     0.9877160    3.4315660    0.5559520  
C     2.1285730    1.4535530   -0.1515070  
O     3.2350750    2.2835420   -0.1084660  
C     2.1868390    0.1114360   -0.5191900  
H     1.2541420   -2.7381360   -1.1247500  
H    -2.2466130   -0.5531950   -0.2462510  
H     1.9240210    3.6897720    0.4892560  
H     4.0084580    1.7930840   -0.4345940  
C    -2.5071520    1.5251720    1.4685850  
C    -1.5783180    2.0726300    0.6043050  
C    -2.1462420    3.3221820    0.1459560  
C    -3.4122050    3.4642900    0.7686440  
N    -3.6027070    2.3564260    1.5704020  
C    -4.2553970    4.5590260    0.5363960  
C    -3.8093210    5.5313530   -0.3436850  
O    -4.5853230    6.6245220   -0.6053650  
C    -2.5454010    5.4040380   -0.9791950  
O    -2.2404890    6.4535920   -1.8293020  
C    -1.7188830    4.3216550   -0.7501380  
H    -4.4053360    2.1894630    2.1568490  
H    -5.2238620    4.6685970    1.0138130  
H    -4.0880340    7.1836000   -1.2269160  
H    -1.3420450    6.3345040   -2.1707400  
H    -0.7471350    4.2547730   -1.2304950  
H    -2.4435630    0.6249000    2.0639980  
C    -1.5006920   -4.1666680   -1.8569570  
C    -1.6634020   -3.1802810   -0.9258460  
C    -2.8805030   -3.5160610   -0.1863780  
C    -3.4008310   -4.7752760   -0.7785550  
N    -2.5034130   -5.1280450   -1.7636070  
C    -4.5365430   -5.4024780   -0.3771690  
C    -5.3032360   -4.8214340    0.7194520  
O    -6.3396880   -5.3093600    1.1443460  
C    -4.7552270   -3.5063030    1.3836720  
O    -5.3733000   -3.0049700    2.3097730  
C    -3.5161820   -2.9238100    0.8579680  
H    -4.8998490   -6.3218470   -0.8262060  
H    -3.1428970   -2.0275770    1.3417970  
H    -0.7263360   -4.2632150   -2.6057780  
H    -2.6209310   -5.9039030   -2.3960620  
