64


C    -0.3768830    1.9431350   -0.5737260  
C     0.9364850    1.5558230   -0.4016720  
C     0.9831440    0.1248580   -0.4471960  
C    -0.3453030   -0.3235060   -0.6653150  
N    -1.1494460    0.7952600   -0.7158330  
C    -0.7072470   -1.6797080   -0.7895050  
C     0.3384280   -2.5978340   -0.6645320  
O     0.0795190   -3.9348900   -0.7680690  
C     1.6692860   -2.1781660   -0.4350330  
O     2.5629040   -3.2287720   -0.3294990  
C     2.0287690   -0.8301580   -0.3242080  
H     1.7664360    2.2262220   -0.2351650  
H    -2.1306410    0.7917560   -0.9457400  
H     0.9206990   -4.3962750   -0.5998700  
H     3.4029270   -2.8932810    0.0343800  
C    -0.4256500    4.3918500   -1.1860870  
C    -0.9860940    3.2620900   -0.6288040  
C    -2.2851010    3.6574950   -0.1249890  
C    -2.4449620    5.0356950   -0.4177760  
N    -1.2934840    5.4548900   -1.0556210  
C    -3.5912550    5.7577880   -0.0635260  
C    -4.5950480    5.0773210    0.6077190  
O    -5.7327820    5.7332990    0.9768190  
C    -4.4460810    3.7012810    0.9270760  
O    -5.5237310    3.1681040    1.6086810  
C    -3.3133060    2.9911620    0.5733400  
H    -1.1252940    6.3868090   -1.4006090  
H    -3.7139540    6.8134330   -0.2834680  
H    -6.2850010    5.0982520    1.4650480  
H    -5.3030960    2.2787620    1.9230570  
H    -3.2134730    1.9457520    0.8575900  
H     0.5243770    4.5079560   -1.6876560  
C     3.4100530   -0.4346240   -0.0529400  
C     3.9193670    0.5664730    0.7408520  
C     5.3523140    0.4993390    0.6815770  
C     5.6817320   -0.5773480   -0.1765780  
N     4.4903370   -1.1844840   -0.5707340  
C     6.9995670   -0.9172890   -0.4922180  
C     8.0112070   -0.1590160    0.0816870  
O     9.3157320   -0.4460440   -0.1961010  
C     7.7010500    0.9099390    0.9622270  
O     8.8128150    1.5611990    1.4612100  
C     6.3937710    1.2435760    1.2691440  
H     3.3292650    1.2379810    1.3487460  
H     4.4082290   -1.6510030   -1.4662140  
H     7.2559860   -1.7397280   -1.1522630  
H     9.8623860    0.1831430    0.3054430  
H     8.5319610    2.2667310    2.0623980  
H     6.1802640    2.0701560    1.9439690  
C    -2.8982480   -1.6730200   -2.0621250  
C    -2.0980070   -2.0965450   -1.0417790  
C    -2.9148560   -3.0067640   -0.2376850  
C    -4.2471250   -3.0674500   -0.8877150  
N    -4.1759930   -2.2222660   -1.9763870  
C    -5.2885720   -3.8186370   -0.4447580  
C    -5.1035230   -4.6143280    0.7629960  
O    -5.9806150   -5.3174240    1.2430000  
C    -3.7048490   -4.5488400    1.4811360  
O    -3.5344550   -5.1962020    2.5021450  
C    -2.6555150   -3.7068460    0.8949070  
H    -6.2542840   -3.8515010   -0.9401060  
H    -1.6885450   -3.6857950    1.3847590  
H    -2.6511320   -1.0127960   -2.8837780  
H    -4.8973910   -2.1209900   -2.6729550  
