62


C     3.8165360    1.6457950   -0.0686460  
C     5.0323610    1.1766310   -0.5238350  
C     4.9453190   -0.2516180   -0.6161920  
C     3.6334440   -0.6127010   -0.2174800  
N     2.9658190    0.5538770    0.0942600  
C     3.1728490   -1.9460790   -0.1725300  
C     4.0943970   -2.9331720   -0.5371390  
O     3.7065160   -4.2364780   -0.5685940  
C     5.4079470   -2.5874570   -0.9416740  
O     6.1813680   -3.6777240   -1.2932390  
C     5.8392320   -1.2735140   -0.9920860  
H     5.8785960    1.7903960   -0.8010130  
H     2.1056190    0.5936060    0.6182600  
H     4.4963130   -4.7690720   -0.7678850  
H     7.0958340   -3.3934370   -1.4378990  
H     6.8517270   -1.0408810   -1.3158810  
C    -0.7080920   -0.5262060   -1.6727220  
C     0.5938380   -0.8389960   -1.5062100  
C     0.6981140   -1.7246060   -0.3606970  
C    -0.6798380   -1.9382220    0.1291000  
N    -1.5138990   -1.1735670   -0.7101900  
C    -1.0004880   -2.7088580    1.1989570  
C     0.0824010   -3.4097710    1.8871840  
O    -0.1172350   -4.1807750    2.8116080  
C     1.5611260   -3.1409370    1.4328630  
O     2.4642380   -3.5990290    2.1042010  
C     1.7963500   -2.2761090    0.2408430  
H     1.4139050   -0.5103200   -2.1261660  
H    -2.0051420   -2.8341800    1.5836850  
H    -1.1882840    0.0835130   -2.4247040  
C    -2.8656920   -0.9134840   -0.5767990  
C    -3.5418240    0.2352540   -0.8889320  
C    -4.9399930   -0.0133600   -0.6437550  
C    -5.0327710   -1.4097210   -0.1524420  
N    -3.7262160   -1.8949390   -0.0792410  
C    -6.1888070   -2.0431230    0.1489060  
C    -7.4428410   -1.2960300    0.0130290  
O    -8.5309720   -1.7865060    0.2651720  
C    -7.3667640    0.1995310   -0.4645600  
O    -8.4041980    0.8362510   -0.5708740  
C    -6.0528500    0.7602470   -0.7742030  
H    -3.0981720    1.1699160   -1.2031180  
H    -6.2381840   -3.0692090    0.5003260  
H    -6.0133380    1.7877960   -1.1224300  
H    -3.5101280   -2.8806480   -0.1407380  
C     4.1433990    4.0698000    0.5445920  
C     3.3496930    2.9906130    0.2203060  
C     1.9814180    3.4764930    0.2323900  
C     2.0309110    4.8567280    0.5702120  
N     3.3591700    5.1864630    0.7431660  
C     0.8907600    5.6609250    0.6712050  
C    -0.3388360    5.0578630    0.4393100  
O    -1.4853670    5.7835180    0.5396000  
C    -0.4099070    3.6841800    0.0972520  
O    -1.7004250    3.1955660   -0.1500710  
C     0.7230680    2.9003710   -0.0276670  
H     3.7024730    6.0934060    1.0184560  
H     0.9355550    6.7145470    0.9271950  
H    -2.2118240    5.1729430    0.3153530  
H    -1.9010320    2.4978910    0.4938860  
H     0.6180400    1.8706920   -0.3547570  
H     5.2157740    4.1188190    0.6675630  
