66


C    -0.1405480    0.4602010    1.4510000  
C    -1.2875590   -0.2276150    1.1604180  
C    -1.9745990    0.5008700    0.1248820  
C    -1.1715390    1.6294740   -0.1808760  
N    -0.0550040    1.5955850    0.6491620  
C    -1.4877570    2.5400290   -1.1942130  
C    -2.6385540    2.2866570   -1.9207150  
O    -3.0054760    3.1145220   -2.9388680  
C    -3.4706310    1.1708020   -1.6301810  
O    -4.5934890    1.0917830   -2.4287380  
C    -3.1821550    0.2773960   -0.5971360  
H    -1.5993870   -1.1549620    1.6190650  
H    -0.8690440    3.3987610   -1.4260990  
H    -3.8219610    2.7239430   -3.3053130  
H    -4.6945530    0.1554170   -2.7060190  
H     0.6319080    0.2606240    2.1803680  
C     4.1029730    0.8727070   -0.4062970  
C     4.5699600    2.1447130   -0.1803000  
C     3.4467150    2.9323250    0.2428460  
C     2.3229200    2.0688390    0.2657840  
N     2.7459100    0.8140230   -0.1234690  
C     1.0380870    2.4988580    0.6375630  
C     0.8905670    3.8391300    0.9949770  
O    -0.3293650    4.3127130    1.3702140  
C     2.0086110    4.7123480    0.9683410  
O     1.7016550    6.0055380    1.3473400  
C     3.2723830    4.2816060    0.6068570  
H     5.5991360    2.4619520   -0.2698500  
H     2.1396490    0.0389300   -0.3500270  
H    -0.2238130    5.2635160    1.5486070  
H     2.4972790    6.5553940    1.2972080  
H     4.1092880    4.9766280    0.5995450  
C     5.6784220   -0.2491210   -1.9445140  
C     6.1871890   -1.5027350   -2.1300180  
C     5.5897840   -2.3572180   -1.1408770  
C     4.7166120   -1.5530300   -0.3660250  
N     4.7765330   -0.2553800   -0.8797190  
C     3.9893700   -2.0589560    0.7190040  
C     4.1308400   -3.4072800    1.0118070  
O     3.4418360   -3.9493310    2.0585350  
C     4.9875120   -4.2309860    0.2364670  
O     5.0188050   -5.5501040    0.6487300  
C     5.7149400   -3.7236200   -0.8245760  
H     6.8977450   -1.7908840   -2.8926660  
H     3.3417000   -1.4449210    1.3341660  
H     3.6751760   -4.8926980    2.0984030  
H     5.6232130   -6.0511270    0.0815960  
H     6.3748650   -4.3708080   -1.3992030  
H     5.8469110    0.6698870   -2.4865240  
C    -4.8818740   -0.8339270    3.3239700  
C    -5.6334900   -1.9070900    2.9189260  
C    -5.4329530   -2.0490230    1.5054290  
C    -4.5322070   -1.0237420    1.1076950  
N    -4.2276220   -0.2932600    2.2368190  
C    -4.1085550   -0.8234230   -0.2277210  
C    -4.6617360   -1.7077490   -1.1525910  
O    -4.3431080   -1.5857880   -2.4952550  
C    -5.5596290   -2.7361070   -0.7815530  
O    -5.9900600   -3.5080200   -1.8488940  
C    -5.9482220   -2.9242610    0.5298380  
H    -6.2640100   -2.5186740    3.5495640  
H    -3.5546400    0.4582370    2.2619290  
H    -4.8178190   -2.2967550   -2.9629810  
H    -6.5835920   -4.2016710   -1.5261610  
H    -6.6436240   -3.7181670    0.7945340  
H    -4.7587800   -0.4003350    4.3065450  
