66


C     3.4391850   -0.4547540   -0.0422740  
C     3.9790160    0.5278080    0.7538890  
C     5.4101670    0.4275580    0.6818820  
C     5.7071650   -0.6509600   -0.1857340  
N     4.4977100   -1.2273140   -0.5746350  
C     7.0137020   -1.0203020   -0.5135410  
C     8.0484750   -0.2898820    0.0562210  
O     9.3444280   -0.6063820   -0.2350500  
C     7.7709860    0.7796660    0.9451680  
O     8.9015910    1.4022610    1.4407830  
C     6.4739280    1.1422610    1.2651440  
H     3.4097650    1.2096820    1.3700690  
H     4.3965600   -1.6717060   -1.4796090  
H     7.2448230   -1.8439900   -1.1814330  
H     9.9089460    0.0108010    0.2614080  
H     8.6393690    2.1226750    2.0325840  
H     6.2861550    1.9694410    1.9470240  
C    -0.3010400    2.0087290   -0.5403670  
C     1.0058420    1.5949440   -0.3701220  
C     1.0241210    0.1641690   -0.4275420  
C    -0.3123510   -0.2562820   -0.6497900  
N    -1.0937020    0.8789780   -0.6937890  
C    -0.7142730   -1.6013980   -0.7827320  
C     0.3119610   -2.5411140   -0.6549340  
O     0.0316140   -3.8780950   -0.7519740  
C     1.6526510   -2.1525710   -0.4234920  
O     2.5228100   -3.2251360   -0.3169260  
C     2.0480740   -0.8149210   -0.3107710  
H     1.8483380    2.2479420   -0.1962100  
H    -2.0748000    0.8837170   -0.9255700  
H     0.8772520   -4.3446240   -0.6283950  
H     3.3812670   -2.9010510    0.0127750  
C    -2.9224610   -1.3971730   -2.0130600  
C    -2.1198940   -1.9615290   -1.0415840  
C    -2.9551360   -2.9047780   -0.3306790  
C    -4.2438020   -2.8576160   -0.9195680  
N    -4.1956720   -1.9271190   -1.9391760  
C    -5.3155020   -3.6379010   -0.4653820  
C    -5.0784460   -4.4836700    0.6061260  
O    -6.0833430   -5.2728130    1.0891650  
C    -3.7944260   -4.5404490    1.2110950  
O    -3.7158240   -5.4299090    2.2690900  
C    -2.7419320   -3.7670380    0.7624580  
H    -4.9459920   -1.7269920   -2.5814190  
H    -6.3019060   -3.6056200   -0.9170770  
H    -5.7066540   -5.7985430    1.8158600  
H    -2.7986800   -5.4773710    2.5768210  
H    -1.7619650   -3.8401830    1.2251370  
H    -2.6662800   -0.6870640   -2.7875060  
C    -0.2878590    4.4731430   -1.0921740  
C    -0.8829030    3.3407450   -0.5783330  
C    -2.1849920    3.7500680   -0.0935590  
C    -2.3104460    5.1388920   -0.3512490  
N    -1.1362800    5.5514850   -0.9504100  
C    -3.4511400    5.8737820   -0.0046800  
C    -4.4850780    5.1949910    0.6209020  
O    -5.6208830    5.8629520    0.9782150  
C    -4.3711290    3.8081670    0.9042110  
O    -5.4750430    3.2773300    1.5450380  
C    -3.2430590    3.0859590    0.5605830  
H    -0.9442530    6.4868550   -1.2724910  
H    -3.5487810    6.9369460   -0.1998470  
H    -6.2036850    5.2210250    1.4193030  
H    -5.3075540    2.3483960    1.7630530  
H    -3.1708950    2.0313680    0.8176090  
H     0.6753450    4.5831480   -1.5694030  
