64


C    -4.3679930   -1.0581350    2.1534940  
C    -4.6150830   -0.6236270    0.8571140  
C    -5.6656220   -1.4894340    0.3401770  
C    -5.9970320   -2.4001950    1.3747660  
N    -5.1973770   -2.0971080    2.4643220  
C    -6.9494260   -3.4143950    1.2366210  
C    -7.5872520   -3.5274750    0.0109550  
O    -8.5274530   -4.4969670   -0.1847050  
C    -7.2619650   -2.6398370   -1.0449430  
O    -7.9698850   -2.8753280   -2.2097850  
C    -6.3179560   -1.6395980   -0.9002070  
H    -5.1997980   -2.5914230    3.3431740  
H    -7.1941820   -4.1042670    2.0378860  
H    -8.8514360   -4.3994640   -1.0968550  
H    -7.7348480   -2.2038700   -2.8671430  
H    -6.1048940   -0.9666550   -1.7227570  
H    -3.6408440   -0.6922130    2.8594940  
C    -0.5260440    0.7740240    1.5196730  
C    -0.4146340    1.8430150    0.6813050  
C    -1.7382310    1.9030100    0.0174110  
C    -2.5164950    0.7806990    0.6146710  
N    -1.7902020    0.1317800    1.4831130  
C    -3.8990380    0.4780800    0.2231360  
C    -4.4153610    1.3014230   -0.7470720  
O    -5.6909400    1.2213840   -1.2020130  
C    -3.6499030    2.3924020   -1.3836020  
O    -4.2132960    3.0854000   -2.2411550  
C    -2.2570500    2.6610460   -0.9648780  
H    -5.7556880    1.9487970   -1.8612940  
H    -1.7350840    3.4741700   -1.4588910  
H     0.2311630    0.3887250    2.1914410  
C     3.9047190    0.8061170    0.0025450  
C     2.5448640    0.7581630    0.2362370  
C     2.0568510    2.1025970    0.2569160  
C     3.1735170    2.9499080    0.0240090  
N     4.2934030    2.1437650   -0.0826420  
C     3.0693900    4.3384810   -0.0678680  
C     1.8053310    4.8909770    0.0930350  
O     1.6485790    6.2442590    0.0365500  
C     0.6787970    4.0699660    0.3372440  
O    -0.4954430    4.7855960    0.5009790  
C     0.7644460    2.6771450    0.4221270  
H     1.9773690   -0.1442920    0.4092080  
H     5.1519280    2.4367690   -0.5265010  
H     3.9216060    4.9869710   -0.2427920  
H     0.7116130    6.4298540    0.2239710  
H    -1.1550780    4.2263320    0.9401750  
C     4.8744940   -0.2575050   -0.1140550  
C     4.7256680   -1.5632970   -0.5328420  
C     6.0089550   -2.1928500   -0.4576670  
C     6.9245380   -1.2164160    0.0168730  
N     6.2233870   -0.0327070    0.1789990  
C     8.2782460   -1.4922630    0.2340060  
C     8.7222480   -2.7770970   -0.0433680  
O    10.0332480   -3.1006930    0.1539970  
C     7.8255710   -3.7620530   -0.5369470  
O     8.4206530   -4.9871830   -0.7737390  
C     6.4875940   -3.4867200   -0.7487340  
H     3.8068420   -1.9995790   -0.9000090  
H     6.5317250    0.7172640    0.7812410  
H     8.9805660   -0.7509540    0.6014740  
H    10.1398410   -4.0340260   -0.0986300  
H     7.7550540   -5.6122990   -1.0966120  
H     5.8190940   -4.2586200   -1.1249480  
