62


C     3.5858920   -0.1330270    0.5037340  
C     2.2361750    0.0873980    0.3467870  
C     2.0341850    1.5121020    0.3720450  
C     3.3156060    2.1035740    0.5264560  
N     4.2412040    1.0788450    0.6138790  
C     3.5264700    3.4836850    0.5266960  
C     2.4116560    4.2871670    0.3420300  
O     2.5423980    5.6387660    0.3202730  
C     1.1139510    3.7327370    0.1711750  
O     0.1346050    4.6790420    0.0274620  
C     0.8851130    2.3496290    0.2179340  
H     1.5016500   -0.6809340    0.1565380  
H     5.2218430    1.1826080    0.8263440  
H     4.5080770    3.9327440    0.6360480  
H     1.6490330    5.9871120    0.1328680  
H    -0.5074790    4.3411090   -0.6447540  
C    -1.0415880   -0.5680760    2.8291750  
C    -2.2356360   -0.7305540    2.1933500  
C    -2.2194310    0.1123130    1.0238300  
C    -0.9100380    0.7966100    1.0326870  
N    -0.2449620    0.3303570    2.1438680  
C    -0.4686880    1.7582430    0.1446580  
C    -1.4817430    2.1748010   -0.8223330  
O    -1.3945300    3.1826350   -1.5256840  
C    -2.7692190    1.3040780   -1.0222800  
O    -3.3608300    1.4253470   -2.0761800  
C    -3.1612770    0.3447000    0.0387010  
H    -3.0560900   -1.3453330    2.5270500  
H    -0.6846910   -1.0179730    3.7460520  
H     0.7031200    0.5888500    2.3751220  
C    -4.4379310   -0.3296980   -0.0383860  
C    -4.7649370   -1.6020610    0.3653140  
C    -6.1695550   -1.7585000    0.0774500  
C    -6.5730540   -0.4364400   -0.5012570  
N    -5.5711850    0.3866850   -0.5749170  
C    -7.9329060   -0.1763000   -0.9033900  
C    -8.8320790   -1.1781620   -0.7641910  
O   -10.1265600   -1.0851440   -1.1032430  
C    -8.4499030   -2.5269210   -0.2000710  
O    -9.3421710   -3.3722130   -0.1104450  
C    -7.0649610   -2.7656990    0.2176350  
H    -4.1007790   -2.3670500    0.7410300  
H    -8.2020080    0.7908630   -1.3128720  
H   -10.5114930   -1.9641390   -0.8864710  
H    -6.8304910   -3.7428370    0.6288810  
C     3.8561570   -2.4543570    1.3053330  
C     4.7672120   -3.4636310    1.1842640  
C     5.8356620   -2.9777850    0.3547440  
C     5.5104330   -1.6477460   -0.0110310  
N     4.2886320   -1.3348430    0.5918030  
C     6.3204940   -0.8804620   -0.8587370  
C     7.4939290   -1.4592930   -1.3198570  
O     8.3177170   -0.7513780   -2.1445470  
C     7.8453280   -2.7828840   -0.9464430  
O     9.0432310   -3.2138060   -1.4815460  
C     7.0321270   -3.5432000   -0.1262780  
H     4.6940330   -4.4409790    1.6413580  
H     6.0587300    0.1193070   -1.1860400  
H     9.0649000   -1.3305110   -2.3740060  
H     9.1986930   -4.1362210   -1.2302330  
H     7.3125630   -4.5612350    0.1367000  
H     2.9290210   -2.4021180    1.8567860  
