62


C     2.0818340   -0.7764120   -0.7076650  
C     3.3774170   -0.3305560   -0.6705230  
C     3.3813980    0.9386560    0.0135510  
C     2.0411920    1.2097020    0.3744760  
N     1.2516360    0.1553860   -0.0891680  
C     1.6715600    2.3584370    1.0850710  
C     2.6763880    3.2548190    1.4157890  
O     2.3718680    4.3871670    2.1089030  
C     4.0253180    3.0041970    1.0429710  
O     4.9028450    3.9919700    1.4383300  
C     4.3873320    1.8643290    0.3508890  
H     0.6495280    2.5659080    1.3809980  
H     3.2016760    4.8770270    2.2436390  
H     5.8069070    3.7403670    1.1972980  
H     5.4241070    1.6806500    0.0813360  
H     1.6677150   -1.6733420   -1.1441610  
C    -0.7684610   -1.0078940    0.7249000  
C    -0.1340600    0.0109080    0.0810120  
C    -1.1634980    0.8860290   -0.4663250  
C    -2.4530180    0.2903920   -0.0647030  
N    -2.1460850   -0.8396670    0.6591960  
C    -3.6935060    0.7750440   -0.4109570  
C    -3.7080770    2.0288320   -1.2069770  
O    -4.7206730    2.6569980   -1.4448900  
C    -2.3392250    2.6166440   -1.7094180  
O    -2.3537800    3.5719350   -2.4666730  
C    -1.0945190    1.9991990   -1.2418760  
H    -0.1533180    2.4372520   -1.5577320  
H    -0.3398360   -1.8546020    1.2433940  
H    -2.8377630   -1.5251160    0.9293370  
C    -4.9258910    0.1187710   -0.0202090  
C    -5.1955970   -0.5718870    1.1387520  
C    -6.5517990   -1.0502360    1.0031940  
C    -6.9701110   -0.5745000   -0.3557820  
N    -6.0303800    0.1053300   -0.9431320  
C    -8.2743310   -0.8742450   -0.8893150  
C    -9.1249950   -1.5804440   -0.1083080  
O   -10.3696670   -1.9246130   -0.4660440  
C    -8.7374540   -2.0570920    1.2737120  
O    -9.5805180   -2.6953710    1.9046300  
C    -7.3980150   -1.7553660    1.7903130  
H    -4.5851700   -0.6344200    2.0300050  
H    -8.5495480   -0.5247200   -1.8779840  
H   -10.7309650   -2.4222590    0.3018480  
H    -7.1532650   -2.1228370    2.7822460  
C     4.5953460   -1.3298080   -2.5970850  
C     5.7899140   -1.9572660   -2.8208730  
C     6.4807620   -2.0119980   -1.5632080  
C     5.6404890   -1.3955610   -0.6002460  
N     4.4847330   -0.9775750   -1.2542710  
C     5.9887330   -1.2968650    0.7535170  
C     7.2172650   -1.8124190    1.1372320  
O     7.6092220   -1.7367380    2.4449050  
C     8.0766090   -2.4215640    0.1856650  
O     9.2659240   -2.8840750    0.7209880  
C     7.7238170   -2.5284960   -1.1469910  
H     6.1422030   -2.3297570   -3.7731910  
H     5.3397310   -0.8426690    1.4937270  
H     8.4806020   -2.1643430    2.5065210  
H     9.7859310   -3.3127710    0.0254820  
H     8.3958230   -3.0066870   -1.8573930  
H     3.7976680   -1.0702840   -3.2784530  
