62


C     1.8698800   -1.3576930   -0.7011880  
C     0.9247580   -0.3702420   -0.7315400  
C     1.3080270    0.6347340    0.2255060  
C     2.5275550    0.2053360    0.8072270  
N     2.8393690   -1.0241880    0.2380020  
C     3.2433510    0.9448860    1.7473850  
C     2.7164040    2.1823100    2.0907130  
O     3.3620460    2.9711820    2.9877700  
C     1.5058150    2.6562560    1.5209330  
O     1.1216340    3.8924450    1.9938760  
C     0.7569070    1.8936690    0.6153570  
H     0.0489290   -0.3632390   -1.3629150  
H     4.1785700    0.6035680    2.1764080  
H     2.8331960    3.7904840    3.0452590  
H     0.8608970    4.4287000    1.2139230  
H     1.9588270   -2.2796380   -1.2568590  
C    -3.2932650   -0.0043790    0.1865580  
C    -1.9781710    0.2451030    0.5358840  
C    -1.6704760    1.5424820    0.0323060  
C    -2.9419070    1.9901810   -0.6273430  
N    -3.8780570    1.0911620   -0.5435900  
C    -3.0606520    3.2777080   -1.2576020  
C    -1.9878490    4.0949870   -1.1835360  
O    -1.9535740    5.3335130   -1.6903920  
C    -0.7114990    3.6914620   -0.4737860  
O     0.1514620    4.5858560   -0.4106330  
C    -0.5446240    2.3422370    0.0772940  
H    -1.3128980   -0.4003840    1.0889070  
H    -3.9832200    3.5718390   -1.7446510  
H    -1.0668190    5.6875790   -1.4539320  
C    -3.7642200   -2.3110270    1.1214690  
C    -4.0981250   -1.1469360    0.4539520  
C    -5.5114980   -1.3569870    0.0699440  
C    -5.8339500   -2.7055430    0.6011920  
N    -4.7962420   -3.2432280    1.2117830  
C    -7.1264270   -3.2985290    0.4411120  
C    -8.0685340   -2.5796020   -0.2231470  
O    -9.3178000   -3.0042980   -0.4484580  
C    -7.7739180   -1.2086720   -0.7747690  
O    -8.6825870   -0.6267790   -1.3631220  
C    -6.4270470   -0.6243590   -0.5915750  
H    -7.3284590   -4.2855300    0.8418700  
H    -9.7571160   -2.2774760   -0.9444550  
H    -6.2242890    0.3621670   -0.9917260  
H    -2.8043060   -2.5525820    1.5633440  
C     4.0831500   -2.7099670    1.5093530  
C     5.3456680   -3.2302280    1.4815890  
C     6.0600490   -2.5804980    0.4139620  
C     5.1731640   -1.6552150   -0.1878630  
N     3.9671010   -1.7546640    0.4999130  
C     5.5270650   -0.8402940   -1.2668720  
C     6.8200210   -0.9645910   -1.7528720  
O     7.2271930   -0.1971610   -2.8044680  
C     7.7294150   -1.8856750   -1.1669160  
O     8.9760730   -1.8921970   -1.7636080  
C     7.3677320   -2.6870620   -0.0997450  
H     5.7293120   -3.9923960    2.1460650  
H     4.8411080   -0.1325090   -1.7186890  
H     8.1554410   -0.4249140   -2.9852160  
H     9.5509450   -2.5228180   -1.3055390  
H     8.0820700   -3.3853560    0.3321350  
H     3.2362430   -2.9146730    2.1477280  
