64


C    -5.0991480    0.0253510   -0.1088120  
C    -5.9493000    0.4843770   -1.0901760  
C    -7.2798230    0.0618480   -0.7621990  
C    -7.1970090   -0.6640700    0.4517070  
N    -5.8540350   -0.7355020    0.8097560  
C    -8.3181710   -1.2018780    1.0891050  
C    -9.5520380   -1.0129150    0.4814720  
O   -10.6800600   -1.5137520    1.0637190  
C    -9.6521380   -0.3075730   -0.7463070  
O   -10.9430270   -0.2135710   -1.2313740  
C    -8.5393170    0.2246940   -1.3721710  
H    -5.6407130    1.0170640   -1.9786010  
H    -5.5627510   -0.8178570    1.7760310  
H    -8.2596240   -1.7537570    2.0217470  
H   -11.4287580   -1.2786440    0.4889100  
H   -10.9416550    0.2944520   -2.0559740  
H    -8.6411840    0.7654440   -2.3110350  
C    -2.2697060    3.3737020   -1.0214240  
C    -3.3924010    2.6017980   -0.8720130  
C    -2.9580290    1.3261450   -0.3771870  
C    -1.5443320    1.3894160   -0.2650760  
N    -1.1489170    2.6363390   -0.6977000  
C    -0.7432350    0.3097980    0.1851720  
C    -1.4637940   -0.8017430    0.6571760  
O    -0.8131700   -1.8452600    1.2357800  
C    -2.8733180   -0.8726280    0.5694810  
O    -3.3943200   -2.0637270    1.0564210  
C    -3.6511020    0.1540410    0.0295480  
H    -4.4093850    2.9084490   -1.0666260  
H    -0.2696210    3.0240940   -0.3620050  
H    -1.4813550   -2.5386530    1.3847140  
H    -4.2836550   -2.1921670    0.6805560  
H    -2.1725350    4.4026340   -1.3391340  
C     2.3056080    3.2630620    1.4084650  
C     3.4524180    2.5509240    1.2629010  
C     3.0512030    1.2746690    0.6937660  
C     1.5809060    1.3701410    0.5975530  
N     1.1588160    2.5523060    0.9886770  
C     0.7319790    0.2755290    0.1299490  
C     1.4099370   -0.8100060   -0.3599870  
O     0.8028980   -1.8706280   -0.9271970  
C     2.8822330   -0.9411210   -0.2958210  
O     3.3584480   -2.0143480   -0.7035450  
C     3.7414180    0.1842300    0.2145140  
H     4.4451160    2.8538530    1.5578160  
H     1.5263570   -2.5008110   -1.1304890  
H     2.1847330    4.2640310    1.8048940  
C     5.1736310    0.0661730    0.1256120  
C     6.1724340    1.0399710    0.2675890  
C     7.4219270    0.4150110    0.0634390  
C     7.1579990   -0.9631670   -0.2105060  
N     5.8054610   -1.1400210   -0.1652490  
C     8.1794530   -1.8871410   -0.4692920  
C     9.4806870   -1.4156080   -0.4535580  
O    10.5124920   -2.2631500   -0.6986190  
C     9.7640700   -0.0386470   -0.1820850  
O    11.1112170    0.2532360   -0.2060100  
C     8.7634790    0.8697930    0.0723540  
H     6.0073940    2.0902700    0.4475560  
H     5.2746810   -1.9707720   -0.3950560  
H     7.9879460   -2.9340410   -0.6782040  
H    11.3361250   -1.7470930   -0.6442240  
H    11.2464050    1.1941700   -0.0188910  
H     8.9982400    1.9120240    0.2771100  
