66


C     3.2889870   -0.1043580    2.0505310  
C     4.6471670   -0.1307090    2.2139590  
C     5.1990890   -0.7927560    1.0660810  
C     4.1087540   -1.1429940    0.2265740  
N     2.9396650   -0.7141660    0.8486930  
C     4.2816610   -1.7924570   -1.0064330  
C     5.5788250   -2.1065840   -1.3874980  
O     5.8022590   -2.7363730   -2.5768280  
C     6.6789300   -1.7734210   -0.5545840  
O     7.9037010   -2.1544250   -1.0694870  
C     6.5046150   -1.1210920    0.6526190  
H     5.1926740    0.2672880    3.0588130  
H     3.4567140   -2.0164740   -1.6745580  
H     6.7640830   -2.8512690   -2.6657970  
H     8.6095290   -1.8669760   -0.4718170  
H     7.3650780   -0.8671940    1.2689250  
H     2.5095670    0.2759540    2.6949140  
C    -0.3578200    2.1511720   -0.0671200  
C     0.8701640    1.5919910    0.2620220  
C     0.7372110    0.1721660    0.1697540  
C    -0.5988770   -0.0904010   -0.2265250  
N    -1.2381920    1.1170940   -0.3503200  
C    -1.0886980   -1.3896450   -0.4541740  
C    -0.1990210   -2.4461700   -0.2617090  
O    -0.6018600   -3.7263050   -0.4794270  
C     1.1284650   -2.2070860    0.1821010  
O     1.8596150   -3.3554460    0.3858230  
C     1.6085520   -0.9178070    0.3917400  
H     1.7887950    2.1285130    0.4478920  
H    -2.1728440    1.2629810   -0.7055470  
H     0.1675110   -4.2968200   -0.3013460  
H     2.8098710   -3.1479840    0.4005380  
C    -2.9597420   -1.0710810   -2.0652840  
C    -4.2841240   -1.4008870   -2.1583560  
C    -4.6116840   -2.1729060   -0.9929210  
C    -3.4282060   -2.2809040   -0.2184330  
N    -2.4193670   -1.5992130   -0.8933130  
C    -3.3878140   -2.9536740    1.0083010  
C    -4.5619910   -3.5375320    1.4560260  
O    -4.5779650   -4.2115580    2.6459670  
C    -5.7546240   -3.4464370    0.6916490  
O    -6.8419180   -4.0798520    1.2697910  
C    -5.7926020   -2.7758760   -0.5164910  
H    -4.9477790   -1.1353400   -2.9702570  
H    -2.4827480   -3.0413530    1.5974120  
H    -5.4807290   -4.5517450    2.7678470  
H    -7.6040410   -4.0101470    0.6764870  
H    -6.7199960   -2.7137640   -1.0832740  
H    -2.3228490   -0.5226310   -2.7451120  
C     1.2623460    5.7002210    1.9961670  
C     0.4448660    6.6378740    1.4237370  
C    -0.4385130    5.9389240    0.5334310  
C    -0.0937350    4.5641120    0.5988430  
N     0.9573010    4.4515600    1.4860240  
C    -0.7671990    3.5531530   -0.1296200  
C    -1.8472760    3.9963270   -0.9038980  
O    -2.5943900    3.0958340   -1.6244700  
C    -2.1984240    5.3650240   -0.9825590  
O    -3.2787900    5.6088040   -1.8129350  
C    -1.5076240    6.3402220   -0.2900400  
H     0.4651080    7.7024120    1.6123700  
H     1.2944330    3.5732140    1.8484680  
H    -3.2862270    3.6032090   -2.0843840  
H    -3.4741720    6.5571400   -1.8194480  
H    -1.7971580    7.3860650   -0.3676650  
H     2.0541560    5.8141240    2.7231090  
