62


C     4.0096620   -4.3141860   -1.5538210  
C     3.4734700   -3.0788620   -1.2990330  
C     4.4155900   -2.3683290   -0.4789400  
C     5.5205910   -3.2362220   -0.2741220  
N     5.2414170   -4.4155740   -0.9339180  
C     6.6519700   -2.8668760    0.4623690  
C     6.6650330   -1.5921630    1.0050770  
O     7.7392800   -1.1747330    1.7343010  
C     5.5669880   -0.7096970    0.8281380  
O     5.7203090    0.4910260    1.4995440  
C     4.4351670   -1.0699650    0.0961170  
H     2.5253620   -2.7134890   -1.6673250  
H     5.8550950   -5.2134860   -0.9820640  
H     7.5021920   -3.5244910    0.6116240  
H     7.5614730   -0.2520770    1.9900820  
H     5.1491020    1.1721140    1.1089050  
H     3.6168020   -5.1387500   -2.1317570  
C     1.9826450   -0.4367380    0.2272120  
C     3.2899800   -0.1517100   -0.0439730  
C     3.3112690    1.2340180   -0.4974460  
C     1.9131040    1.7239800   -0.4366730  
N     1.1403210    0.6566980    0.0121020  
C     1.5280120    2.9806470   -0.7658410  
C     2.5466390    3.9255650   -1.2202340  
O     2.2934310    5.0824870   -1.5182160  
C     4.0304170    3.4193720   -1.3316100  
O     4.8896210    4.1845740   -1.7392420  
C     4.3218350    2.0377240   -0.9357560  
H     0.4974950    3.3144030   -0.7208200  
H     5.3436940    1.6870430   -1.0516930  
H     1.5554490   -1.3689150    0.5733090  
C    -1.1262260    0.2741870    3.7165520  
C    -2.3779590    0.3301940    3.1623470  
C    -2.2103330    0.4979620    1.7460420  
C    -0.8122140    0.5268070    1.5056720  
N    -0.1758670    0.3871990    2.7177520  
C    -0.2645430    0.6541310    0.2179210  
C    -1.1572950    0.7669680   -0.8475610  
O    -0.6825750    0.9110390   -2.1119290  
C    -2.5539720    0.7527940   -0.6171330  
O    -3.2960630    0.8929250   -1.7781470  
C    -3.1139940    0.6053060    0.6532660  
H    -3.3113640    0.2500920    3.6997780  
H     0.8219970    0.4254660    2.8579950  
H    -1.4545870    1.0452500   -2.6912360  
H    -4.1658340    1.2641070   -1.5606140  
H    -0.8249090    0.1598360    4.7479500  
C    -5.2936620    1.2371330    1.8131650  
C    -4.5686410    0.5885190    0.8558800  
C    -5.5807700   -0.2165720    0.1348560  
C    -6.8674840    0.1097230    0.8217830  
N    -6.6875210    0.9610510    1.7932450  
C    -8.1140470   -0.4824720    0.4143450  
C    -8.0894390   -1.3759060   -0.6038560  
O    -9.1732130   -2.0076910   -1.0799190  
C    -6.8071080   -1.7422190   -1.3001020  
O    -6.8634650   -2.5618100   -2.2137920  
C    -5.5391400   -1.1080950   -0.8744560  
H    -9.0316300   -0.2175330    0.9277910  
H    -8.8462620   -2.5861590   -1.8033150  
H    -4.6393340   -1.3905630   -1.4109060  
H    -4.9150610    1.9288870    2.5561180  
