62


C    -3.8774710   -0.3409650   -0.7684920  
C    -2.5137050   -0.1554670   -0.7545780  
C    -2.2819990    1.2503920   -0.9027870  
C    -3.5557890    1.8775240   -0.9837850  
N    -4.5125010    0.8821550   -0.8958800  
C    -3.7216770    3.2564930   -1.1010160  
C    -2.5683550    4.0327140   -1.1472400  
O    -2.6723240    5.3816940   -1.3018020  
C    -1.2913150    3.4368850   -1.0512720  
O    -0.2451270    4.3471680   -1.1149930  
C    -1.1090450    2.0557820   -0.9155150  
H    -1.7788890   -0.9322280   -0.6054980  
H    -5.5003160    0.9947200   -1.0677270  
H    -4.6940320    3.7325500   -1.1714670  
H    -1.7652000    5.7305670   -1.3625640  
H     0.5291990    3.9171400   -1.5108780  
C     0.6957850    0.3261820   -1.4074070  
C     0.2249450    1.4576140   -0.8090830  
C     1.3405450    1.8780440    0.0724780  
C     2.4068990    0.8645780   -0.1596780  
N     2.0146760   -0.0257080   -1.0263530  
C     3.6971550    0.9193070    0.5336120  
C     3.8276690    1.9408010    1.4431840  
O     4.9334750    2.1583770    2.1875480  
C     2.7570260    2.9402200    1.7148260  
O     2.9961190    3.8129860    2.5545790  
C     1.4853450    2.8638370    0.9787040  
H     4.7163370    2.9518100    2.7329220  
H     0.7353200    3.6180320    1.1903250  
H     0.1814000   -0.2987050   -2.1263210  
C     4.7408730   -0.0569480    0.2704270  
C     4.7408210   -1.1178340   -0.6069380  
C     6.0110650   -1.7807000   -0.4983260  
C     6.7870260   -1.0319110    0.5216970  
N     5.9709450   -0.0103270    0.9442560  
C     8.0494350   -1.3511430    0.9097740  
C     8.6962530   -2.5027050    0.2920270  
O     9.8283090   -2.8667090    0.5754750  
C     7.8921410   -3.3120640   -0.7921920  
O     8.4184890   -4.2801910   -1.3206380  
C     6.5370510   -2.8697580   -1.1266660  
H     3.9182920   -1.3872570   -1.2486850  
H     8.6026340   -0.7917580    1.6578920  
H     5.9908130   -3.4349270   -1.8758410  
H     6.1998720    0.6851170    1.6382740  
C    -4.2605560   -2.7045780   -1.3680780  
C    -5.1863650   -3.6725940   -1.1082460  
C    -6.1820960   -3.0941440   -0.2474710  
C    -5.7999580   -1.7507830   -0.0079980  
N    -4.6147030   -1.5215710   -0.7143620  
C    -6.5291850   -0.8995700    0.8327250  
C    -7.6809930   -1.4077620    1.4161460  
O    -8.4269760   -0.6160050    2.2391260  
C    -8.0896160   -2.7441620    1.1699110  
O    -9.2563460   -3.0990380    1.8174630  
C    -7.3543980   -3.5868640    0.3561360  
H    -5.1707610   -4.6824310   -1.4947180  
H    -6.2218710    0.1139300    1.0638560  
H    -9.1720040   -1.1532070    2.5596620  
H    -9.4568300   -4.0299720    1.6402240  
H    -7.6763830   -4.6132370    0.1918310  
H    -3.3765330   -2.7207600   -1.9882430  
