66


C     5.0619740   -0.9157410   -2.3665930  
C     6.4204970   -1.0748580   -2.3333350  
C     6.8372350   -0.8728600   -0.9748030  
C     5.6658990   -0.5984920   -0.2199300  
N     4.5826540   -0.6245670   -1.0924290  
C     5.6958490   -0.3731280    1.1661950  
C     6.9336700   -0.4072630    1.7940640  
O     7.0174190   -0.1972760    3.1399240  
C     8.1146720   -0.6667380    1.0515570  
O     9.2668240   -0.6641430    1.8159490  
C     8.0784700   -0.9043600   -0.3108560  
H     7.0530920   -1.3052230   -3.1797250  
H     4.7984500   -0.2229810    1.7574510  
H     7.9546320   -0.2823460    3.3861340  
H    10.0246800   -0.8938410    1.2583670  
H     8.9971080   -1.1130450   -0.8561800  
H     4.3680030   -0.9656320   -3.1930460  
C     0.8310680   -2.9407840   -1.6443890  
C     2.1495290   -2.5659800   -1.6103120  
C     2.1933150   -1.2483510   -1.0424680  
C     0.8589360   -0.8761750   -0.7390980  
N     0.0529120   -1.9323170   -1.1110760  
C     0.4906060    0.3573490   -0.1575300  
C     1.5471500    1.2330420    0.0997170  
O     1.3076840    2.4523640    0.6697190  
C     2.8901010    0.9025150   -0.2180310  
O     3.7924520    1.9096340    0.0572080  
C     3.2291980   -0.3268080   -0.7742440  
H     2.9912960   -3.1574340   -1.9405910  
H    -0.9550590   -1.9113590   -1.0782350  
H     2.1804950    2.8599140    0.8182190  
H     4.6872700    1.5392690    0.1523550  
H     0.3759950   -3.8553490   -1.9976150  
C    -1.7818910   -0.1886160    0.8093850  
C    -0.9148010    0.6639550    0.1645340  
C    -1.6754900    1.8560150   -0.1571750  
C    -2.9953310    1.6659450    0.3131980  
N    -3.0322290    0.4112410    0.9120520  
C    -4.0147160    2.6093630    0.1545330  
C    -3.6853370    3.7854620   -0.5011670  
O    -4.6311600    4.7505510   -0.6862290  
C    -2.3658490    3.9997210   -0.9827840  
O    -2.1941900    5.2197160   -1.6105030  
C    -1.3679470    3.0579500   -0.8231700  
H    -5.0235820    2.4486520    0.5174710  
H    -4.2007440    5.4870970   -1.1538770  
H    -1.2678900    5.3147230   -1.8772760  
H    -0.3604510    3.2500450   -1.1796160  
H    -1.6157920   -1.1571140    1.2589380  
C    -4.5147920   -0.0578830    2.8073980  
C    -5.6348220   -0.8115580    3.0167500  
C    -5.9775060   -1.4366540    1.7661240  
C    -5.0194380   -1.0210230    0.8096780  
N    -4.1358800   -0.1745690    1.4709010  
C    -5.0355440   -1.4361800   -0.5250260  
C    -6.0509030   -2.3010460   -0.9050340  
O    -6.1196780   -2.7443740   -2.1940750  
C    -7.0241630   -2.7327990    0.0351890  
O    -7.9682140   -3.5920980   -0.4959030  
C    -7.0001710   -2.3132580    1.3527180  
H    -6.1620030   -0.9121430    3.9556530  
H    -4.3061580   -1.0991100   -1.2532850  
H    -6.9039690   -3.3160550   -2.2596850  
H    -8.6221390   -3.8133150    0.1833740  
H    -7.7575570   -2.6579270    2.0542220  
H    -3.9337840    0.5650980    3.4715010  
