62


C    -1.7186890   -0.6226210    0.2574840  
C    -1.0779860    0.5399620   -0.1137750  
C    -2.0976650    1.4154150   -0.6492270  
C    -3.3276810    0.7173290   -0.5576950  
N    -3.0721880   -0.5338070   -0.0029250  
C    -4.5465400    1.2687580   -0.9830060  
C    -4.5155690    2.5437440   -1.5300200  
O    -5.6701600    3.1283000   -1.9495150  
C    -3.2875240    3.2472400   -1.6543160  
O    -3.4181870    4.4917250   -2.2323650  
C    -2.0911150    2.7020910   -1.2243940  
H    -5.4962230    0.7591180   -0.8589800  
H    -5.4460380    4.0182940   -2.2732410  
H    -2.5735430    4.9648460   -2.1936310  
H    -1.1658250    3.2619330   -1.3349760  
H    -1.3176160   -1.5182390    0.7097730  
C     1.3490650   -0.0822940   -0.3507900  
C     0.3588180    0.7794630   -0.0041800  
C     1.0173360    1.9582850    0.5601640  
C     2.4772380    1.7120280    0.4952610  
N     2.6306290    0.4248060   -0.0398680  
C     3.4140820    2.6215960    0.8637110  
C     2.9662450    3.9010730    1.4213450  
O     3.7456610    4.7705820    1.7745240  
C     1.4257660    4.1477000    1.5664090  
O     1.0317370    5.1953850    2.0508930  
C     0.5140670    3.1014640    1.0886310  
H     4.4811880    2.4724360    0.7518120  
H    -0.5523760    3.2860350    1.1625940  
H     1.2702140   -1.0669630   -0.7885350  
C     3.7991190   -0.2648840   -0.3026330  
C     4.0297220   -1.2253820   -1.2493360  
C     5.3789110   -1.6930470   -1.0674240  
C     5.9326010   -0.9244100    0.0727420  
N     4.9423740   -0.0229430    0.4665300  
C     7.1669140   -1.1054870    0.5941860  
C     8.0388640   -2.1088700   -0.0239970  
O     9.1671360   -2.3374350    0.3800020  
C     7.4903960   -2.9052120   -1.2630690  
O     8.2121190   -3.7367830   -1.7934110  
C     6.1304900   -2.6244870   -1.7175480  
H     3.3486270   -1.5286940   -2.0306440  
H     7.5534850   -0.5380900    1.4353000  
H     5.7546910   -3.1935990   -2.5622370  
H     4.8861410    0.3331910    1.4110350  
C    -4.2886550   -2.6558350    3.7077670  
C    -3.6955200   -1.7905740    2.8253740  
C    -4.2262610   -2.0917110    1.5259830  
C    -5.1497300   -3.1589710    1.6851620  
N    -5.1621120   -3.4826230    3.0262360  
C    -5.8821110   -3.6997040    0.6215840  
C    -5.6752500   -3.1569950   -0.6369200  
O    -6.3611580   -3.6423060   -1.7094790  
C    -4.7419840   -2.1052590   -0.8365860  
O    -4.6044860   -1.7134020   -2.1504490  
C    -4.0208290   -1.5730100    0.2284780  
H    -2.9749720   -1.0243060    3.0725980  
H    -5.7354400   -4.1975590    3.4458030  
H    -6.5982730   -4.5050280    0.7473760  
H    -6.0952210   -3.1109740   -2.4809490  
H    -4.2463920   -0.8106970   -2.1976520  
H    -4.1637860   -2.7526220    4.7769420  
