62


C     2.2413080   -1.1867960    0.5673960  
C     3.3230090   -0.4504970    0.1240630  
C     2.7790470    0.8092420   -0.3298540  
C     1.3792880    0.7722870   -0.1380230  
N     1.0802900   -0.4577510    0.4043070  
C     0.5168020    1.8641000   -0.4425370  
C     1.1500390    3.0088750   -0.9754720  
O     0.4298840    4.0824690   -1.3610180  
C     2.5551250    3.0354280   -1.1876330  
O     3.0006700    4.2215940   -1.7361420  
C     3.3674220    1.9635160   -0.8827420  
H     0.1708270   -0.7292370    0.7481180  
H     1.0594610    4.7428590   -1.7039900  
H     3.9590910    4.1809140   -1.8704410  
H     4.4400250    2.0090720   -1.0521430  
H     2.2168490   -2.1637740    1.0300040  
C    -0.9096300    1.7873060   -0.2121750  
C    -1.7031250    0.6570930   -0.2214670  
C    -3.0204530    1.0925340    0.1307420  
C    -2.8717810    2.5732920    0.3335070  
N    -1.6508860    2.9715030    0.1307380  
C    -3.9891790    3.3988350    0.7034300  
C    -5.1929940    2.7951940    0.8403610  
O    -6.3194820    3.4336330    1.1795120  
C    -5.3808960    1.3055610    0.6503200  
O    -6.5050120    0.8594730    0.8796630  
C    -4.2302120    0.4665740    0.2665680  
H    -1.4300160   -0.3382740   -0.5387160  
H    -3.8544570    4.4640030    0.8536520  
H    -7.0089670    2.7321310    1.2232720  
C    -2.4231280   -3.2423130    2.0068910  
C    -2.6907760   -1.9354370    1.7621660  
C    -3.7295720   -1.9473530    0.7367670  
C    -3.9713350   -3.4013530    0.4880230  
N    -3.2013310   -4.1511150    1.2271900  
C    -4.9623340   -3.8566960   -0.4515590  
C    -5.6803820   -2.9188290   -1.1110920  
O    -6.6315940   -3.1972360   -2.0156430  
C    -5.4434900   -1.4444340   -0.9096260  
O    -6.0710110   -0.6724920   -1.6263520  
C    -4.4318630   -0.9800180    0.0915120  
H    -2.2669240   -1.0630120    2.2385110  
H    -5.1153030   -4.9185870   -0.6084180  
H    -6.9441090   -2.3264470   -2.3459960  
H    -1.7156740   -3.6532240    2.7180800  
C     7.1045560    1.3820300    1.7667920  
C     5.7974710    1.1344970    1.4350630  
C     5.7732820   -0.0952800    0.6901310  
C     7.1147980   -0.5537760    0.6097750  
N     7.9030550    0.3696020    1.2677480  
C     7.4765680   -1.7481950   -0.0253760  
C     6.4573620   -2.4971340   -0.5902670  
O     6.7464710   -3.6662130   -1.2341750  
C     5.1089440   -2.0634490   -0.5169100  
O     4.2145760   -2.9155910   -1.1335940  
C     4.7377510   -0.8730670    0.1067390  
H     4.9484240    1.7465240    1.7036580  
H     8.9009440    0.2994610    1.3890080  
H     8.5018650   -2.0983300   -0.0883840  
H     5.9052930   -4.0145940   -1.5776080  
H     3.3494910   -2.4691760   -1.1655560  
H     7.5395410    2.1984980    2.3259830  
