62


C    -4.1756860   -0.0514610   -0.0450910  
C    -2.8060550    0.0362600   -0.2136350  
C    -2.4754390    1.4186860   -0.3758890  
C    -3.6882560    2.1545800   -0.2958400  
N    -4.6964970    1.2437120   -0.0709390  
C    -3.7445610    3.5487130   -0.3954150  
C    -2.5461340    4.2235230   -0.5786910  
O    -2.5356850    5.5794720   -0.6800280  
C    -1.3158160    3.5205190   -0.6798990  
O    -0.2187350    4.3161990   -0.9389620  
C    -1.2734060    2.1311200   -0.5837500  
H    -2.1180790   -0.7943830   -0.1632130  
H    -5.6855950    1.4452220   -0.0811480  
H    -4.6714610    4.1078720   -0.3235950  
H    -1.6031890    5.8436150   -0.7855990  
H     0.5575640    3.9947850   -0.4433870  
C     0.2274210    0.4816740   -1.7176520  
C     1.5173900    0.0665310   -1.6681290  
C     2.1637700    0.7842460   -0.5887640  
C     1.1160790    1.6475680    0.0030540  
N    -0.0376950    1.4386860   -0.7294700  
C     1.2943240    2.4675650    1.0820160  
C     2.6038790    2.4928700    1.7102960  
O     2.8610840    3.1359780    2.7164210  
C     3.7537170    1.6372460    1.0636110  
O     4.8753760    1.7346670    1.5291110  
C     3.4468050    0.7589000   -0.0986440  
H     1.9683670   -0.6815980   -2.3017900  
H     0.4813390    3.0109950    1.5544800  
H    -0.5728580    0.1874420   -2.3824910  
C     4.7535120   -0.0941870   -2.0666350  
C     4.5211450   -0.0157780   -0.7200560  
C     5.5382100   -0.8624240   -0.0828400  
C     6.3562010   -1.4284360   -1.1837000  
N     5.8224380   -0.9220690   -2.3554790  
C     7.4049330   -2.2735500   -1.0217300  
C     7.7587850   -2.6845440    0.3329430  
O     8.6831020   -3.4431010    0.5818180  
C     6.8899310   -2.1247310    1.5159240  
O     7.1455150   -2.4768250    2.6555670  
C     5.7918320   -1.1976010    1.2066210  
H     7.9872380   -2.6672540   -1.8492310  
H     5.2316160   -0.7953970    2.0421690  
H     4.2334590    0.4152510   -2.8669950  
H     6.2174420   -1.0606610   -3.2728210  
C    -3.9277320   -4.2856620   -1.5270250  
C    -3.6795900   -2.9605720   -1.2827710  
C    -4.7246670   -2.4825780   -0.4200700  
C    -5.5942980   -3.5831690   -0.1834720  
N    -5.0784270   -4.6659970   -0.8632600  
C    -6.7561800   -3.4942680    0.5892240  
C    -7.0473550   -2.2578550    1.1465040  
O    -8.1553610   -2.1074020    1.9249040  
C    -6.1978290   -1.1476880    0.9291220  
O    -6.6334550    0.0297780    1.5466320  
C    -5.0356270   -1.2197410    0.1539810  
H    -2.8603300   -2.3881860   -1.6901940  
H    -5.4860690   -5.5875430   -0.8810030  
H    -7.4148020   -4.3377800    0.7679180  
H    -8.1482660   -1.1839170    2.2357980  
H    -5.8776880    0.4451950    1.9948660  
H    -3.3779470   -4.9986440   -2.1250260  
