60


C    -7.8274880   -0.9713420    1.4292350  
C    -6.7205000   -0.2193670    1.1265280  
C    -5.7562690   -1.1037990    0.5384690  
C    -6.3407180   -2.3961880    0.5211450  
N    -7.6043680   -2.2832520    1.0622850  
C    -5.6732290   -3.5265510    0.0385550  
C    -4.3833800   -3.3515630   -0.4362920  
O    -3.6961040   -4.4192030   -0.9313950  
C    -3.7622470   -2.0744350   -0.4316160  
O    -2.4853680   -2.1127280   -0.9501320  
C    -4.4275200   -0.9364500    0.0530420  
H    -6.6026580    0.8360250    1.3216200  
H    -8.2539060   -3.0437550    1.1867570  
H    -6.1226890   -4.5141030    0.0166750  
H    -2.8400360   -4.0759820   -1.2442920  
H    -2.1177810   -1.2448290   -1.2163320  
H    -8.7646410   -0.6784890    1.8809440  
C    -3.8032380    0.3772650    0.0067560  
C    -4.3331690    1.6123010   -0.2746000  
C    -3.2515410    2.5558520   -0.3596690  
C    -2.0103800    1.7879410   -0.0915730  
N    -2.4162180    0.5026080    0.1620430  
C    -0.7394650    2.2912920   -0.1221430  
C    -0.6157690    3.7160010   -0.5098940  
O     0.4549690    4.2508060   -0.7400000  
C    -1.9240900    4.5693990   -0.6921640  
O    -1.8086320    5.7714900   -0.8847490  
C    -3.2101570    3.8890220   -0.6419290  
H    -5.3690900    1.8149090   -0.5004510  
H    -4.1041660    4.4779110   -0.8226980  
H    -1.7988570   -0.2369180    0.4573720  
C     0.6582230   -1.5897420   -1.8060880  
C     1.9385810   -1.6187590   -1.3802420  
C     2.0974550   -0.4310920   -0.5535210  
C     0.7572190    0.2457130   -0.6102430  
N    -0.0784250   -0.4579490   -1.3302710  
C     0.4869370    1.4986420    0.0815900  
C     1.5004350    1.9536610    0.8792390  
O     1.3917050    3.0351360    1.6541180  
C     2.8486490    1.2940530    0.9643980  
O     3.7014660    1.8529020    1.6468860  
C     3.1114760    0.0292420    0.2181280  
H     2.7019910   -2.3480650   -1.6031670  
H     2.2813740    3.1730060    2.0485440  
H     0.1459520   -2.3031730   -2.4397070  
C     6.1542660   -1.0077940   -2.7975010  
C     7.1617670   -1.4885060   -2.0350310  
C     6.6672240   -1.4206140   -0.6633770  
C     5.2878990   -0.8469120   -0.8024320  
N     4.9971650   -0.6110960   -2.0460720  
C     4.4400770   -0.5967220    0.3543060  
C     4.9574260   -0.9421450    1.5675810  
O     4.2868530   -0.8318890    2.7187320  
C     6.3388820   -1.5267840    1.7280090  
O     6.7023320   -1.8015660    2.8690840  
C     7.1795460   -1.7443030    0.5393340  
H     8.1313180   -1.8471110   -2.3511780  
H     4.9099430   -1.1347820    3.4174630  
H     8.1701890   -2.1591090    0.6982800  
H     6.1268020   -0.8912020   -3.8740860  
