60


C     5.4060580    1.4629120    3.4831590  
C     4.7512780    0.6905320    2.5560510  
C     5.6357930    0.5275960    1.4297160  
C     6.8290020    1.2273270    1.7514920  
N     6.6519770    1.7982440    2.9963780  
C     7.9515500    1.2508780    0.9170120  
C     7.8698760    0.5236450   -0.2584540  
O     8.9279490    0.4760490   -1.1099190  
C     6.6890520   -0.1869740   -0.6144650  
O     6.7801950   -0.8243440   -1.8265620  
C     5.5431170   -0.1730130    0.1872430  
H     3.7738780    0.2490030    2.6892730  
H     7.3538290    2.3190330    3.4986980  
H     8.8659820    1.7782050    1.1686330  
H     8.6541440   -0.1213620   -1.8330850  
H     6.3455780   -1.7057400   -1.7240050  
H     5.0881630    1.7946570    4.4614650  
C     1.4908750    1.4360130    0.1568530  
C     0.7568290    0.3535590   -0.2504270  
C     1.7276820   -0.7270320   -0.4699230  
C     3.0614100   -0.1612940   -0.1551960  
N     2.8405850    1.1499570    0.2033680  
C     4.2718070   -0.8147340   -0.2270890  
C     4.2022710   -2.1622110   -0.7895490  
O     5.1906330   -2.8258170   -1.1085820  
C     2.8006480   -2.8217090   -1.0561110  
O     2.7715220   -3.9876360   -1.4111340  
C     1.5965310   -2.0074180   -0.8971210  
H     0.6402570   -2.4777970   -1.0874610  
H     1.1386000    2.4172660    0.4449580  
H     3.5491180    1.7306910    0.6316860  
C    -2.0358390    3.2877700   -2.0559100  
C    -0.9342820    2.6074450   -1.6422610  
C    -1.3863040    1.3763380   -1.0308970  
C    -2.8566490    1.3849510   -1.1392660  
N    -3.1846550    2.5605660   -1.7819550  
C    -3.7217230    0.4131160   -0.6774430  
C    -3.0710650   -0.7293710   -0.0183120  
O    -3.6792090   -1.6818460    0.4431260  
C    -1.4980620   -0.7695470    0.1017100  
O    -1.0120170   -1.7250040    0.6828060  
C    -0.6913170    0.3402550   -0.4425450  
H     0.0909890    2.9146730   -1.7792070  
H    -2.1085850    4.2437650   -2.5568360  
H    -4.1313740    2.9021160   -1.8625850  
C    -5.8409020    1.0357500   -1.9239170  
C    -5.1623790    0.4772970   -0.8684460  
C    -6.2509300    0.0228820    0.0380870  
C    -7.4998200    0.4245790   -0.6647070  
N    -7.2447250    1.0021890   -1.8109450  
C    -8.8033530    0.1772380   -0.1113310  
C    -8.8742580   -0.4278890    1.0989110  
O   -10.0200970   -0.7122950    1.7380060  
C    -7.6351240   -0.8332890    1.8415820  
O    -7.7728180   -1.3666770    2.9409620  
C    -6.3049910   -0.5846550    1.2384790  
H    -9.6884700    0.4801820   -0.6595890  
H    -9.7496470   -1.1432270    2.5786100  
H    -5.4410350   -0.9358950    1.7884060  
H    -5.4136760    1.4326030   -2.8380650  
