62


C     5.8069060   -0.2891820   -3.2381920  
C     6.6627650   -1.3140470   -2.9258140  
C     6.4179950   -1.6614700   -1.5554710  
C     5.3821440   -0.8075470   -1.0882270  
N     5.0380430    0.0205740   -2.1354770  
C     4.8809210   -0.8318270    0.2348350  
C     5.5022060   -1.7522360    1.0773230  
O     5.1206460   -1.8321410    2.4062710  
C     6.5322440   -2.6154110    0.6351350  
O     7.0061390   -3.4628380    1.6229640  
C     6.9924100   -2.5905770   -0.6664790  
H     7.3900570   -1.7619170   -3.5888690  
H     4.3132890    0.7210970   -2.0941680  
H     5.6720880   -2.5231400    2.8166710  
H     7.7464750   -3.9819770    1.2763630  
H     7.7875470   -3.2605330   -0.9869110  
H     5.6801790    0.2560010   -4.1629770  
C     0.8434670    0.0931720   -1.4813970  
C     2.0658000   -0.4514980   -1.2123950  
C     2.6107900    0.2486200   -0.0759590  
C     1.6544880    1.2222990    0.3042780  
N     0.5723350    1.1221610   -0.5754360  
C     1.8040330    2.0304980    1.4350160  
C     2.9488620    1.8402990    2.1911340  
O     3.1547030    2.5765550    3.3159230  
C     3.9334480    0.8832280    1.8229090  
O     5.0192580    0.8469720    2.6696810  
C     3.8073010    0.0937040    0.6784820  
H     2.5293680   -1.2615490   -1.7569310  
H     1.0765360    2.7750270    1.7334520  
H     4.0019330    2.2604990    3.6839730  
H     5.2388190   -0.0961350    2.8327510  
H     0.1372950   -0.1219610   -2.2701190  
C    -3.6310370   -0.0954600   -0.5611080  
C    -2.2639900   -0.0857000   -0.5244340  
C    -1.8478720    1.2912540   -0.5774730  
C    -3.0806400    2.1009190   -0.6465780  
N    -4.1442630    1.2025210   -0.5902840  
C    -3.1287530    3.4525910   -0.7273570  
C    -1.8656470    4.1806990   -0.7241910  
O    -1.7937440    5.3983430   -0.7492220  
C    -0.5258680    3.3558260   -0.6729500  
O     0.5310590    3.9535930   -0.7631520  
C    -0.6096090    1.8813710   -0.5602030  
H    -1.6187180   -0.9410980   -0.3954270  
H    -4.0533280    4.0193050   -0.7679180  
H    -5.0634440    1.4216450   -0.9479210  
C    -4.1318370   -2.4343950   -1.1290320  
C    -5.1438890   -3.3222030   -1.0271480  
C    -6.2497900   -2.6584660   -0.3662440  
C    -5.7926910   -1.2787510   -0.0708310  
N    -4.4876000   -1.1835220   -0.5826260  
C    -6.5330370   -0.3661850    0.6057240  
C    -7.8886200   -0.7397370    1.0249420  
O    -8.6197800    0.0270900    1.6285230  
C    -8.4050100   -2.1792450    0.6794020  
O    -9.5366810   -2.4997550    1.0004820  
C    -7.4870430   -3.0897450   -0.0145370  
H    -5.1363100   -4.3412020   -1.3863190  
H    -6.1783500    0.6188910    0.8844010  
H    -7.8341100   -4.0983090   -0.2171190  
H    -3.1544330   -2.5441320   -1.5768870  
