62


C     4.6285460   -0.8141930   -0.1918610  
C     5.2290880   -1.8927210   -0.8243650  
C     6.6279000   -1.8306880   -0.5633370  
C     6.8492660   -0.6828890    0.2488660  
N     5.6285710   -0.0619810    0.4285040  
C     8.1156430   -0.3233420    0.7192770  
C     9.1838590   -1.1295570    0.3542300  
O    10.4384750   -0.8272130    0.7843390  
C     8.9856990   -2.2724780   -0.4732520  
O    10.1497420   -2.9595720   -0.7491740  
C     7.7342040   -2.6264070   -0.9339880  
H     4.7150880   -2.6090520   -1.4506140  
H     5.4454220    0.6191060    1.1500360  
H     8.2904130    0.5481430    1.3415880  
H    11.0415190   -1.4983390    0.4195220  
H     9.9542230   -3.7194050   -1.3173920  
H     7.6044090   -3.5048850   -1.5624200  
C     2.1362870   -1.2348650   -0.2359600  
C     3.2408440   -0.4372440   -0.1368860  
C     2.6867520    0.9301600    0.0099760  
C     1.2091990    0.7450060   -0.0449680  
N     0.9174770   -0.5271470   -0.1729530  
C     0.2758180    1.8550080    0.0431330  
C     0.8446890    3.0770300    0.3063780  
O     0.1400340    4.1928100    0.5429270  
C     2.3196420    3.2933560    0.3510890  
O     2.7361360    4.4329860    0.5722060  
C     3.2326960    2.1495370    0.1582370  
H     0.8115470    4.9002210    0.6642480  
H     4.2972030    2.3607460    0.1679780  
H     2.1108650   -2.3128800   -0.3340440  
C    -2.6706840   -1.0702390    1.6830980  
C    -3.8029670   -0.4641990    1.1947060  
C    -3.3837260    0.6711450    0.4129980  
C    -1.9711720    0.7055390    0.4917170  
N    -1.5672700   -0.3404400    1.3029560  
C    -1.1866030    1.7010320   -0.1405310  
C    -1.8967610    2.5939820   -0.9563410  
O    -1.2342090    3.5065870   -1.7135140  
C    -3.3153490    2.5614180   -1.0378210  
O    -3.8399940    3.5414020   -1.8580200  
C    -4.0691480    1.6363440   -0.3471950  
H    -0.6369330   -0.7340060    1.1892640  
H    -1.9070830    4.0249910   -2.1893980  
H    -4.7838010    3.3766760   -2.0009400  
H    -5.1541430    1.6364350   -0.4140530  
H    -2.5726700   -1.9683440    2.2763760  
C    -5.7679950   -0.8241880    2.6975520  
C    -7.0479140   -1.2723940    2.6296290  
C    -7.3011950   -1.6330690    1.2522920  
C    -6.0387560   -1.3602940    0.5185520  
N    -5.1342900   -0.8663810    1.4526630  
C    -5.8615440   -1.5784510   -0.8099750  
C    -6.9845770   -2.1033210   -1.5810530  
O    -6.9241640   -2.3231040   -2.7821050  
C    -8.3346820   -2.3937930   -0.8256290  
O    -9.2840780   -2.8305600   -1.4590990  
C    -8.3953460   -2.1259690    0.6119220  
H    -7.7487400   -1.3414450    3.4489600  
H    -4.9262770   -1.3794420   -1.3217960  
H    -9.3294570   -2.3355840    1.1245850  
H    -5.2087980   -0.4535150    3.5464790  
