64


C     1.7988480   -0.8171640    0.0817930  
C     3.0945910   -0.5064560   -0.2460240  
C     3.1717900    0.9416200   -0.2860600  
C     1.8912290    1.4543590    0.0267640  
N     1.0649070    0.3573720    0.2438760  
C     1.5994550    2.8206560    0.0674320  
C     2.6350370    3.6962950   -0.2242670  
O     2.4144370    5.0427750   -0.2009130  
C     3.9262630    3.2056650   -0.5539330  
O     4.8491990    4.1997820   -0.8247670  
C     4.2034870    1.8512450   -0.5906070  
H     0.6124910    3.2027360    0.3030240  
H     3.2451590    5.4733500   -0.4673210  
H     5.6654570    3.7982840   -1.1577080  
H     5.1968510    1.4947790   -0.8525260  
H     1.3217470   -1.7736240    0.2375820  
C    -0.7509640    0.4739420    1.8846870  
C    -2.1167040    0.5057110    1.8403340  
C    -2.5083700    0.4654630    0.4554120  
C    -1.3217540    0.4029870   -0.3134130  
N    -0.2597130    0.4151590    0.5838250  
C    -1.3081070    0.3217250   -1.7077000  
C    -2.5390300    0.3063550   -2.3439350  
O    -2.5973520    0.2346030   -3.7034560  
C    -3.7477180    0.3790870   -1.6017240  
O    -4.8726210    0.3930940   -2.4011210  
C    -3.7639460    0.4581230   -0.2090710  
H    -2.7726310    0.5363710    2.6988090  
H    -0.3917740    0.2727750   -2.2847450  
H    -3.5381110    0.2384300   -3.9522430  
H    -5.6734590    0.3987090   -1.8542760  
H    -0.0603150    0.4852870    2.7150110  
C     4.0982690   -2.5451030   -1.3690840  
C     4.1713070   -1.4602880   -0.5240810  
C     5.5056490   -1.4739470    0.0351600  
C     6.1838660   -2.5909980   -0.5167650  
N     5.2989960   -3.2278030   -1.3638300  
C     7.5046830   -2.9158220   -0.1818030  
C     8.1520020   -2.1011390    0.7339910  
O     9.4408660   -2.3724130    1.0964020  
C     7.4847630   -0.9864690    1.3071370  
O     8.2581970   -0.2740210    2.2077340  
C     6.1813170   -0.6681060    0.9738850  
H     5.5072150   -4.0421570   -1.9195940  
H     8.0257540   -3.7708760   -0.6006300  
H     9.6953070   -1.7101980    1.7618790  
H     7.7101060    0.3989280    2.6376420  
H     5.6868260    0.1858400    1.4314110  
H     3.2790660   -2.8704230   -1.9947880  
C    -5.3321050    1.4959860    1.4920550  
C    -5.0291540    0.5613640    0.5423950  
C    -6.1975190   -0.3137530    0.4527070  
C    -7.1946890    0.2089740    1.4217490  
N    -6.5997540    1.3003100    2.0230950  
C    -8.4219180   -0.3304980    1.6299130  
C    -8.8023530   -1.5123240    0.8598930  
O    -9.8882230   -2.0591530    0.9724540  
C    -7.7546040   -2.1010610   -0.1537640  
O    -8.0443690   -3.1007050   -0.7907460  
C    -6.4615720   -1.4209860   -0.2950100  
H    -9.1358250    0.0677700    2.3444930  
H    -5.7425500   -1.8478170   -0.9873750  
H    -4.7212680    2.3192370    1.8381740  
H    -7.0344790    1.8830020    2.7213140  
