62


C     3.9087570   -0.6274040   -0.0488270  
C     3.9210180   -1.9653420    0.2984310  
C     5.2363540   -2.4689480    0.0533300  
C     6.0080900   -1.3869870   -0.4528290  
N     5.1902370   -0.2726170   -0.4715650  
C     7.3502050   -1.5232830   -0.8206540  
C     7.9323210   -2.7736890   -0.6682360  
O     9.2387130   -2.9623980   -1.0152710  
C     7.1825850   -3.8632240   -0.1490580  
O     7.9050600   -5.0381900   -0.0499280  
C     5.8557980   -3.7259820    0.2126700  
H     3.0873060   -2.5031920    0.7289170  
H     5.3836150    0.5692680   -0.9932050  
H     7.9416670   -0.7020850   -1.2127250  
H     9.4518500   -3.8940920   -0.8339000  
H     7.3341820   -5.7388520    0.2981780  
H     5.3015690   -4.5760310    0.6059510  
C     1.5026530    0.0684380   -0.2263590  
C     2.8341050    0.3422990   -0.0236000  
C     2.9293580    1.7711220    0.2100290  
C     1.6221130    2.3017950    0.1178790  
N     0.7517400    1.2341890   -0.1591970  
C     1.3410510    3.6461160    0.3733070  
C     2.4054830    4.4763360    0.7003140  
O     2.1770060    5.7983740    0.9469390  
C     3.7209170    3.9621770    0.7937790  
O     4.6705580    4.9017040    1.1419430  
C     3.9910470    2.6236640    0.5595690  
H     0.3441980    4.0612870    0.3178020  
H     3.0311500    6.2008400    1.1805990  
H     5.5265640    4.4670020    1.2708020  
H     4.9999310    2.2378450    0.6864090  
H     1.0214510   -0.8714310   -0.4418800  
C    -2.2712530   -1.3038960    1.5716150  
C    -3.4271290   -0.7649220    1.0767660  
C    -2.9643560    0.3618330    0.2368040  
C    -1.4847330    0.3188860    0.3531290  
N    -1.0965420   -0.6546560    1.1333020  
C    -0.6403850    1.2926280   -0.3226700  
C    -1.2695680    2.2432210   -1.0838160  
O    -0.6160550    3.1735340   -1.8090290  
C    -2.7433090    2.3264150   -1.1739400  
O    -3.2351510    3.2114710   -1.8842540  
C    -3.5778630    1.3375550   -0.4587660  
H    -1.3287740    3.7022380   -2.2334850  
H    -4.6537050    1.4504880   -0.5465100  
H    -2.1796290   -2.1668810    2.2199680  
C    -5.2807220   -1.6236330    2.5604500  
C    -4.7840700   -1.1686130    1.3704980  
C    -5.9404770   -1.2564010    0.4483510  
C    -7.0475060   -1.7814240    1.2999570  
N    -6.6467730   -1.9950370    2.5246730  
C    -8.3620020   -2.0216990    0.7696710  
C    -8.5683100   -1.7866000   -0.5493510  
O    -9.7424460   -1.9700470   -1.1741200  
C    -7.4648810   -1.2964350   -1.4420120  
O    -7.7208060   -1.1146150   -2.6303960  
C    -6.1218080   -1.0489580   -0.8689980  
H    -9.1475580   -2.3917020    1.4191570  
H    -9.5828180   -1.7275020   -2.1123720  
H    -5.3519560   -0.7114850   -1.5556370  
H    -4.7456180   -1.6977950    3.4997660  
