60


C    -2.8194080   -1.0211610    0.1486530  
C    -3.5163080    0.1310720   -0.2605990  
C    -4.8962340   -0.1517640   -0.1935340  
C    -5.0252600   -1.5029990    0.2622240  
N    -3.7654300   -1.9923000    0.4586080  
C    -6.2682730   -2.1205430    0.4391840  
C    -7.3970410   -1.3698190    0.1514820  
O    -8.6296110   -1.9157220    0.3021480  
C    -7.2884870   -0.0176740   -0.3071540  
O    -8.5105650    0.5751670   -0.5425560  
C    -6.0678650    0.5914130   -0.4809060  
H    -3.0721370    1.0464070   -0.6186940  
H    -3.4840120   -2.9341140    0.7064710  
H    -6.3744790   -3.1442830    0.7810410  
H    -9.2837490   -1.2424980    0.0436030  
H    -8.3795950    1.4740500   -0.8794460  
H    -6.0042460    1.6196940   -0.8298790  
C     0.8116000    1.6038410   -0.0078180  
C    -0.4765140    1.1094710    0.1252020  
C    -0.4144000   -0.3114410    0.1571410  
C     1.0131930   -0.6620770    0.0647130  
N     1.6971770    0.5240300   -0.0402070  
C     1.5430340   -1.9312820    0.0692980  
C     0.5947490   -3.0253980    0.2596520  
O     0.9194650   -4.1940740    0.3882150  
C    -0.9365530   -2.6893060    0.3847700  
O    -1.6820990   -3.6305000    0.6284440  
C    -1.4120530   -1.2891410    0.2288410  
H    -1.3423260    1.7392370    0.2241630  
H     2.6917690    0.6198370   -0.1888170  
C    -1.4395030    5.3887180    0.0422540  
C    -0.4428020    6.2949160   -0.0838950  
C     0.7800880    5.5083640   -0.1611390  
C     0.3158460    4.0921740   -0.0612500  
N    -0.9797780    4.0353990    0.0549830  
C     1.2629740    2.9699550   -0.0991780  
C     2.5881600    3.3237350   -0.2336420  
O     3.6009190    2.4281080   -0.2868610  
C     3.0625920    4.7235760   -0.3356240  
O     4.2832290    4.9052520   -0.4524460  
C     2.0863770    5.8186470   -0.2932290  
H    -0.5163600    7.3728450   -0.1215750  
H     4.4107420    2.9830200   -0.3965300  
H     2.4696610    6.8316640   -0.3720090  
H    -2.5036980    5.5693580    0.1311960  
C     5.0897840   -0.7346710    2.4055760  
C     6.0559200   -1.3652640    1.6900540  
C     5.4047100   -2.0468010    0.5899370  
C     3.9591480   -1.7515730    0.7230430  
N     3.8379030   -0.9206940    1.8261460  
C     2.9741630   -2.2329990   -0.0919580  
C     3.4160210   -3.0814940   -1.2251020  
O     2.6523150   -3.4697670   -2.0899520  
C     4.9425330   -3.4389780   -1.3551760  
O     5.2910490   -4.1936830   -2.2499120  
C     5.8791260   -2.8456640   -0.4041550  
H     7.1155550   -1.3632900    1.9004260  
H     6.9321140   -3.0873190   -0.5114720  
H     5.1805970   -0.1348600    3.3017040  
H     2.9575430   -0.7080250    2.2704790  
