62


C    -2.6538840   -1.1693020    2.7220240  
C    -2.6795900   -0.8097520    1.3950260  
C    -3.3592420   -1.8513070    0.6703850  
C    -3.7268500   -2.8273560    1.6298710  
N    -3.2781460   -2.3891600    2.8620840  
C    -4.4097130   -4.0009030    1.2845890  
C    -4.7230040   -4.1877750   -0.0520390  
O    -5.3905720   -5.3102070   -0.4430570  
C    -4.3546230   -3.2193080   -1.0266940  
O    -4.7318100   -3.5552880   -2.3112300  
C    -3.6799040   -2.0632980   -0.6853090  
H    -3.4049920   -2.8769400    3.7349480  
H    -4.6974980   -4.7513630    2.0136620  
H    -5.5257480   -5.2453880   -1.4043990  
H    -4.5099770   -2.8311610   -2.9154210  
H    -3.4067680   -1.3340170   -1.4438300  
H    -2.2436560   -0.6421420    3.5709450  
C    -0.7738840    0.6935170    0.9360530  
C    -0.5368170    1.9362390    0.3571170  
C    -1.8303790    2.3981830   -0.1262420  
C    -2.7711700    1.3873020    0.1859950  
N    -2.0968800    0.3573020    0.8499400  
C    -4.1289530    1.4698740   -0.1383290  
C    -4.5518070    2.5993490   -0.8224550  
O    -5.8639350    2.7381870   -1.1674010  
C    -3.6246680    3.6155390   -1.1657320  
O    -4.1866850    4.6777840   -1.8474990  
C    -2.2862200    3.5298020   -0.8295090  
H    -4.8390230    0.6946650    0.1251770  
H    -5.9536770    3.6002880   -1.6095340  
H    -3.5205830    5.3710700   -1.9670660  
H    -1.6085270    4.3392990   -1.0755820  
H    -0.0825290    0.0320110    1.4359980  
C     3.5988880    0.2588420   -0.0394160  
C     2.2267070    0.3857250   -0.0449820  
C     1.9514750    1.7832400    0.1771470  
C     3.2924360    2.3981990    0.2836120  
N     4.2489700    1.5216090    0.1676340  
C     3.4727550    3.8161320    0.4812690  
C     2.3616680    4.5805610    0.5440750  
O     2.3719360    5.9193800    0.6981750  
C     0.9803770    3.9946380    0.4370130  
O     0.0460640    4.7964470    0.5034460  
C     0.7915700    2.5187720    0.2892160  
H     1.5190340   -0.4070770   -0.2167280  
H     4.4705040    4.2339170    0.5573100  
H     1.4244230    6.1776310    0.7189290  
C     2.3268160   -3.9299340   -0.4208890  
C     3.5047500   -4.5761240   -0.5633290  
C     4.5169440   -3.5295710   -0.5109810  
C     3.7388360   -2.2583430   -0.3264210  
N     2.4631610   -2.5131790   -0.2727700  
C     4.3874440   -0.9445710   -0.2201430  
C     5.7663550   -0.9672410   -0.3032280  
O     6.5587130    0.1067980   -0.2444480  
C     6.5499140   -2.2346490   -0.4860680  
O     7.7782320   -2.1414810   -0.5507840  
C     5.8586760   -3.5290020   -0.5854810  
H     3.6816240   -5.6352260   -0.6887170  
H     7.4716250   -0.2531340   -0.3369780  
H     6.4725360   -4.4153050   -0.7147070  
H     1.3285380   -4.3509710   -0.4067200  
