62


C    -5.2709270   -2.6830200    3.4695380  
C    -4.3749910   -1.8856570    2.8056460  
C    -4.6265540   -2.0431200    1.3999300  
C    -5.7061060   -2.9568510    1.2752010  
N    -6.0724830   -3.3338830    2.5510770  
C    -6.2457950   -3.3329130    0.0398510  
C    -5.6798050   -2.7759130   -1.0949910  
O    -6.1597380   -3.1130030   -2.3272610  
C    -4.5932940   -1.8681980   -0.9980200  
O    -4.1282190   -1.4448710   -2.2295080  
C    -4.0510120   -1.4828050    0.2277310  
H    -3.6347480   -1.2485630    3.2683190  
H    -6.8235270   -3.9668500    2.7768300  
H    -7.0743310   -4.0268500   -0.0578560  
H    -5.6413740   -2.6152640   -2.9829880  
H    -3.4148600   -0.7994660   -2.1100290  
H    -5.4091310   -2.8428280    4.5295150  
C    -1.7486760   -0.7537770    1.0068220  
C    -2.9040910   -0.5581160    0.3051860  
C    -2.7812660    0.7676610   -0.2999640  
C    -1.4520980    1.2969700    0.0954610  
N    -0.8945980    0.3358090    0.9028700  
C    -0.9195970    2.5143170   -0.2688440  
C    -1.8298080    3.3815320   -1.0171400  
O    -1.5974510    4.5659000   -1.2654620  
C    -3.2097420    2.8199570   -1.5232720  
O    -3.8834920    3.5241260   -2.2565210  
C    -3.6305370    1.4950280   -1.0771530  
H    -4.6085470    1.1398250   -1.3843970  
H    -1.4604780   -1.6119940    1.5989910  
H     0.0572450    0.3716720    1.2385180  
C     3.0373760    0.3770950   -0.5813320  
C     1.7122820    0.7523650   -0.6961510  
C     1.5568420    2.0329420   -0.0661070  
C     2.8408440    2.3998370    0.4184210  
N     3.7089450    1.3657510    0.1269690  
C     3.1026790    3.6230760    1.0410480  
C     2.0402720    4.5055430    1.1526840  
O     2.2219060    5.7250950    1.7193600  
C     0.7373440    4.1666690    0.6887520  
O    -0.1930660    5.1483380    0.9135670  
C     0.4528050    2.9233390    0.1148930  
H     0.9457510    0.1625140   -1.1782640  
H     4.7137480    1.4264560    0.1970490  
H     4.0859800    3.9059590    1.4019680  
H     1.3576690    6.1768130    1.6564400  
H    -0.7688500    5.1933460    0.1122190  
C     3.4514430   -1.4580490   -2.2517760  
C     3.7230080   -0.8006720   -1.0843510  
C     4.8155620   -1.5339250   -0.4454910  
C     5.1470620   -2.6632830   -1.3509490  
N     4.2657760   -2.5709990   -2.4103160  
C     6.1274030   -3.5725490   -1.1200580  
C     6.9105140   -3.4550910    0.1071030  
O     7.8165890   -4.2207200    0.3962900  
C     6.5545620   -2.2888390    1.0988810  
O     7.1814350   -2.1819850    2.1402660  
C     5.4745590   -1.3654430    0.7307560  
H     6.3546560   -4.3900550   -1.7974000  
H     5.2319240   -0.5772690    1.4364600  
H     2.7220950   -1.2070350   -3.0102260  
H     4.2880470   -3.1588750   -3.2290170  
