62


C    -5.1047250    1.2379580    1.8475540  
C    -6.3211710    0.6330740    1.7186330  
C    -6.1439050   -0.5360740    0.8965390  
C    -4.7761460   -0.6010690    0.5400360  
N    -4.1575390    0.4961940    1.1356510  
C    -4.2358700   -1.6142230   -0.2563260  
C    -5.1079960   -2.5940030   -0.7073320  
O    -4.6416680   -3.6105250   -1.4866430  
C    -6.4862960   -2.5513170   -0.3644160  
O    -7.2203310   -3.5969760   -0.8883530  
C    -7.0088070   -1.5430930    0.4246230  
H    -7.2468160    0.9789420    2.1580330  
H    -3.1878100   -1.6523210   -0.5317290  
H    -5.4035790   -4.1691450   -1.7192120  
H    -8.1569640   -3.4789160   -0.6715750  
H    -8.0676400   -1.5315970    0.6750040  
H    -4.7995170    2.1326450    2.3702870  
C    -1.8381250    0.3478810    1.9209700  
C    -0.6345310    0.8759220    1.5914990  
C    -0.8284630    1.7329050    0.4364150  
C    -2.2692260    1.6733680    0.1098470  
N    -2.8292940    0.8002910    1.0405610  
C    -2.8895530    2.3683580   -0.8747650  
C    -2.0713060    3.2508850   -1.6961120  
O    -2.5266510    3.9635280   -2.5765930  
C    -0.5219850    3.2764330   -1.4375960  
O     0.1877960    3.8726910   -2.2261690  
C     0.0351900    2.5202620   -0.2799590  
H     0.3027590    0.6889410    2.0926310  
H    -3.9567920    2.3133770   -1.0594100  
H    -2.1176570   -0.3297730    2.7160980  
C     3.4290970   -0.4346440    0.0796710  
C     2.1736570    0.1314110   -0.0704590  
C     2.3354240    1.5380310    0.0611660  
C     3.8050990    1.7305280    0.2898850  
N     4.4245450    0.5829940    0.2949300  
C     4.3991690    3.0226210    0.4507330  
C     3.5646200    4.0882520    0.3834790  
O     3.9537800    5.3540110    0.5185720  
C     2.0628500    3.9434740    0.1779770  
O     1.4183120    4.9913430    0.2459440  
C     1.4773710    2.6141740   -0.0189780  
H     1.2524230   -0.3725210   -0.3050150  
H     5.4658600    3.1292590    0.6122730  
H     3.1203750    5.8806810    0.4511490  
C     1.2417810   -4.3941620   -0.1100070  
C     1.5302600   -3.0522950   -0.0076880  
C     2.9558010   -2.9133490   -0.0397180  
C     3.4803190   -4.2233190   -0.1524990  
N     2.4170400   -5.1004060   -0.2020440  
C     4.8525900   -4.5098030   -0.1766210  
C     5.7290100   -3.4466720   -0.0707230  
O     7.0724890   -3.6623180   -0.0758700  
C     5.2564510   -2.1101210    0.0435380  
O     6.2501510   -1.2017860    0.1346460  
C     3.8658180   -1.8017610    0.0371320  
H     0.7895300   -2.2781790    0.1121230  
H     2.4940230   -6.1022560   -0.2842390  
H     5.2396940   -5.5202050   -0.2638090  
H     7.4915980   -2.7855240    0.0047460  
H     5.8206760   -0.2941680    0.2401350  
H     0.2871310   -4.9002910   -0.1244480  
