62


C     3.7969480    0.7517590   -0.1727480  
C     4.0101550   -0.2859860   -1.0639570  
C     5.3882720   -0.6414750   -0.9920080  
C     5.9906390    0.2137880   -0.0278250  
N     5.0165830    1.0817820    0.4258750  
C     7.3422730    0.1231480    0.3217280  
C     8.1042620   -0.8381490   -0.3241130  
O     9.4241480   -0.9704580   -0.0236200  
C     7.5233660   -1.6906990   -1.3074600  
O     8.4190630   -2.5831110   -1.8583730  
C     6.1894160   -1.6023020   -1.6475990  
H     3.2630530   -0.7025700   -1.7255630  
H     5.0810800    1.5899410    1.2966170  
H     7.8067280    0.7682340    1.0601860  
H     9.7802760   -1.6851580   -0.5799240  
H     7.9707250   -3.1322230   -2.5186340  
H     5.7645580   -2.2651310   -2.3982510  
C     2.5987770    1.4805700    0.1325510  
C     1.2818080    1.1311590   -0.0276420  
C     0.4608660    2.2246980    0.4127850  
C     1.3990600    3.2835430    0.8393620  
N     2.6800360    2.7547600    0.7324030  
C     1.0455110    4.5333030    1.2341720  
C    -0.3680680    4.8583360    1.2581960  
O    -0.8040580    5.9602510    1.5591500  
C    -1.4011690    3.7307610    0.8763610  
O    -2.5865970    4.0196610    0.9402360  
C    -0.9113060    2.3939750    0.4656790  
H     0.9310920    0.1799740   -0.3966560  
H     1.7616490    5.2944810    1.5280110  
H     3.4721730    3.3595780    0.5577540  
C    -1.6344250   -0.0024160    0.5432670  
C    -1.8478000    1.3104560    0.1762830  
C    -3.1186680    1.3269800   -0.5339220  
C    -3.5924580   -0.0048340   -0.5824100  
N    -2.6600590   -0.8137560    0.0917750  
C    -4.8134200   -0.3538700   -1.1654960  
C    -5.5601110    0.6624580   -1.7452370  
O    -6.7605740    0.3747800   -2.3266530  
C    -5.0896180    1.9965580   -1.7309110  
O    -5.9355340    2.9010600   -2.3430670  
C    -3.8871890    2.3366320   -1.1372730  
H    -5.1868270   -1.3682310   -1.1918160  
H    -7.1348340    1.2177160   -2.6367870  
H    -5.6289910    3.8012700   -2.1566450  
H    -3.5715320    3.3727110   -1.0923480  
H    -0.8492030   -0.4223600    1.1499590  
C    -2.0424330   -2.9741510    3.7994530  
C    -2.3438200   -4.2391120    3.4289100  
C    -2.6684040   -4.1548380    2.0078860  
C    -2.5049510   -2.7045670    1.6858280  
N    -2.1353190   -2.0244360    2.7299840  
C    -2.7547710   -2.1924120    0.3423230  
C    -3.0803510   -3.1089220   -0.6186960  
O    -3.2757250   -2.7987030   -1.9139460  
C    -3.2461900   -4.5566230   -0.3105430  
O    -3.5343380   -5.3110550   -1.2437240  
C    -3.0287540   -5.0456060    1.0654560  
H    -2.3546700   -5.1325080    4.0376400  
H    -3.5020150   -3.6534610   -2.3451040  
H    -3.1590670   -6.1094450    1.2392090  
H    -1.7486590   -2.6136750    4.7776710  
