62


C     0.6861940    1.2325320   -0.4753270  
C     1.5966120    0.2770670   -0.0987390  
C     2.8495480    0.6399290   -0.7020830  
C     2.6339360    1.8434900   -1.4234430  
N     1.3032770    2.1890000   -1.2675190  
C     3.6531210    2.5111010   -2.1097270  
C     4.9173250    1.9451750   -2.0613390  
O     5.9499230    2.5420060   -2.7130320  
C     5.1585590    0.7395020   -1.3453650  
O     6.4614100    0.3124210   -1.4264360  
C     4.1500990    0.0629950   -0.6605620  
H     1.4070390   -0.5529480    0.5663710  
H     0.8246690    2.9259150   -1.7632200  
H     3.4948870    3.4343710   -2.6567140  
H     6.7446780    2.0053260   -2.5423800  
H     6.6105280   -0.4040510   -0.7837150  
C    -1.5791350    0.2635600   -0.3398720  
C    -2.8445050    0.6008350    0.0603560  
C    -2.7803640    1.9900490    0.5101230  
C    -1.3704260    2.4127840    0.3413100  
N    -0.6860890    1.3128740   -0.1918740  
C    -0.8857120    3.6323130    0.6779320  
C    -1.8152230    4.6213980    1.2290680  
O    -1.4697960    5.7474990    1.5453140  
C    -3.3138570    4.1982760    1.4182640  
O    -4.1074610    5.0036820    1.8747570  
C    -3.7043690    2.8342990    1.0383410  
H     0.1583270    3.9084030    0.5792190  
H    -4.7329380    2.5443080    1.2253950  
H    -1.2277860   -0.6665710   -0.7654380  
C    -3.9956220   -0.2741360    0.0115330  
C    -4.0555780   -1.6405590    0.1019170  
C    -5.4290580   -2.0419630   -0.0527320  
C    -6.2011120   -0.7904350   -0.2480250  
N    -5.2888680    0.2504710   -0.1444940  
C    -7.5347090   -0.7404230   -0.4813160  
C    -8.2800730   -1.9989550   -0.5161310  
O    -9.4830070   -2.0499940   -0.7188310  
C    -7.4892320   -3.3363060   -0.2718130  
O    -8.1014350   -4.3940680   -0.2891940  
C    -6.0472230   -3.2559650   -0.0461460  
H    -3.2232090   -2.2958760    0.3161520  
H    -8.0831440    0.1846580   -0.6311370  
H    -5.5084920   -4.1866040    0.1042520  
H    -5.4640880    1.1703210   -0.5223770  
C     7.0860850   -1.0710140    2.5743460  
C     6.3360230   -0.3765510    1.6592040  
C     5.4412840   -1.3217080    1.0416990  
C     5.7010270   -2.5843840    1.6389760  
N     6.7071540   -2.3984920    2.5646530  
C     4.9989440   -3.7459200    1.2971200  
C     4.0146000   -3.6288620    0.3295180  
O     3.3044970   -4.7287630   -0.0520080  
C     3.7395600   -2.3788720   -0.2852460  
O     2.7507340   -2.4433590   -1.2446870  
C     4.4312430   -1.2144150    0.0458000  
H     6.3913830    0.6866240    1.4721260  
H     7.0993080   -3.1204910    3.1488610  
H     5.1962350   -4.7119550    1.7501590  
H     2.7027840   -4.4493990   -0.7637200  
H     2.6539580   -1.5679700   -1.6560330  
H     7.8608530   -0.7254400    3.2439170  
