62


C    -2.7496080   -0.5610050    2.7624850  
C    -2.6673090   -0.2072250    1.4321420  
C    -3.5661010   -1.0909200    0.7194330  
C    -4.1546550   -1.9501160    1.6818780  
N    -3.6350910   -1.6042760    2.9142390  
C    -5.0757960   -2.9500290    1.3458250  
C    -5.4092900   -3.0889230    0.0082550  
O    -6.3085840   -4.0399390   -0.3748300  
C    -4.8201330   -2.2477660   -0.9734950  
O    -5.2405920   -2.5172010   -2.2620600  
C    -3.9063700   -1.2663500   -0.6380510  
H    -3.8836350   -2.0328220    3.7920180  
H    -5.5287010   -3.6050220    2.0830340  
H    -6.4166730   -3.9610000   -1.3384960  
H    -4.9162730   -1.8276310   -2.8601340  
H    -3.4638740   -0.6441180   -1.4119160  
H    -2.2564500   -0.1231130    3.6189120  
C    -0.4867000    1.0415980    1.2066360  
C    -1.7943290    0.8310390    0.8861850  
C    -2.1482080    1.8804400   -0.0682250  
C    -0.9293460    2.6989490   -0.2761140  
N     0.0560260    2.1515180    0.5376680  
C    -0.8518660    3.7561760   -1.1231770  
C    -2.0459040    4.1394010   -1.8681970  
O    -2.0689910    5.0697140   -2.6610690  
C    -3.3610540    3.3109530   -1.6335060  
O    -4.3734120    3.6184700   -2.2439560  
C    -3.3142240    2.1848360   -0.6958040  
H     0.0502140    4.3415540   -1.2589670  
H    -4.2256880    1.6177370   -0.5389960  
H     0.1396360    0.4824730    1.8896020  
C     3.7302920    0.0439680   -0.5066870  
C     4.6084960    1.0326570   -0.1395770  
C     3.8217390    2.1327470    0.3395800  
C     2.4631040    1.7405040    0.2463000  
N     2.4265790    0.4596550   -0.2645620  
C     1.4033550    2.5783150    0.6396790  
C     1.7345460    3.8374000    1.1399280  
O     0.7519690    4.6820190    1.5446250  
C     3.0944170    4.2415020    1.2247470  
O     3.2497980    5.5127260    1.7341300  
C     4.1314190    3.4129320    0.8409900  
H     5.6865840    0.9630340   -0.1759540  
H     1.5983010   -0.0272820   -0.5744440  
H     1.1783040    5.5077490    1.8352490  
H     4.1903560    5.7412710    1.7726820  
H     5.1630660    3.7472440    0.9219770  
C     4.7517000   -1.4400540   -2.2192680  
C     4.8884280   -2.7632120   -2.4743440  
C     4.1754500   -3.4824440   -1.4387510  
C     3.6080530   -2.4513620   -0.5360180  
N     3.9784210   -1.2139980   -1.0695650  
C     2.8916110   -2.7215860    0.5830110  
C     2.6445500   -4.1217160    0.9269090  
O     2.0204900   -4.4586360    1.9206680  
C     3.2135000   -5.2316950   -0.0298930  
O     3.0039530   -6.4048300    0.2335840  
C     3.9840740   -4.8066960   -1.2026090  
H     5.4236190   -3.2028200   -3.3035110  
H     2.5030350   -1.9545710    1.2439640  
H     4.3879890   -5.5814440   -1.8472310  
H     5.1285480   -0.5840420   -2.7626030  
