62


C    -3.3324300    1.2020410   -1.7217760  
C    -3.0792740    0.2102860   -0.7967850  
C    -4.3231410    0.0067120   -0.0780750  
C    -5.2774100    0.9037580   -0.6229660  
N    -4.6419880    1.6205260   -1.6174100  
C    -6.5933800    0.9893410   -0.1515770  
C    -6.9537400    0.1538820    0.8937450  
O    -8.2235800    0.1923990    1.3879660  
C    -6.0086350   -0.7431360    1.4621010  
O    -6.5164700   -1.4991480    2.4997290  
C    -4.7099610   -0.8240620    0.9965680  
H    -5.0811180    2.3089310   -2.2085380  
H    -7.3249720    1.6751760   -0.5664670  
H    -8.2716280   -0.4556290    2.1120790  
H    -5.8259260   -2.0853250    2.8434100  
H    -4.0020240   -1.5115600    1.4526200  
H    -2.6749130    1.6190430   -2.4711920  
C     1.1674150    1.6486820   -0.2004100  
C    -0.2149000    1.5668410   -0.3862100  
C    -0.5633810    0.1885730   -0.4478430  
C     0.6437510   -0.5498220   -0.2902030  
N     1.6650370    0.3558530   -0.1577500  
C     0.6989450   -1.9600790   -0.2944120  
C    -0.5290960   -2.6080420   -0.4429730  
O    -0.5799660   -3.9636760   -0.4112770  
C    -1.7435370   -1.8855450   -0.5938260  
O    -2.8470940   -2.7018380   -0.7416580  
C    -1.7999070   -0.4965560   -0.6073080  
H    -0.9155850    2.3886600   -0.3631070  
H     2.6368080    0.1682710    0.0559260  
H    -1.4888970   -4.2238160   -0.6442380  
H    -3.6132930   -2.1550470   -0.9848920  
C     0.6283480    5.8831680   -1.2453550  
C     1.7751090    6.3883350   -0.7194790  
C     2.5175210    5.2814910   -0.1572280  
C     1.6942450    4.0820900   -0.3844540  
N     0.5392030    4.5149300   -1.0127750  
C     2.0363350    2.7950140   -0.0326430  
C     3.3979140    2.6451890    0.5301160  
O     3.9218670    1.5576690    0.7399360  
C     4.2434440    3.9303570    0.8802040  
O     5.3041920    3.7652520    1.4673020  
C     3.7285390    5.2221350    0.4737990  
H     2.0814670    7.4243510   -0.7206510  
H     4.3283950    6.1025520    0.6799810  
H    -0.1716990    6.3921340   -1.7666410  
H    -0.0718100    3.8844560   -1.5117930  
C     3.9996530   -1.9900390    2.6898900  
C     2.8324950   -1.7708950    2.0321770  
C     2.8616050   -2.5666560    0.8205890  
C     4.1552400   -3.2933170    0.8406650  
N     4.7951490   -2.8972220    1.9980400  
C     4.5671450   -4.1792860   -0.1034890  
C     3.6839140   -4.4367430   -1.2288300  
O     3.9311320   -5.2507090   -2.1068620  
C     2.3460360   -3.6138010   -1.3267830  
O     1.6853400   -3.7104070   -2.3447760  
C     1.9648240   -2.7138530   -0.2041120  
H     2.0322620   -1.1209940    2.3510100  
H     5.5095570   -4.7155980   -0.0499250  
H     4.3504070   -1.5695370    3.6228450  
H     5.7156580   -3.1973910    2.2772190  
