60


C    -3.2346470    4.4947680   -0.3136980  
C    -2.5740530    3.2824670   -0.1127990  
C    -1.1558780    3.6029850   -0.0513060  
C    -1.0429850    5.0060180   -0.2061250  
N    -2.3290040    5.5077190   -0.3712980  
C     0.1693890    5.6971860   -0.1560420  
C     1.3107800    4.9351360    0.0579440  
O     2.5263350    5.5322390    0.1472430  
C     1.2290850    3.5229510    0.1988430  
O     2.4254280    2.8804250    0.4871480  
C     0.0166220    2.8551460    0.1564850  
H    -2.5557890    6.4789250   -0.5266200  
H     0.2417280    6.7750610   -0.2579030  
H     3.1482080    4.8174890    0.3883770  
H     2.8815480    2.5551180   -0.3235660  
H    -0.0312300    1.7804600    0.2875670  
H    -4.2907970    4.6871880   -0.4363940  
C    -3.2363490    2.0210300    0.0129200  
C    -4.5900250    1.7690410    0.1223020  
C    -4.7329860    0.3565750    0.1826410  
C    -3.3178490   -0.1632750    0.0923540  
N    -2.4546980    0.8072870    0.0150780  
C    -3.0360500   -1.5880090    0.0732070  
C    -4.1197630   -2.4087410    0.1957440  
O    -4.0365910   -3.7358600    0.2396800  
C    -5.5498920   -1.9058960    0.3269370  
O    -6.4136510   -2.7838230    0.4404400  
C    -5.8001230   -0.4860120    0.3023140  
H    -5.3922340    2.4923670    0.1686650  
H    -4.9760550   -4.0378320    0.3138780  
H    -6.8288560   -0.1482180    0.3739680  
C     0.8689340   -1.2729260    2.2299150  
C    -0.4115750   -1.1264860    1.8247180  
C    -0.5973720   -1.9154180    0.6177650  
C     0.7069810   -2.5429650    0.3265250  
N     1.5538680   -2.1676390    1.3781450  
C     0.9911320   -3.3359300   -0.7327670  
C    -0.0922350   -3.6286390   -1.6633560  
O     0.0388230   -4.3553200   -2.6346890  
C    -1.4981360   -2.9835670   -1.3875440  
O    -2.3824570   -3.1643230   -2.2024500  
C    -1.6906140   -2.1435870   -0.1677030  
H    -1.1686110   -0.5244530    2.3029720  
H     1.9645570   -3.7809520   -0.9091720  
H     1.3973020   -0.8479480    3.0722060  
C     3.6528720   -3.4116220    1.6162750  
C     4.9215740   -3.3132630    1.1557520  
C     5.0456240   -2.0387660    0.4700160  
C     3.7213130   -1.3842990    0.5668360  
N     2.9208670   -2.2495680    1.3073120  
C     3.3975290   -0.1782050    0.0416140  
C     4.4355530    0.5458570   -0.6684450  
O     4.2684400    1.6651210   -1.1498820  
C     5.8513880   -0.1216240   -0.8111470  
O     6.7208600    0.4684930   -1.4283270  
C     6.0699750   -1.4309130   -0.1813860  
H     5.7055210   -4.0460920    1.2808870  
H     2.4239600    0.2808540    0.1652600  
H     7.0561040   -1.8743510   -0.2771640  
H     3.1606230   -4.2019550    2.1663620  
