60


C    -6.5483620   -2.7141080    2.8585400  
C    -5.4417720   -2.0719120    2.3671510  
C    -5.7563120   -1.6691650    1.0251290  
C    -7.0852520   -2.0959420    0.7572150  
N    -7.5369590   -2.7345210    1.8926380  
C    -7.7395350   -1.8466410   -0.4545660  
C    -7.0367340   -1.1504890   -1.4268120  
O    -7.6199990   -0.8736730   -2.6237170  
C    -5.6980490   -0.7313540   -1.2049610  
O    -5.0926900   -0.1261360   -2.2893430  
C    -5.0567330   -0.9895420    0.0047480  
H    -4.5216460   -1.8935590    2.9051500  
H    -8.4589920   -3.1244400    2.0111440  
H    -8.7593130   -2.1613960   -0.6496830  
H    -6.9634110   -0.3740850   -3.1431830  
H    -4.5714220    0.6449620   -1.9962970  
H    -6.7195590   -3.1598320    3.8280530  
C    -2.6505960   -1.4705950    0.4850160  
C    -1.4576960   -0.8236050    0.5163760  
C    -1.7172210    0.5724290    0.2244180  
C    -3.1838580    0.6801660    0.0400840  
N    -3.7015410   -0.5946400    0.1956840  
C    -3.8560580    1.8437180   -0.2003800  
C    -3.0846320    3.0769120   -0.2941990  
O    -3.5921010    4.1774140   -0.4391590  
C    -1.5215640    2.9736360   -0.2204100  
O    -0.8562430    3.9478710   -0.5153070  
C    -0.8976830    1.6661800    0.1370140  
H    -0.4998460   -1.2638120    0.7498640  
H    -4.9404380    1.9097320   -0.2089330  
H    -2.8767110   -2.5156280    0.6473000  
C     2.2548450   -0.6730750   -1.8820340  
C     3.3641700   -0.1865910   -1.2478180  
C     2.8790670    0.7987970   -0.2804640  
C     1.4025360    0.8211360   -0.4068890  
N     1.0953030   -0.0847690   -1.4027080  
C     0.5613260    1.6262440    0.3095460  
C     1.1887140    2.5121120    1.3165810  
O     0.5371800    3.1699180    2.1071520  
C     2.7542830    2.5600300    1.4043920  
O     3.2768880    3.3511130    2.1717350  
C     3.5275810    1.6396020    0.5677340  
H     4.6090780    1.6821000    0.6425170  
H     2.2004060   -1.4280220   -2.6551640  
H     0.1576770   -0.3196100   -1.6900340  
C     5.3188510   -0.7466000   -2.7581320  
C     4.7413170   -0.5591500   -1.5381380  
C     5.8104760   -0.9104010   -0.5792730  
C     6.9702470   -1.2799040   -1.4455510  
N     6.6702580   -1.1858290   -2.7111430  
C     8.2303810   -1.6913480   -0.8850660  
C     8.3318870   -1.7647540    0.4638920  
O     9.4426430   -2.1393630    1.1181470  
C     7.1720550   -1.4319080    1.3608870  
O     7.3348220   -1.5346620    2.5745070  
C     5.8903080   -0.9966320    0.7616410  
H     9.0576750   -1.9408480   -1.5401410  
H     9.2134750   -2.0985280    2.0723690  
H     5.0817070   -0.7616720    1.4465760  
H     4.8619700   -0.5803710   -3.7269840  
