62


C    -1.3660580   -1.3154840    2.3942060  
C    -0.5577840   -0.3255670    1.8935180  
C    -1.2644220    0.2990590    0.8109610  
C    -2.5213910   -0.3564950    0.7182210  
N    -2.5498020   -1.3384730    1.6880510  
C    -3.5275690   -0.0156980   -0.2047220  
C    -3.2304750    1.0682860   -1.0369960  
O    -4.1488480    1.5092930   -1.9308950  
C    -1.9929060    1.7571440   -0.9580380  
O    -1.8818910    2.7845860   -1.8717550  
C    -0.9716940    1.3810350   -0.0761560  
H     0.4302240   -0.0801860    2.2529530  
H    -3.3171230   -1.9774960    1.8298340  
H    -3.7322710    2.2748830   -2.3728390  
H    -1.5255200    3.5606900   -1.3871110  
H    -1.1934440   -2.0111140    3.2032750  
C     3.2830680   -0.0700570   -0.0813880  
C     1.9015910   -0.0150820   -0.1553840  
C     1.5491450    1.3588490   -0.0284090  
C     2.8644120    2.0618540    0.1194800  
N     3.8677790    1.2336410    0.0955460  
C     2.9530330    3.4914660    0.2567380  
C     1.7956930    4.1843300    0.1911970  
O     1.7160590    5.5195020    0.2678350  
C     0.4575150    3.5056670   -0.0137540  
O    -0.5054100    4.2865490   -0.1337170  
C     0.3465970    2.0434710   -0.0497440  
H     1.2194070   -0.8402200   -0.2931170  
H     3.9144990    3.9762810    0.3813270  
H     0.7610280    5.7279420    0.1577220  
C     3.8258070   -2.5328380   -0.3240870  
C     4.1468730   -1.1968390   -0.1640900  
C     5.6258490   -1.1980980   -0.0957860  
C     5.9930570   -2.6285620   -0.2344520  
N     4.9236460   -3.3894940   -0.3664130  
C     7.3542790   -3.0697670   -0.2195130  
C     8.3192930   -2.1246800   -0.0722870  
O     9.6323840   -2.3888230   -0.0402240  
C     7.9805140   -0.6652460    0.0709050  
O     8.9141060    0.1247890    0.2007950  
C     6.5630550   -0.2424050    0.0509090  
H     7.5885260   -4.1233260   -0.3236570  
H    10.0710810   -1.5161210    0.0745250  
H     6.3280000    0.8104920    0.1542850  
H     2.8314470   -2.9545800   -0.4151000  
C    -6.6468440   -0.4521310    2.8898180  
C    -7.5181400   -1.2329690    2.1761890  
C    -6.9317180   -1.4484670    0.8828840  
C    -5.6864340   -0.7691390    0.8739500  
N    -5.5324300   -0.1817060    2.1153770  
C    -4.8260670   -0.7285860   -0.2452570  
C    -5.2647690   -1.4141270   -1.3797090  
O    -4.4805730   -1.4585330   -2.4911490  
C    -6.5076780   -2.1012920   -1.3855770  
O    -6.7818970   -2.7349070   -2.5847180  
C    -7.3371180   -2.1308630   -0.2812150  
H    -8.4682000   -1.6105920    2.5287860  
H    -4.7837580    0.4477880    2.3610260  
H    -4.9800230   -1.9377450   -3.1748580  
H    -7.6696860   -3.1201540   -2.5497180  
H    -8.2832050   -2.6676530   -0.3163110  
H    -6.7190860   -0.0669410    3.8972050  
