60


C    -4.3033200    0.1823940   -2.3728760  
C    -3.1423150   -0.2868960   -1.8040240  
C    -3.5127800   -1.1575810   -0.7178220  
C    -4.9308660   -1.1826410   -0.6935250  
N    -5.3834950   -0.3406030   -1.6925150  
C    -5.6695990   -1.9760310    0.1905620  
C    -4.9484570   -2.7887230    1.0489470  
O    -5.5938100   -3.6073350    1.9187240  
C    -3.5247990   -2.7941630    1.0513900  
O    -2.9904580   -3.6398860    1.9866690  
C    -2.7746660   -1.9573730    0.2147170  
H    -2.1434800   -0.0795240   -2.1589430  
H    -6.3497690   -0.2273450   -1.9565330  
H    -6.7544280   -1.9992870    0.2017830  
H    -4.8910460   -4.1051680    2.3807750  
H    -2.1979270   -4.0672430    1.5754640  
H    -4.4489630    0.8218590   -3.2325500  
C    -0.1067060    1.5610150    0.2394480  
C    -1.1591490    0.6742660    0.3543470  
C    -0.6412300   -0.6509550    0.2896720  
C     0.8290270   -0.5073740    0.1815310  
N     1.0846760    0.8428210    0.1403050  
C     1.7061700   -1.5535650    0.0760020  
C     1.1189960   -2.8986140    0.1860600  
O     1.7900010   -3.9144580    0.2185970  
C    -0.4382150   -3.0509030    0.3512490  
O    -0.8474220   -4.1967900    0.5502100  
C    -1.2991430   -1.8710630    0.2863960  
H    -2.1920790    0.9196110    0.5315680  
H     1.9884070    1.2988380    0.1920990  
C    -3.3215890    4.3385180   -0.8900840  
C    -2.7041850    5.5141930   -0.6209890  
C    -1.3674520    5.1973060   -0.1622570  
C    -1.2679000    3.7187940   -0.1655840  
N    -2.4827700    3.2589140   -0.5986020  
C    -0.1366510    3.0045970    0.1911180  
C     1.0719850    3.7988030    0.4694690  
O     2.1808540    3.3021320    0.6218910  
C     0.9504050    5.3601490    0.5728350  
O     1.9250620    5.9960430    0.9355040  
C    -0.3224840    5.9828430    0.2126560  
H    -3.1193910    6.5046170   -0.7356420  
H    -0.3827710    7.0661130    0.2470580  
H    -4.3177200    4.1483170   -1.2658720  
H    -2.6774170    2.2992940   -0.8673780  
C     5.0869360    0.5890320    2.1260200  
C     3.8410930    0.1376400    1.8375120  
C     4.0008170   -0.6803560    0.6406030  
C     5.4673310   -0.6103960    0.3535180  
N     6.0937420    0.1310720    1.2238010  
C     6.0625160   -1.3203560   -0.7484070  
C     5.2462820   -2.0563280   -1.5363070  
O     5.6599660   -2.7593900   -2.6029750  
C     3.7589620   -2.1125900   -1.3086640  
O     3.0854520   -2.6924170   -2.1534990  
C     3.1538200   -1.4177490   -0.1259970  
H     2.9263090    0.3243660    2.3814030  
H     7.1305120   -1.2534890   -0.9232680  
H     4.8457220   -3.1462410   -2.9932150  
H     5.3848110    1.2313250    2.9462640  
