62


C    -3.2320570    0.7856730   -1.9388800  
C    -4.5281970    1.2089240   -1.8439490  
C    -5.1269400    0.5047280   -0.7445430  
C    -4.1329270   -0.3492340   -0.2038180  
N    -2.9698910   -0.1668640   -0.9514370  
C    -4.3641380   -1.1652400    0.9092450  
C    -5.6285780   -1.1297530    1.4759150  
O    -5.9096710   -1.9120540    2.5599740  
C    -6.6397920   -0.2883240    0.9423280  
O    -7.8453770   -0.3649160    1.6159490  
C    -6.4042340    0.5238070   -0.1513490  
H    -5.0075940    1.9298850   -2.4923310  
H    -3.6081220   -1.8211290    1.3234610  
H    -6.8391670   -1.7508340    2.7962620  
H    -8.4924560    0.2112820    1.1833240  
H    -7.1909690    1.1680160   -0.5396060  
H    -2.4603500    1.0419560   -2.6509150  
C     0.8881530    1.7198180   -0.2637420  
C     1.6275500    0.5430050   -0.1603930  
C     0.7320200   -0.5497120   -0.3025750  
C    -0.5611200    0.0127600   -0.5107120  
N    -0.4431250    1.3742370   -0.4725080  
C    -1.7096180   -0.7654530   -0.7305480  
C    -1.5243190   -2.1483870   -0.7719010  
O    -2.5725170   -2.9669000   -1.0163830  
C    -0.2419400   -2.7329180   -0.5712440  
O    -0.2694830   -4.1073320   -0.6281190  
C     0.8982490   -1.9728230   -0.3014600  
H     2.6915320    0.5140930    0.0046900  
H    -1.1945470    2.0434550   -0.5689630  
H    -2.2029610   -3.8723100   -1.0236800  
H     0.4964050   -4.3877870   -1.1752030  
C     4.0032160   -1.3632740    2.8647110  
C     2.8385070   -1.3017850    2.1799630  
C     3.0175370   -2.1898210    1.0318140  
C     4.4008290   -2.7133450    1.2030650  
N     4.9784040   -2.2260330    2.2639140  
C     4.9831780   -3.6494810    0.2747320  
C     4.2079310   -4.0825610   -0.7435660  
O     4.6082440   -4.9831560   -1.6619600  
C     2.7906120   -3.6247230   -0.8981090  
O     2.1387940   -4.1739970   -1.7988550  
C     2.2176730   -2.5684290   -0.0079280  
H     1.9518470   -0.7346690    2.4192400  
H     5.9991620   -3.9998430    0.4180140  
H     3.8335410   -5.1372550   -2.2420390  
H     4.2644250   -0.8554700    3.7850960  
C     4.8905750    3.4503400    0.3630550  
C     4.6242550    4.7743870    0.3416850  
C     3.1842830    4.8708850    0.1238830  
C     2.7278000    3.4482510    0.0345790  
N     3.7286660    2.6321520    0.1746060  
C     1.3167920    3.0987730   -0.1836710  
C     0.4654410    4.1703620   -0.3027640  
O    -0.8698980    4.0385700   -0.5109750  
C     0.8969040    5.5819770   -0.2175430  
O     0.0347780    6.4605790   -0.3379010  
C     2.3217870    5.8957820    0.0054600  
H     5.3122610    5.6001630    0.4580280  
H    -1.2095350    4.9623100   -0.5448290  
H     2.5976430    6.9445540    0.0617400  
H     5.8449800    2.9575240    0.5014120  
