64


C    -4.7251140    1.0842650   -1.0874000  
C    -4.5216510   -0.2032110   -0.6292110  
C    -5.6327390   -0.4956050    0.2518170  
C    -6.4619430    0.6545880    0.2782120  
N    -5.8878480    1.5944010   -0.5542970  
C    -7.6272150    0.7362150    1.0516060  
C    -7.9622570   -0.3675940    1.8184800  
O    -9.0890610   -0.3478000    2.5912880  
C    -7.1423020   -1.5265630    1.8084500  
O    -7.6062710   -2.5458880    2.6233890  
C    -5.9934610   -1.6024150    1.0453250  
H    -6.2392040    2.5249650   -0.7168870  
H    -8.2604990    1.6173920    1.0706600  
H    -9.1418050   -1.2104490    3.0374800  
H    -7.0183210   -3.3107940    2.5390720  
H    -5.3935480   -2.5075190    1.0389630  
H    -4.1411010    1.6684180   -1.7848730  
C    -0.2641440    0.8744930   -0.7728370  
C     0.2286980   -0.3711880   -1.1691420  
C    -0.8808880   -1.2547230   -1.2912840  
C    -2.0449470   -0.5075140   -0.9566130  
N    -1.6374620    0.7646450   -0.6467780  
C    -3.3553010   -1.0402350   -0.9587810  
C    -3.4442190   -2.3878830   -1.3131400  
O    -4.6625640   -3.0041600   -1.3710810  
C    -2.2892470   -3.1536520   -1.6405150  
O    -2.5769780   -4.4694930   -1.9620610  
C    -1.0204040   -2.6149640   -1.6419650  
H     1.2503340   -0.5953590   -1.4404560  
H    -2.2212880    1.5534440   -0.4004020  
H    -4.5064060   -3.9059050   -1.7027290  
H    -1.7841260   -4.8921250   -2.3234960  
H    -0.1574260   -3.2259190   -1.8986780  
C     3.9510450    1.7634810    0.1102690  
C     3.8597130    3.1320140    0.1669930  
C     2.4966960    3.5034700   -0.0833910  
C     1.7673050    2.2456890   -0.3121390  
N     2.7028640    1.2177260   -0.2497970  
C     0.4144330    2.1320240   -0.5216820  
C    -0.3394020    3.4074340   -0.4521800  
O    -1.5632430    3.4623580   -0.4715540  
C     0.4433860    4.7700980   -0.3450170  
O    -0.2103410    5.8033360   -0.4204980  
C     1.8730760    4.7215940   -0.1373990  
H     4.6836930    3.8126960    0.3269490  
H     2.4055840    5.6585630   -0.0107220  
H     2.4120120    0.3040470    0.0817370  
C     5.0801820    0.9002230    0.3108310  
C     6.2658230    1.1247590    0.9903940  
C     7.0460580   -0.0633660    0.9016570  
C     6.2914600   -1.0029790    0.1445660  
N     5.0850360   -0.4113020   -0.1688670  
C     6.7702730   -2.2808320   -0.1653280  
C     8.0267140   -2.6223450    0.3094950  
O     8.5419000   -3.8511940    0.0390940  
C     8.7898850   -1.7013920    1.0859990  
O    10.0112130   -2.2017760    1.4849890  
C     8.3179720   -0.4411100    1.3868310  
H     6.5140320    2.0292120    1.5286230  
H     4.4720080   -0.7326400   -0.9042650  
H     6.2030210   -3.0000240   -0.7467480  
H     9.4194840   -3.8990900    0.4571940  
H    10.4860110   -1.5349750    2.0031390  
H     8.9172920    0.2480510    1.9777060  
