62


C     4.0001060   -1.1562390   -1.5206110  
C     4.5494260   -0.1857860   -0.6898090  
C     5.8599880   -0.6864170   -0.3044010  
C     6.0172820   -1.9510160   -0.9233990  
N     4.8701770   -2.1990450   -1.6610450  
C     7.1473150   -2.7578000   -0.7547210  
C     8.1537240   -2.2781910    0.0684820  
O     9.2818810   -3.0149030    0.2670990  
C     8.0151990   -1.0183860    0.7081530  
O     9.0955230   -0.6752190    1.4964570  
C     6.8942660   -0.2286810    0.5359530  
H     4.7256280   -2.9988400   -2.2584470  
H     7.2577400   -3.7247330   -1.2346060  
H     9.8599570   -2.5031940    0.8594690  
H     8.9686700    0.2183700    1.8485030  
H     6.8306320    0.7404940    1.0183400  
H     3.0632090   -1.1356360   -2.0576640  
C     0.2513720    0.8279940    0.0874160  
C     1.4293580    0.1411420   -0.1122860  
C     2.4784060    1.1184410   -0.1684510  
C     1.7881190    2.4151200    0.0310600  
N     0.5025450    2.2418190    0.1717450  
C     2.4834780    3.6734600    0.0756240  
C     3.8274410    3.6274090   -0.0459950  
O     4.6264360    4.7003000    0.0027290  
C     4.5794050    2.3236460   -0.2471880  
O     5.8038640    2.4327420   -0.3393370  
C     3.8464330    1.0407690   -0.3430480  
H     1.5709160   -0.9252930   -0.1414700  
H     1.9431170    4.6025700    0.2174160  
H     5.5355440    4.3455940   -0.1295900  
C    -1.7745790   -3.2055960   -0.3414600  
C    -0.8450850   -2.1944090   -0.3282240  
C    -1.5153410   -0.9901110    0.0741200  
C    -2.8655820   -1.3511290    0.2889300  
N    -2.9961270   -2.7009290    0.0462510  
C    -3.8638070   -0.4300630    0.6630590  
C    -3.4824820    0.8979420    0.8012680  
O    -4.3916240    1.8380200    1.1604080  
C    -2.1354670    1.3004930    0.5795070  
O    -1.9570110    2.6288230    0.7654800  
C    -1.1146340    0.3780550    0.2417620  
H     0.1904420   -2.3146860   -0.6018850  
H    -3.8706400   -3.2029060    0.0366410  
H    -3.9080810    2.6861710    1.1847100  
H    -0.9877430    2.8310660    0.5712320  
H    -1.6639140   -4.2503940   -0.5938570  
C    -5.5803650   -1.7261130    1.9288320  
C    -6.9182930   -1.9494560    1.9219430  
C    -7.4777050   -1.1784540    0.8318790  
C    -6.3360380   -0.4780240    0.1932840  
N    -5.1950310   -0.8566060    0.9005210  
C    -6.4454030    0.3404690   -0.8817080  
C    -7.7724200    0.5591180   -1.4532260  
O    -7.9684280    1.2742090   -2.4242230  
C    -8.9988800   -0.1670170   -0.7874750  
O   -10.1145370    0.0056490   -1.2539110  
C    -8.7468290   -1.0312970    0.3675020  
H    -7.4677710   -2.5731900    2.6122570  
H    -5.5994510    0.8486120   -1.3300660  
H    -9.5977280   -1.5347410    0.8165880  
H    -4.8207420   -2.1021450    2.6018830  
