62


C    -3.2465290   -1.5992720    0.1894130  
C    -1.8756220   -1.4903950    0.2719540  
C    -1.3316430   -2.7426000   -0.1572730  
C    -2.4274720   -3.5903740   -0.4665220  
N    -3.5879390   -2.8709370   -0.2346240  
C    -2.2751300   -4.9084450   -0.8953870  
C    -0.9807880   -5.3982100   -1.0209860  
O    -0.7843360   -6.6712820   -1.4639730  
C     0.1342070   -4.5902650   -0.7034630  
O     1.3413980   -5.2257290   -0.8930690  
C    -0.0073800   -3.2594010   -0.2640610  
H    -1.3452920   -0.6305740    0.6498780  
H    -4.5095520   -3.1309750   -0.5531750  
H    -3.1151040   -5.5505130   -1.1396990  
H     0.1770230   -6.8076130   -1.5324370  
H     2.0633800   -4.5701900   -0.8833220  
C     1.1511270   -2.4377330    0.0354530  
C     1.3410880   -1.0850240   -0.0935650  
C     2.6703170   -0.7556940    0.3363050  
C     3.2926590   -2.0333540    0.7409970  
N     2.3611470   -3.0466430    0.4730610  
C     4.5379020   -2.1641790    1.2501110  
C     5.3586630   -0.9604360    1.3821840  
O     6.5029980   -0.9834500    1.8033320  
C     4.7341410    0.4111250    0.9513480  
O     5.3784900    1.4290530    1.1448730  
C     3.3671050    0.4281180    0.3894580  
H     0.6275760   -0.3928190   -0.5124020  
H     4.9736800   -3.1176140    1.5330130  
H     2.3064710   -3.8352780    1.1100180  
C    -0.1890420    2.9482490    1.4974210  
C     0.6843140    1.9123080    1.4471570  
C     1.6793360    2.3010120    0.4532860  
C     1.2278400    3.6559610    0.0075220  
N     0.1402680    4.0282360    0.6225470  
C     1.9668700    4.4224820   -0.9613120  
C     3.0951310    3.8751910   -1.4674870  
O     3.8755220    4.4681330   -2.3850590  
C     3.5617760    2.4998980   -1.0683100  
O     4.5253110    2.0395060   -1.6710050  
C     2.8158120    1.7290220   -0.0224570  
H     0.6720070    1.0000610    2.0260860  
H     1.6143510    5.4026770   -1.2621840  
H     4.5879390    3.8199340   -2.5793560  
H    -1.0726750    3.0404430    2.1175710  
C    -5.4223720   -0.9189750    1.1734980  
C    -6.1076200    0.2474260    1.3553770  
C    -5.3349430    1.3015070    0.7544080  
C    -4.1739380    0.7059430    0.2061650  
N    -4.2372840   -0.6651090    0.4717510  
C    -3.2054770    1.4378060   -0.4875220  
C    -3.3978550    2.8059380   -0.6068730  
O    -2.4783380    3.5504320   -1.2788280  
C    -4.5444800    3.4272480   -0.0435600  
O    -4.5909390    4.7928220   -0.2312650  
C    -5.5101210    2.6930060    0.6227240  
H    -7.0529800    0.3493730    1.8708530  
H    -2.3249310    0.9837590   -0.9245860  
H    -2.6628320    4.4890570   -1.1038210  
H    -5.3323720    5.1635050    0.2699980  
H    -6.3895780    3.1856790    1.0325630  
H    -5.6385670   -1.9209210    1.5157950  
