64


C    -0.0922100    4.0023190    1.7121410  
C    -0.8223020    5.1370510    1.8910720  
C    -1.9864690    5.0412830    1.0494820  
C    -1.9116920    3.8033150    0.3665800  
N    -0.7369930    3.1627100    0.7930760  
C    -2.8650990    3.4161320   -0.5827930  
C    -3.9318450    4.2748130   -0.8106650  
O    -4.8880710    3.9309700   -1.7199890  
C    -4.0343250    5.5057380   -0.1150000  
O    -5.1487920    6.2454310   -0.4497270  
C    -3.0732280    5.8977230    0.8004420  
H    -0.5718440    5.9497600    2.5590050  
H    -2.7947490    2.5020580   -1.1584960  
H    -5.5316650    4.6598930   -1.7539470  
H    -5.1460990    7.0823080    0.0382150  
H    -3.1561560    6.8546050    1.3114510  
H     0.8205400    3.6700100    2.1830570  
C    -0.2532600    1.9236760    0.4159970  
C     1.0419100    1.4730950    0.3851870  
C     1.0115390    0.0839390    0.0272960  
C    -0.4043970   -0.2584910   -0.1546730  
N    -1.1286140    0.9202390    0.0175960  
C    -0.9357400   -1.4980130   -0.4133480  
C     0.0539870   -2.5776280   -0.4905860  
O    -0.2267800   -3.7460560   -0.7093930  
C     1.5836760   -2.2456160   -0.2810610  
O     2.3351100   -3.2163140   -0.2275790  
C     2.0265610   -0.8523770   -0.1345660  
H     1.9163550    2.0651330    0.5967830  
H    -2.1022860    0.8916870    0.2957410  
C     3.4395580   -0.5326290   -0.1162920  
C     4.1062200    0.6815010   -0.2916740  
C     5.5025720    0.4238310   -0.2240730  
C     5.6551540   -0.9771980   -0.0056220  
N     4.3993790   -1.5214860    0.0604260  
C     6.9100490   -1.5891450    0.1072730  
C     8.0288990   -0.7792490   -0.0035030  
O     9.2763550   -1.3222410    0.0966770  
C     7.8959320    0.6219060   -0.2222680  
O     9.1061490    1.2866170   -0.3077870  
C     6.6605830    1.2262110   -0.3320800  
H     3.6457720    1.6320370   -0.5146910  
H     4.1385790   -2.4990360    0.1067120  
H     7.0312450   -2.6546520    0.2717880  
H     9.9151180   -0.5972990   -0.0161840  
H     8.9451390    2.2246820   -0.4867300  
H     6.5846170    2.2990940   -0.4993700  
C    -3.2156830   -0.8761850   -1.3121220  
C    -2.3665870   -1.7321090   -0.6270880  
C    -3.1956330   -2.8323160   -0.1687020  
C    -4.5192100   -2.5672830   -0.6009130  
N    -4.4964500   -1.3741050   -1.2981890  
C    -5.6016570   -3.4094180   -0.3156370  
C    -5.3405550   -4.5520190    0.4222600  
O    -6.3502790   -5.4181960    0.7236510  
C    -4.0211410   -4.8356780    0.8657840  
O    -3.9165120   -6.0114910    1.5860110  
C    -2.9595340   -3.9982680    0.5868210  
H    -5.2877630   -0.9505770   -1.7572910  
H    -6.6125430   -3.2036280   -0.6524740  
H    -5.9507000   -6.1615950    1.2081870  
H    -2.9800560   -6.2235020    1.7163680  
H    -1.9566220   -4.2556490    0.9099810  
H    -2.9820230    0.0199280   -1.8693710  
