62


C    -4.2467500    1.6056550   -0.5866600  
C    -4.2808880    0.2285660   -0.4161180  
C    -5.3667880   -0.0290810    0.5163510  
C    -5.9258010    1.2261440    0.8618810  
N    -5.2272980    2.1971270    0.1681390  
C    -6.9842850    1.3753270    1.7666890  
C    -7.4956330    0.2236860    2.3408790  
O    -8.5327040    0.3001380    3.2215490  
C    -6.9472330   -1.0453720    2.0134950  
O    -7.5605940   -2.0996050    2.6624310  
C    -5.9003100   -1.1837590    1.1241980  
H    -5.4321370    3.1842310    0.1831160  
H    -7.4088260    2.3408100    2.0218970  
H    -8.7570370   -0.6115150    3.4779820  
H    -7.2470540   -2.9352510    2.2850600  
H    -5.5246020   -2.1689170    0.8717840  
H    -3.6287340    2.2034370   -1.2403420  
C     0.0347510    0.5484560   -1.2284930  
C     0.2198980   -0.6838460   -1.7935350  
C    -1.0486930   -1.3594300   -1.8671660  
C    -2.0355330   -0.4370900   -1.2832490  
N    -1.3515860    0.7579810   -0.9909900  
C    -3.3521780   -0.7155080   -1.0420320  
C    -3.8019990   -2.0552880   -1.5107000  
O    -4.9576330   -2.4315650   -1.4171580  
C    -2.7681640   -3.0365270   -2.1851140  
O    -3.1719410   -4.1399840   -2.5277530  
C    -1.3961630   -2.5947320   -2.3331690  
H     1.1556130   -1.0567980   -2.1843600  
H    -0.6800690   -3.2800550   -2.7754740  
H    -1.6398210    1.2621500   -0.1541730  
C     4.3328680    0.5321530    0.1490060  
C     3.0437820    0.1574100   -0.2416760  
C     2.3247170    1.3452560   -0.5498460  
C     3.2135080    2.4337870   -0.3246790  
N     4.4142960    1.9112750    0.0801230  
C     2.8370430    3.7703850   -0.4930600  
C     1.5335860    4.0225920   -0.8916100  
O     1.1216270    5.3046160   -1.0865950  
C     0.6178290    2.9604090   -1.1128430  
O    -0.6215160    3.3828930   -1.5354850  
C     0.9835790    1.6165420   -0.9541470  
H     2.6266790   -0.8371870   -0.1941670  
H     5.2320570    2.4046720    0.4201600  
H     3.5191430    4.5975670   -0.3281060  
H     0.2015050    5.2687510   -1.4017880  
H    -1.1509550    2.6021740   -1.7905340  
C     5.2430980   -3.7512570   -0.3068250  
C     6.3850910   -3.8140280    0.4234260  
C     6.6686320   -2.4761250    0.8974760  
C     5.5744740   -1.6221170    0.3934030  
N     4.7223350   -2.4582340   -0.2993760  
C     5.4615450   -0.2635510    0.5932690  
C     6.6057400    0.3647890    1.2868720  
O     6.7409230    1.5776180    1.4015260  
C     7.7307190   -0.5447150    1.9120580  
O     8.5959450    0.0001460    2.5799360  
C     7.6898090   -1.9733310    1.6480260  
H     6.9790790   -4.6955650    0.6156120  
H     8.4849500   -2.5915120    2.0518910  
H     4.7198320   -4.5356920   -0.8372930  
H     4.0317750   -2.1147930   -0.9507860  
