62


C     0.2996920    4.3480130    1.2752200  
C     0.8168030    3.2764810    0.5648350  
C     2.1881470    3.6203740    0.2433440  
C     2.4311720    4.9013590    0.7954420  
N     1.2606650    5.3118300    1.4135440  
C     3.6543530    5.5674880    0.6654870  
C     4.6558460    4.9285130   -0.0494140  
O     5.8654910    5.5318360   -0.2089930  
C     4.4247850    3.6533030   -0.6319200  
O     5.5072450    3.1561850   -1.3277050  
C     3.2134100    2.9990060   -0.4971170  
H     1.1417290    6.1786880    1.9156760  
H     3.8380250    6.5513010    1.0845160  
H     6.4105060    4.9499700   -0.7668150  
H     5.2446430    2.3648270   -1.8210900  
H     3.0530490    2.0403900   -0.9844510  
H    -0.6782740    4.4662130    1.7192130  
C     0.0998430    2.0670230    0.2495200  
C    -1.2453900    1.8470680    0.0604310  
C    -1.4559780    0.4486010   -0.1567260  
C    -0.1272640   -0.1712140   -0.0852820  
N     0.7840970    0.8549440    0.0876960  
C     0.1530490   -1.5219940   -0.1380300  
C    -1.0379280   -2.3826020   -0.1800130  
O    -1.0036470   -3.6006890   -0.0416580  
C    -2.4596580   -1.7454130   -0.4131300  
O    -3.3717950   -2.5355660   -0.6110450  
C    -2.6196920   -0.2876290   -0.3810660  
H    -2.0035490    2.6138610    0.0602130  
H     1.6809100    0.6855910    0.5255820  
C    -4.1434020    1.5522440   -1.2043040  
C    -3.9089960    0.3321260   -0.6158410  
C    -5.2750140   -0.1345000   -0.2395240  
C    -6.1682920    0.9675570   -0.6832000  
N    -5.4944640    1.9340350   -1.2569070  
C    -7.5912930    0.9270910   -0.4898350  
C    -8.1163710   -0.1508570    0.1422570  
O    -9.4256320   -0.3175040    0.4014210  
C    -7.2455840   -1.2704580    0.6203790  
O    -7.7875360   -2.2143590    1.1973690  
C    -5.7851740   -1.2137040    0.3851350  
H    -8.2060570    1.7502380   -0.8371600  
H    -9.4851690   -1.1835130    0.8622160  
H    -5.2024820   -2.0684020    0.7039220  
H    -3.4071360    2.2045950   -1.6564360  
C     1.4853020   -2.0874930   -0.0828720  
C     2.7447460   -1.5066150   -0.2609810  
C     3.7200550   -2.5308940   -0.1077670  
C     3.0120150   -3.7372340    0.1659940  
N     1.6750260   -3.4362600    0.1776440  
C     3.6602340   -4.9613860    0.3733540  
C     5.0436670   -4.9716200    0.3025780  
O     5.7262070   -6.1342890    0.4963620  
C     5.7690720   -3.7753670    0.0294330  
O     7.1380980   -3.9563810   -0.0053140  
C     5.1309000   -2.5694550   -0.1746930  
H     2.9435730   -0.4872530   -0.5580590  
H     0.8866290   -4.0656730    0.2737940  
H     3.1248150   -5.8814530    0.5819820  
H     6.6739850   -5.9332380    0.4082170  
H     7.5735820   -3.1090830   -0.1797100  
H     5.7081820   -1.6696280   -0.3791130  
