60


C     4.1520290    2.0766860    2.9745300  
C     3.3437490    1.3307100    2.1529830  
C     4.1362780    0.9181900    1.0305270  
C     5.4412690    1.4433780    1.2434830  
N     5.4136120    2.1565790    2.4245620  
C     6.5124310    1.2027430    0.3823940  
C     6.2697120    0.3805400   -0.7103210  
O     7.2729550    0.0966910   -1.5802160  
C     4.9888980   -0.1802500   -0.9442700  
O     4.9263790   -0.9449100   -2.0877150  
C     3.8897720    0.0992740   -0.1176990  
H     2.3024240    1.1103050    2.3330890  
H     6.2080210    2.6119330    2.8460200  
H     7.5072430    1.6037730    0.5473200  
H     6.8865250   -0.5138210   -2.2376410  
H     4.4406500   -1.7671560   -1.8573920  
H     3.9275540    2.5639680    3.9127560  
C    -0.1929630    1.9685460   -0.2252120  
C     1.1744640    1.7799840   -0.1787980  
C     1.3985720    0.3805510   -0.3454900  
C     0.0283110   -0.1862360   -0.4985090  
N    -0.8941670    0.7251720   -0.4223190  
C    -0.1955130   -1.6082210   -0.7105200  
C     0.9164270   -2.3829190   -0.8407680  
O     0.8735000   -3.6960430   -1.1084940  
C     2.3014660   -1.8205280   -0.7296540  
O     3.2101730   -2.6443410   -0.9506250  
C     2.5339090   -0.4047290   -0.3973950  
H     1.9349870    2.5325630   -0.0368620  
H     1.8156230   -3.9769160   -1.1622680  
C    -2.5362930   -1.5373330   -1.5392700  
C    -3.6993830   -2.2158380   -1.3924130  
C    -3.4578830   -3.3020620   -0.4690750  
C    -2.0290010   -3.2060340   -0.0815370  
N    -1.5045420   -2.1129740   -0.7801990  
C    -1.4321380   -4.0241680    0.8191610  
C    -2.2294600   -5.0911090    1.4260840  
O    -1.7703370   -5.8704940    2.2463650  
C    -3.7347430   -5.2314210    1.0015040  
O    -4.4082930   -6.1256000    1.4890260  
C    -4.2693490   -4.2658830    0.0393000  
H    -4.6369080   -1.9882500   -1.8789440  
H    -0.3921480   -3.9442780    1.1077020  
H    -5.3185600   -4.3471890   -0.2280270  
H    -2.3155160   -0.6668920   -2.1381150  
C    -0.5007420    4.4685610    0.0196330  
C    -0.9513520    3.1693960   -0.1178300  
C    -2.4256050    3.3088530   -0.1247640  
C    -2.6505490    4.7706740    0.0175190  
N    -1.5108780    5.4266760    0.1005560  
C    -3.9629840    5.3396570    0.0586150  
C    -5.0199880    4.4913470   -0.0360390  
O    -6.3005630    4.8811230   -0.0138680  
C    -4.8277960    3.0055260   -0.1790560  
O    -5.8347160    2.3058670   -0.2661200  
C    -3.4571420    2.4482150   -0.2127590  
H    -4.0898300    6.4114020    0.1628680  
H    -6.8295480    4.0569170   -0.1000390  
H    -3.3396010    1.3749510   -0.3056100  
H     0.5317220    4.7955870    0.0640000  
