62


C     2.1325190   -1.5745660   -0.0020540  
C     2.5554930   -2.9036950   -0.0480660  
C     3.9705390   -2.9002660   -0.0156690  
C     4.3868470   -1.5310590    0.0533400  
N     3.2579730   -0.7613790    0.0546440  
C     5.7363770   -1.1571980    0.1038110  
C     6.6787110   -2.1707750    0.0819460  
O     8.0021450   -1.8683250    0.1277830  
C     6.2824980   -3.5436180    0.0103320  
O     7.3488090   -4.4176450   -0.0031850  
C     4.9582780   -3.9144710   -0.0381310  
H     1.9057690   -3.7662270   -0.1053240  
H     3.1847940    0.2449820    0.1186980  
H     6.0586880   -0.1229180    0.1572000  
H     8.4960600   -2.7065620    0.0990560  
H     7.0250160   -5.3286650   -0.0647030  
H     4.6780130   -4.9642000   -0.0921480  
C     0.8384640   -0.9771910   -0.0049790  
C    -0.4186330   -1.5411330   -0.0279330  
C    -1.3375820   -0.4479750   -0.0264950  
C    -0.4661210    0.7787520    0.0099130  
N     0.8002740    0.4534590    0.0128480  
C    -0.9945890    2.1262150    0.0156600  
C    -2.3544940    2.2062890   -0.1007580  
O    -3.0252820    3.3528390   -0.1811620  
C    -3.2691350    0.9970810   -0.1202670  
O    -4.4771530    1.2391900   -0.1104890  
C    -2.7056100   -0.3597430   -0.1008090  
H    -0.6666270   -2.5918860   -0.0555530  
H    -3.9751410    3.0855310   -0.2106460  
C    -3.3527890   -3.9215750    2.5028770  
C    -2.8920780   -2.7645530    1.9611260  
C    -3.6485580   -2.5223210    0.7498860  
C    -4.6073230   -3.6473940    0.6347520  
N    -4.3610490   -4.4702620    1.7170280  
C    -5.5432740   -3.7815220   -0.3413830  
C    -5.6159750   -2.7526240   -1.3666190  
O    -6.4456670   -2.7530440   -2.2636660  
C    -4.5610010   -1.5895000   -1.3209770  
O    -4.4995930   -0.8253600   -2.2667550  
C    -3.6273530   -1.5005770   -0.1643490  
H    -2.1042950   -2.1418570    2.3561330  
H    -6.2519030   -4.6030920   -0.3810840  
H    -3.0419380   -4.4263670    3.4080420  
H    -4.9078420   -5.2829490    1.9541470  
C     2.5706860    3.4571350   -2.2985960  
C     2.7468440    4.6676840   -1.6822420  
C     1.7413010    4.7688030   -0.6612480  
C     0.9726120    3.5767750   -0.7168540  
N     1.4799510    2.8090980   -1.7456890  
C    -0.1290610    3.3240830    0.1319990  
C    -0.3934550    4.3043910    1.0938800  
O    -1.3899320    4.1171220    2.0064720  
C     0.3690540    5.4987650    1.1596950  
O    -0.0389670    6.3616010    2.1641860  
C     1.4146580    5.7499090    0.2941700  
H     3.4948010    5.4083980   -1.9306970  
H     1.3039190    1.8164850   -1.8121380  
H    -1.4424860    4.9305080    2.5376480  
H     0.4799680    7.1775430    2.1144780  
H     1.9778480    6.6789010    0.3617180  
H     3.1233220    3.0001810   -3.1078710  
