62


C     2.1524050   -2.1844180    2.1358010  
C     1.0189530   -1.6724880    1.5572020  
C     1.4371170   -0.6839440    0.6030830  
C     2.8588580   -0.6627760    0.6381960  
N     3.2593560   -1.5624590    1.6035490  
C     3.6609420    0.1604090   -0.1837260  
C     2.9346670    0.9642260   -1.0620930  
O     3.5954100    1.8220950   -1.9152600  
C     1.5228910    0.9640960   -1.1368360  
O     1.0248600    1.8495130   -2.0663100  
C     0.7329090    0.1771790   -0.2915870  
H     0.0062690   -1.9679160    1.7866260  
H     4.2207660   -1.8271990    1.7607470  
H     2.8884920    2.2354350   -2.4540720  
H     0.2983770    1.3789740   -2.5422970  
H     2.2622090   -2.9473140    2.8937210  
C    -2.2422500    0.6378640    2.9669860  
C    -1.1083460    0.6023290    2.2191230  
C    -1.4976060    0.3596720    0.8486840  
C    -2.9749430    0.2656640    0.8569580  
N    -3.3619210    0.4317410    2.1704780  
C    -3.7679540    0.0103160   -0.2301170  
C    -3.0699520   -0.0722140   -1.5199770  
O    -3.6407570   -0.2180180   -2.5854140  
C    -1.5098200    0.1435280   -1.5541420  
O    -1.0094840    0.2611140   -2.6718050  
C    -0.7438240    0.2299310   -0.3017340  
H    -0.0994050    0.7310660    2.5767980  
H    -2.3600080    0.8030100    4.0296860  
H    -4.3188930    0.4150930    2.4864250  
C    -7.1559780    2.5118280    1.2519330  
C    -5.9257560    2.0459710    0.9089830  
C    -6.1058930    0.7210410    0.3458370  
C    -7.5636660    0.4563850    0.3854260  
N    -8.1379420    1.5718220    0.9691850  
C    -8.1689690   -0.6605960   -0.0948820  
C    -7.3311430   -1.6921160   -0.6891050  
O    -7.7759400   -2.7142040   -1.1880520  
C    -5.7740690   -1.4832980   -0.6662400  
O    -5.0583990   -2.4115360   -0.9921320  
C    -5.2224260   -0.1882360   -0.1762420  
H    -4.9925970    2.5804810    1.0047610  
H    -9.2437210   -0.8128180   -0.0780990  
H    -7.4314860    3.4644680    1.6849370  
H    -9.1305400    1.7219980    1.0608140  
C     6.7496320   -3.1286770   -0.1697220  
C     5.5800980   -2.4193870   -0.2715270  
C     5.9039370   -1.0279020   -0.0814930  
C     7.3086620   -0.9633650    0.1187720  
N     7.7916130   -2.2560400    0.0762200  
C     8.0047960    0.2392490    0.2871260  
C     7.2597190    1.4043920    0.2223430  
O     7.8659120    2.6167470    0.3504400  
C     5.8515450    1.3738620    0.0263940  
O     5.2666410    2.6227950    0.0204550  
C     5.1411910    0.1765990   -0.0941120  
H     4.6086430   -2.8362980   -0.4948900  
H     8.7631490   -2.5134220    0.1506200  
H     9.0790160    0.2863790    0.4340600  
H     7.1512030    3.2737360    0.2427040  
H     4.6298020    2.6503820   -0.7278980  
H     6.9306690   -4.1903040   -0.2619100  
