62


C    -2.4044080    1.5366470    1.5142260  
C    -1.4908600    2.0697020    0.6225740  
C    -2.0660020    3.3110720    0.1509280  
C    -3.3195990    3.4636270    0.7944820  
N    -3.4951970    2.3699000    1.6203160  
C    -4.1700710    4.5512400    0.5575650  
C    -3.7439310    5.5065350   -0.3504350  
O    -4.5277040    6.5901250   -0.6185160  
C    -2.4920560    5.3685920   -1.0089150  
O    -2.2086610    6.4010230   -1.8836640  
C    -1.6586440    4.2926950   -0.7742930  
H    -4.2826810    2.2208250    2.2318670  
H    -5.1299840    4.6672420    1.0502190  
H    -4.0514790    7.1353130   -1.2684110  
H    -1.3346290    6.2590030   -2.2760180  
H    -0.6979520    4.2181540   -1.2750720  
H    -2.3247200    0.6508450    2.1291490  
C    -0.7129470   -2.0683470   -0.6091480  
C     0.6628260   -1.9530750   -0.7807310  
C     1.0322420   -0.6122470   -0.4853300  
C    -0.1582250    0.0717210   -0.1151270  
N    -1.1931640   -0.8380870   -0.1735660  
C    -0.2210560    1.4320160    0.2401510  
C     1.0085250    2.1020130    0.2034000  
O     1.0645410    3.4292210    0.5061810  
C     2.2132150    1.4384910   -0.1402160  
O     3.3158310    2.2762030   -0.1149570  
C     2.2768760    0.0847030   -0.4716430  
H     1.3245020   -2.7672870   -1.0387980  
H    -2.1623650   -0.5545920   -0.1922960  
H     1.9959700    3.7001910    0.4168010  
H     4.0333640    1.8804010   -0.6340990  
C    -1.3564460   -4.3278030   -1.5511080  
C    -1.5733500   -3.2018560   -0.8020540  
C    -2.9128210   -3.4271270   -0.1981640  
C    -3.3330200   -4.7478320   -0.7306660  
N    -2.4123010   -5.2613520   -1.5076620  
C    -4.5939080   -5.3364120   -0.3756790  
C    -5.3962720   -4.6622980    0.4870970  
O    -6.6012230   -5.1025250    0.8973530  
C    -4.9893870   -3.3483060    1.0657720  
O    -5.7591100   -2.7845780    1.8467100  
C    -3.6836680   -2.7632840    0.6838670  
H    -4.8763140   -6.2985460   -0.7888470  
H    -6.9333680   -4.4136950    1.5125410  
H    -3.4225650   -1.8219380    1.1571400  
H    -0.4908240   -4.5480460   -2.1636400  
C     3.7679750   -1.4821520   -1.8185900  
C     3.5350310   -0.5766550   -0.8213970  
C     4.8341500   -0.5060180   -0.1054430  
C     5.7196070   -1.4417190   -0.8567960  
N     5.0875440   -1.9990730   -1.8541470  
C     7.0870630   -1.6632740   -0.4701810  
C     7.5500810   -1.0203480    0.6296880  
O     8.8009560   -1.1423150    1.1051990  
C     6.6756410   -0.0973780    1.4258950  
O     7.1630500    0.4528600    2.4124930  
C     5.2763050    0.1287010    0.9988850  
H     7.7078270   -2.3414190   -1.0452920  
H     8.8353660   -0.5682240    1.9013220  
H     4.6814760    0.8096910    1.5988780  
H     3.0615970   -1.8174910   -2.5681090  
