66


C     1.1335490    1.6167710   -0.1974970  
C    -0.2324560    1.5993170   -0.3721950  
C    -0.6432000    0.2306580   -0.5082050  
C     0.5178790   -0.5675880   -0.3979530  
N     1.5903790    0.2855890   -0.1605030  
C     0.5272650   -1.9709620   -0.4861890  
C    -0.7152910   -2.5731780   -0.7014430  
O    -0.8113880   -3.9270650   -0.7770150  
C    -1.8978590   -1.7997380   -0.8300400  
O    -3.0292980   -2.5451830   -1.0688110  
C    -1.8815610   -0.4102800   -0.7269350  
H    -0.8782550    2.4646040   -0.3421750  
H     2.5302840    0.0307160   -0.4406690  
H    -1.7514190   -4.1374710   -0.9186300  
H    -3.8217060   -1.9943860   -0.9503340  
C     1.2446880    5.8002140   -1.8154960  
C     0.9113940    4.4955350   -1.5583580  
C     1.8608460    3.9934300   -0.6046700  
C     2.7613640    5.0539720   -0.3251350  
N     2.3577370    6.1427660   -1.0712040  
C     3.8481440    4.9240940    0.5477440  
C     4.0274060    3.6915810    1.1534610  
O     5.0618300    3.5056360    2.0251270  
C     3.1438410    2.6124720    0.8950090  
O     3.4686570    1.4678990    1.5985280  
C     2.0546350    2.7315790    0.0243020  
H     0.0950700    3.9511750   -2.0091140  
H     2.8143860    7.0408500   -1.0814200  
H     4.5362680    5.7354590    0.7618760  
H     4.9892480    2.5919780    2.3532930  
H     2.7497040    0.8148880    1.5226150  
H     0.7800940    6.5217680   -2.4726480  
C     3.2039260   -2.2937270    2.9989320  
C     4.1459460   -3.1191050    2.4457360  
C     3.7296200   -3.3958180    1.0980840  
C     2.5149730   -2.6959410    0.8886070  
N     2.2286140   -2.0092160    2.0548880  
C     1.7829420   -2.7437280   -0.3164380  
C     2.3235670   -3.5338680   -1.3314870  
O     1.6965490   -3.6129180   -2.5382360  
C     3.5413770   -4.2385460   -1.1392020  
O     3.9407260   -4.9636570   -2.2483610  
C     4.2472430   -4.1780100    0.0472610  
H     5.0373770   -3.4847060    2.9369370  
H     1.3381420   -1.5755580    2.2475490  
H     2.2104000   -4.2307870   -3.0865020  
H     4.7481380   -5.4549430   -2.0374200  
H     5.1792660   -4.7279650    0.1628950  
H     3.1477360   -1.8633530    3.9889030  
C    -3.3143900    1.2920800   -1.8623810  
C    -4.5851630    1.7856370   -1.7490040  
C    -5.2044110    1.1131110   -0.6423940  
C    -4.2416420    0.2136910   -0.1130350  
N    -3.0841150    0.3330170   -0.8792840  
C    -4.4990990   -0.5985680    1.0027310  
C    -5.7568290   -0.5100020    1.5822280  
O    -6.0579650   -1.2772340    2.6701970  
C    -6.7345620    0.3754930    1.0583420  
O    -7.9364380    0.3465980    1.7407020  
C    -6.4723890    1.1830120   -0.0336160  
H    -5.0319880    2.5383360   -2.3841490  
H    -3.7536350   -1.2564960    1.4362820  
H    -6.9694920   -1.0603060    2.9314210  
H    -8.5415980    0.9981720    1.3569540  
H    -7.2352210    1.8615720   -0.4108810  
H    -2.5329830    1.5172380   -2.5736830  
