62


C     2.2227940   -0.5711260    0.0534540  
C     3.5220000   -0.1382050    0.0332380  
C     3.4677900    1.3139960    0.0483040  
C     2.1085670    1.6980360    0.0469920  
N     1.3361350    0.5141190    0.0483400  
C     1.7149120    3.0369040    0.1175120  
C     2.7124520    4.0014340    0.1404800  
O     2.3711400    5.3189110    0.1981790  
C     4.0790710    3.6299190    0.1063820  
O     4.9517280    4.6959060    0.1329000  
C     4.4643280    2.3019610    0.0616970  
H     0.6815560    3.3546760    0.1270180  
H     3.1967760    5.8333370    0.2101490  
H     5.8639650    4.3694400    0.1317590  
H     5.5136150    2.0258510    0.0816260  
H     1.8299360   -1.5764010    0.0534740  
C    -1.2522160   -2.1355310    2.4390920  
C    -0.1461170   -1.5190190    1.9527820  
C    -0.6399800   -0.5765900    0.9586390  
C    -2.1061360   -0.7654340    0.9724750  
N    -2.4532500   -1.6761460    1.8427140  
C    -3.0152280    0.0193410    0.1261050  
C    -2.4045640    0.9590820   -0.6634920  
O    -3.0656720    1.7824950   -1.5106520  
C    -0.9335700    1.1700070   -0.7136470  
O    -0.5158300    1.9850150   -1.5387550  
C    -0.0396190    0.3662140    0.1718190  
H     0.8805990   -1.6589790    2.2574690  
H    -2.3597470    2.2951420   -1.9692770  
H    -1.3114190   -2.8957940    3.2078650  
C    -4.4496200   -0.1994530    0.1419790  
C    -5.1830570   -1.1048430    0.8767980  
C    -6.5674600   -0.9322780    0.5346220  
C    -6.6168820    0.1563180   -0.4734420  
N    -5.3162960    0.5533460   -0.6663670  
C    -7.7594860    0.6154490   -1.0484230  
C    -9.0263280    0.0083610   -0.6595480  
O   -10.1045450    0.3526220   -1.1218860  
C    -8.9980580   -1.1477000    0.4081080  
O   -10.0503640   -1.6690680    0.7463020  
C    -7.7032610   -1.5562550    0.9570560  
H    -4.7649870   -1.8051880    1.5810470  
H    -7.7771980    1.4130000   -1.7847730  
H    -7.6943430   -2.3546970    1.6928790  
H    -5.0021520    1.2801630   -1.2914620  
C     4.3275080   -3.5052960   -2.6876270  
C     5.5546710   -3.8634660   -2.1943210  
C     5.8580370   -2.9589950   -1.1215290  
C     4.7595260   -2.0685670   -1.0050650  
N     3.8374910   -2.4332540   -1.9647250  
C     4.7026010   -1.0129850   -0.0664250  
C     5.8186430   -0.8826400    0.7648710  
O     5.8518500    0.0946540    1.7215900  
C     6.9240140   -1.7654520    0.6612740  
O     7.9351940   -1.4896500    1.5661450  
C     6.9582540   -2.7962300   -0.2575390  
H     6.1718130   -4.6762260   -2.5517740  
H     3.0032860   -1.9087560   -2.1788000  
H     6.6715860   -0.0391260    2.2298090  
H     8.5896890   -2.2032580    1.5465980  
H     7.8207900   -3.4570010   -0.3151310  
H     3.7481480   -3.9314340   -3.4945070  
