60


C    -0.0677720    4.5455530    0.2209980  
C    -0.7564610    3.3357190    0.0795540  
C    -2.1717410    3.6690480    0.1398330  
C    -2.2613290    5.0675570    0.3097400  
N    -0.9584220    5.5607930    0.3546580  
C    -3.4758810    5.7524220    0.4071080  
C    -4.6364970    4.9941330    0.3288310  
O    -5.8502960    5.6023310    0.4120940  
C    -4.5671740    3.5847860    0.1640480  
O    -5.7962690    2.9686800    0.1085450  
C    -3.3581770    2.9183010    0.0749720  
H    -0.7116020    6.5337030    0.4652900  
H    -3.5428260    6.8275720    0.5363420  
H    -6.5281080    4.9085290    0.3291700  
H    -5.6816510    2.0200940   -0.0610990  
H    -3.3132020    1.8406390   -0.0332060  
H     0.9962070    4.7342100    0.2244170  
C    -0.1662250    2.0524220   -0.0956160  
C     1.1720660    1.6708630   -0.1084870  
C     1.1863360    0.2714930   -0.3084040  
C    -0.2692250   -0.1039850   -0.4004800  
N    -1.0376130    0.9395570   -0.2819170  
C    -0.7343280   -1.4730590   -0.5652210  
C     0.2703180   -2.4005210   -0.6256930  
O     0.0622350   -3.7082540   -0.8095470  
C     1.7499330   -2.0701570   -0.5588610  
O     2.4956500   -3.0356340   -0.7344110  
C     2.1934850   -0.6818360   -0.3664610  
H     2.0297840    2.3065050    0.0497620  
H     0.9774830   -4.0882800   -0.8590480  
C     3.6013560   -0.3721440   -0.2692830  
C     4.2437250    0.7817650   -0.6572110  
C     5.6307830    0.5937470   -0.3240540  
C     5.6740910   -0.7673890    0.3036340  
N     4.5029310   -1.3290700    0.3268730  
C     6.9057450   -1.3244430    0.8043570  
C     8.0307810   -0.5849700    0.6664840  
O     9.2474320   -0.9743230    1.0751610  
C     8.0204050    0.7833460    0.0220130  
O     9.1005240    1.3744050   -0.0514060  
C     6.7574880    1.3364090   -0.4668010  
H     3.8183180    1.6271530   -1.1778300  
H     6.9111300   -2.3075340    1.2616210  
H     9.8448910   -0.2295820    0.8356800  
H     6.7866390    2.3246160   -0.9156550  
C    -3.1291080   -0.9223380   -1.1464770  
C    -2.1628370   -1.7593860   -0.6594600  
C    -2.9241340   -2.9383010   -0.1862660  
C    -4.3474780   -2.5977970   -0.4914000  
N    -4.4508150   -1.4232250   -1.0531070  
C    -5.4322730   -3.4872200   -0.1733500  
C    -5.1344390   -4.6555240    0.4431170  
O    -6.0416950   -5.5763260    0.8044990  
C    -3.7168080   -5.0179650    0.7876340  
O    -3.5246310   -6.0920580    1.3549300  
C    -2.6186250   -4.0914890    0.4396870  
H    -6.4500660   -3.2072120   -0.4216350  
H    -5.5247330   -6.2986430    1.2251940  
H    -1.6130180   -4.4055850    0.6890250  
H    -2.9714200    0.0526310   -1.5834060  
