60


C    -2.4355190   -3.2969070    1.2476200  
C    -3.2615440   -4.1637570    0.5802240  
C    -4.2513980   -3.3644790   -0.0804650  
C    -3.9798560   -2.0071860    0.2472330  
N    -2.8816580   -2.0007890    1.0837560  
C    -4.7873300   -0.9331360   -0.2055000  
C    -5.8120030   -1.2814450   -1.1023040  
O    -6.5618260   -0.3122690   -1.6938660  
C    -6.0792070   -2.6326120   -1.4396970  
O    -7.1418390   -2.7831650   -2.3147650  
C    -5.3350760   -3.6727800   -0.9250280  
H    -3.1793910   -5.2418800    0.5588650  
H    -2.2776550   -1.1892180    1.1702770  
H    -7.2256630   -0.7641900   -2.2441210  
H    -7.2475750   -3.7202770   -2.5343340  
H    -5.5670330   -4.7034710   -1.1864570  
H    -1.5512220   -3.4921110    1.8378260  
C    -1.2243630    1.6716190    0.2405540  
C    -1.8044640    2.8779180    0.5157300  
C    -3.2274850    2.6154310    0.5912240  
C    -3.3580950    1.1555060    0.2800490  
N    -2.1861090    0.6185190    0.0927030  
C    -4.6424250    0.4731060    0.2303010  
C    -5.7107340    1.2304360    0.6407530  
O    -6.9516620    0.7507920    0.7823140  
C    -5.6063710    2.6857520    0.9846990  
O    -6.6354210    3.2720370    1.3267060  
C    -4.2991130    3.3606290    0.9268610  
H    -1.3119450    3.8175800    0.7220520  
H    -7.4938650    1.5184080    1.0722980  
H    -4.2654930    4.4148080    1.1841240  
C     2.2609110    3.7707000   -1.5440470  
C     0.9980230    3.4622790   -1.1633710  
C     1.1103400    2.1901100   -0.4734750  
C     2.5683660    1.8525600   -0.5466190  
N     3.2245140    2.7907670   -1.1693860  
C     3.1279060    0.6176670    0.0071070  
C     2.2037770   -0.2215740    0.5962920  
O     2.4826810   -1.3911590    1.1644270  
C     0.7327410    0.1139880    0.6984860  
O     0.0390250   -0.6892970    1.3217130  
C     0.1953000    1.3727820    0.1172890  
H     0.0901080    4.0162350   -1.3489930  
H     1.6194870   -1.7182090    1.5111150  
H     2.5997310    4.6424870   -2.0908570  
C     4.5481310    0.3343000   -0.0797860  
C     5.5338360    1.1065470   -0.6422110  
C     6.7617880    0.3685730   -0.4626780  
C     6.3437300   -0.8784200    0.2527520  
N     5.0664320   -0.8990550    0.4748530  
C     7.3004470   -1.8933930    0.6210630  
C     8.5966990   -1.6807190    0.2967130  
O     9.5962770   -2.5323680    0.5730680  
C     9.0478020   -0.4317020   -0.4249210  
O    10.2496430   -0.3310210   -0.6750960  
C     8.0569130    0.5879600   -0.7896820  
H     5.4075210    2.0640530   -1.1200120  
H     6.9724790   -2.7879440    1.1386380  
H    10.4050750   -2.1010840    0.2158720  
H     8.4178000    1.4717830   -1.3067750  
