64


C    -5.2662620   -0.1892620    2.1283550  
C    -4.6679530   -0.2103290    0.8745490  
C    -5.6151130   -0.8764210   -0.0068960  
C    -6.7337480   -1.2375800    0.7843060  
N    -6.4903450   -0.7975430    2.0750150  
C    -7.8405780   -1.9322950    0.2836520  
C    -7.8208130   -2.2762320   -1.0583740  
O    -8.8732820   -2.9446710   -1.6088230  
C    -6.7072500   -1.9324220   -1.8690650  
O    -6.8296030   -2.3398060   -3.1834830  
C    -5.6170390   -1.2495620   -1.3657070  
H    -7.1451120   -0.8518160    2.8400560  
H    -8.6939690   -2.2013830    0.8975910  
H    -8.6732470   -3.0629260   -2.5538850  
H    -6.1050880   -1.9631920   -3.7052090  
H    -4.7955900   -0.9729190   -2.0167290  
H    -4.9176020    0.2735070    3.0399560  
C    -0.9105760   -0.1382240    3.2388140  
C    -2.1552510   -0.4040330    2.7710230  
C    -2.2990800    0.2827410    1.5004230  
C    -1.0091780    0.9596260    1.2567650  
N    -0.2310470    0.6969500    2.3546060  
C    -0.6632490    1.7228510    0.1532210  
C    -1.7358060    1.9169140   -0.7933610  
O    -1.6979150    2.7006870   -1.7502990  
C    -3.0716180    1.0971760   -0.6441170  
O    -3.8445880    1.1319150   -1.5848070  
C    -3.3493110    0.3517840    0.6116580  
H    -2.8944360   -1.0329330    3.2416790  
H    -0.4249420   -0.4720900    4.1457400  
H     0.7472780    0.9426830    2.4074400  
C     3.4916950    0.0350350    0.5351280  
C     2.1271780    0.1844840    0.4496080  
C     1.8679200    1.5815890    0.2078760  
C     3.1318330    2.2243950    0.1352340  
N     4.1033050    1.2611590    0.3468840  
C     3.2860140    3.5820380   -0.1568590  
C     2.1264790    4.2991920   -0.4049560  
O     2.1906400    5.6208880   -0.7167770  
C     0.8445030    3.6870820   -0.3407280  
O    -0.1913090    4.5517410   -0.5955870  
C     0.6769700    2.3403830   -0.0021490  
H     1.4124200   -0.6250230    0.4697350  
H     5.0911560    1.4312240    0.4587510  
H     4.2538450    4.0679490   -0.2229760  
H     1.2669700    5.8896710   -0.8896160  
H    -0.8372920    4.0644010   -1.1657260  
C     3.9431040   -2.0574120    1.7721420  
C     4.8771640   -3.0537420    1.7643410  
C     5.8323640   -2.7344700    0.7394740  
C     5.4153360   -1.5176280    0.1433820  
N     4.2517760   -1.1072360    0.7984180  
C     6.1011240   -0.9294960   -0.9278440  
C     7.2434620   -1.5695400   -1.3854260  
O     7.9487650   -1.0349820   -2.4242670  
C     7.6863460   -2.7781460   -0.7874000  
O     8.8401180   -3.2898680   -1.3501250  
C     6.9955720   -3.3647300    0.2569600  
H     4.8915940   -3.9138000    2.4198300  
H     5.7658120   -0.0235020   -1.4197800  
H     8.6926390   -1.6346070   -2.6065100  
H     9.0607990   -4.1323300   -0.9263390  
H     7.3450890   -4.2987980    0.6926330  
H     3.0758090   -1.9072400    2.3980540  
