62


C     5.2059950   -0.0003390   -2.7847220  
C     6.4694500   -0.5182850   -2.7420280  
C     6.6314550   -1.1423660   -1.4577080  
C     5.4132110   -0.9705060   -0.7541930  
N     4.5442840   -0.2630080   -1.5837950  
C     5.2034370   -1.4792730    0.5333840  
C     6.2527570   -2.1627680    1.1286450  
O     6.1030180   -2.6777610    2.3839840  
C     7.4844220   -2.3370090    0.4437440  
O     8.4302670   -3.0389980    1.1672050  
C     7.6824030   -1.8411250   -0.8316980  
H     7.2057060   -0.4573330   -3.5318930  
H     4.2689540   -1.3579470    1.0697300  
H     6.9457490   -3.1001990    2.6236980  
H     9.2527070   -3.0915000    0.6584320  
H     8.6324380   -1.9935460   -1.3403220  
H     4.6988630    0.5601610   -3.5571310  
C     2.0967160   -0.2815180   -1.9224960  
C     3.2279020    0.1198090   -1.2780680  
C     2.8268870    1.0860770   -0.2639430  
C     1.3539910    1.1948720   -0.3703150  
N     0.9847220    0.3661470   -1.4058010  
C     0.5437260    1.9869870    0.4125190  
C     1.2605230    2.8797230    1.3233740  
O     0.7222750    3.7967200    1.9461820  
C     2.8151120    2.7183810    1.5215680  
O     3.3547670    3.3801170    2.3920680  
C     3.5387940    1.8051080    0.6413810  
H     4.6132520    1.7141520    0.7576090  
H     1.9955960   -0.9821410   -2.7402600  
H     0.0239570    0.1695250   -1.6478830  
C    -2.3592950   -1.4212510    0.3827930  
C    -1.2403820   -0.6447720    0.4925210  
C    -1.6357340    0.7211530    0.2556050  
C    -3.0299700    0.7041940    0.0058230  
N    -3.4608350   -0.6232430    0.0769450  
C    -3.7831480    1.8693420   -0.1621510  
C    -3.1046780    3.0733170   -0.0683150  
O    -3.7765980    4.2463220   -0.1997130  
C    -1.7025930    3.1243530    0.1652840  
O    -1.1964460    4.3975510    0.1999200  
C    -0.9330660    1.9630290    0.2900290  
H    -0.2518370   -1.0053990    0.7388550  
H    -4.8503380    1.8644430   -0.3461310  
H    -3.1116320    4.9487590   -0.0642680  
H    -0.5177350    4.4228150    0.9171620  
H    -2.4803830   -2.4915820    0.4637270  
C    -5.9871710   -3.1822700    2.5748150  
C    -4.9805010   -2.3965130    2.1103410  
C    -5.3790680   -1.9206310    0.8035340  
C    -6.7163940   -2.5001590    0.5382130  
N    -7.0192850   -3.2659850    1.6470140  
C    -7.4625820   -2.2734960   -0.5751070  
C    -6.9132250   -1.4036100   -1.6016930  
O    -7.5111060   -1.0948580   -2.6208570  
C    -5.4635940   -0.8235520   -1.3914420  
O    -4.9479210   -0.1896020   -2.2935240  
C    -4.7695240   -1.1028070   -0.1098970  
H    -4.0631890   -2.1564770    2.6257360  
H    -8.4484540   -2.6995480   -0.7311190  
H    -6.0679010   -3.7058270    3.5181290  
H    -7.8891360   -3.7562100    1.7845060  
