62


C     1.6176690    5.1697000    2.1458780  
C     0.8617480    6.2471390    1.7640300  
C    -0.1204720    5.7631450    0.8361530  
C     0.0992210    4.3723130    0.6836580  
N     1.1735290    4.0410820    1.4813210  
C    -0.7103390    3.5300960   -0.1196440  
C    -1.7734540    4.1654540   -0.7863700  
O    -2.5827120    3.4715920   -1.6308600  
C    -1.9926500    5.5610510   -0.6482200  
O    -3.0668300    6.0223100   -1.3878280  
C    -1.1892050    6.3615270    0.1399480  
H     0.9863030    7.2658460    2.1045530  
H     1.4564400    3.0915060    1.6723400  
H    -3.2279670    4.1091130   -1.9859290  
H    -3.1593920    6.9785840   -1.2668700  
H    -1.3857810    7.4285420    0.2231870  
H     2.4508180    5.1087660    2.8316920  
C    -0.4387910    2.1056820   -0.2380730  
C     0.7810420    1.4617520   -0.2379250  
C     0.5032740    0.0567990   -0.3857120  
C    -0.9667900    0.0026510   -0.4444480  
N    -1.5157510    1.1820170   -0.3506070  
C    -1.7016830   -1.2476360   -0.6041980  
C    -0.9556790   -2.3690920   -0.8182880  
O    -1.4857300   -3.5768860   -1.1029580  
C     0.5268370   -2.3465900   -0.7756470  
O     1.0829750   -3.4310470   -1.0202280  
C     1.2772190   -1.0867250   -0.4784830  
H     1.7510040    1.9346670   -0.2739300  
H    -0.7114130   -4.1736810   -1.2044590  
C    -3.9064580   -0.2446020   -1.1667620  
C    -5.2232940   -0.5066570   -0.9896050  
C    -5.3349280   -1.7153990   -0.2087630  
C    -3.9455970   -2.1606600    0.0623950  
N    -3.1032890   -1.2393200   -0.5754860  
C    -3.6369360   -3.2206540    0.8483730  
C    -4.7304820   -4.0094610    1.4189880  
O    -4.5352180   -4.9801090    2.1344190  
C    -6.2068550   -3.5844720    1.0976410  
O    -7.1275080   -4.2462870    1.5530350  
C    -6.4093210   -2.3937080    0.2742280  
H    -6.0440660    0.0933360   -1.3555370  
H    -2.6253390   -3.5336490    1.0670670  
H    -7.4306170   -2.0744400    0.0895980  
H    -3.4262750    0.5907580   -1.6525850  
C     2.7049850   -1.1432810   -0.3127850  
C     3.5946820   -0.1764180    0.1777390  
C     4.8937750   -0.7296330    0.1589570  
C     4.7714730   -2.0594070   -0.3523150  
N     3.4506860   -2.2760810   -0.6244340  
C     5.8733250   -2.9103900   -0.5058250  
C     7.1135010   -2.4158320   -0.1389660  
O     8.2176710   -3.1942850   -0.2649360  
C     7.2557070   -1.0873670    0.3755870  
O     8.5582310   -0.7630730    0.6874910  
C     6.1747570   -0.2504390    0.5275840  
H     3.3217880    0.8003360    0.5444950  
H     3.0106450   -3.1282130   -0.9476030  
H     5.7888050   -3.9203190   -0.8920760  
H     8.9815930   -2.6749900    0.0424950  
H     8.5992910    0.1426510    1.0290090  
H     6.3032280    0.7562670    0.9191460  
