62


C    -1.4539760   -0.0958550   -1.4023080  
C    -2.3258140   -0.4308080   -0.3899050  
C    -1.5928690   -1.3240530    0.4885460  
C    -0.2919970   -1.4805090   -0.0528830  
N    -0.2297160   -0.7044680   -1.1938660  
C     0.6854240   -2.3332600    0.5066550  
C     0.3086300   -3.0233110    1.6621290  
O     1.2122810   -3.8178490    2.2943230  
C    -0.9902780   -2.8779700    2.2141340  
O    -1.1917120   -3.6273130    3.3570430  
C    -1.9390200   -2.0487430    1.6476260  
H     0.5326510   -0.7187640   -1.8540020  
H     0.7368970   -4.2941290    2.9975650  
H    -2.1302500   -3.6049610    3.5964080  
H    -2.9291020   -1.9576660    2.0862490  
H    -1.6086440    0.5601240   -2.2468160  
C     3.9308500    0.5139660   -0.3302880  
C     4.8407640   -0.3519580   -0.8796320  
C     4.2528270   -1.6658480   -0.9086340  
C     2.8996860   -1.5180820   -0.3295800  
N     2.7351740   -0.1641420   -0.0541860  
C     2.0186350   -2.5320180   -0.0997750  
C     2.4440380   -3.8813070   -0.5516890  
O     1.7097950   -4.8506530   -0.5080360  
C     3.8838000   -4.0587070   -1.1628200  
O     4.2473740   -5.1834570   -1.4751280  
C     4.7205600   -2.8766640   -1.3245960  
H     5.8098360   -0.0829210   -1.2758300  
H     5.7127110   -3.0099770   -1.7447550  
H     2.0594140    0.1598700    0.6245060  
C     5.2369370    2.5665620    0.2570900  
C     4.0626400    1.9265380   -0.0427980  
C     3.0145500    2.9475710   -0.0143980  
C     3.6927360    4.2216090    0.3299150  
N     5.0374450    3.9130700    0.4681790  
C     3.0721970    5.4186360    0.4618790  
C     1.6268120    5.4777830    0.2430200  
O     0.9811340    6.5072460    0.3485320  
C     0.8894490    4.1492670   -0.1544850  
O    -0.3106630    4.1773920   -0.3677340  
C     1.6785280    2.9136000   -0.2587520  
H     3.5921360    6.3379620    0.7130840  
H     1.1490360    2.0119060   -0.5495830  
H     6.2264380    2.1399500    0.3546770  
H     5.7515430    4.5674070    0.7498890  
C    -5.7814300   -0.3833310   -3.2691030  
C    -4.5522640   -0.5561540   -2.6885290  
C    -4.6432720   -0.0607170   -1.3426950  
C    -5.9745830    0.3997430   -1.1630290  
N    -6.6427280    0.1939820   -2.3534870  
C    -6.4398800    0.9358510    0.0438240  
C    -5.5352410    1.0098350    1.0903060  
O    -5.9215130    1.5378180    2.2906280  
C    -4.2019630    0.5546500    0.9334520  
O    -3.4235060    0.7141640    2.0684880  
C    -3.7262250    0.0171320   -0.2611660  
H    -3.6857320   -0.9991910   -3.1578760  
H    -7.6074060    0.4280720   -2.5260050  
H    -7.4551040    1.2939140    0.1812450  
H    -5.1266920    1.5668840    2.8512640  
H    -2.4928790    0.5795670    1.8248740  
H    -6.1230940   -0.6266220   -4.2653770  
