62


C     3.9168850    0.1437370   -0.1637460  
C     2.5524480    0.2143850   -0.0166720  
C     2.1853350    1.5897520    0.1548420  
C     3.3847870    2.3406320    0.0842890  
N     4.4307340    1.4570260   -0.1662100  
C     3.4307550    3.7293010    0.2031680  
C     2.2191410    4.3878310    0.3586230  
O     2.1875760    5.7432410    0.4713850  
C     0.9950610    3.6742410    0.3855860  
O    -0.1121380    4.4784640    0.5586780  
C     0.9446540    2.2723350    0.3142360  
H     1.8847170   -0.6311930   -0.0569540  
H     5.3709940    1.6461930    0.1592450  
H     4.3547180    4.2966710    0.1566320  
H     1.2425040    5.9766880    0.5459990  
H    -0.7771580    4.2273010   -0.1174120  
C    -0.3307670   -1.1551590    2.7850750  
C    -1.6178510   -1.3237920    2.3961570  
C    -1.8618930   -0.2777760    1.4101300  
C    -0.5579510    0.4252930    1.3000250  
N     0.3228710   -0.0812990    2.1177560  
C    -0.3450520    1.5608880    0.3965530  
C    -1.4510950    1.9287140   -0.3125580  
O    -1.4504830    2.9719320   -1.1974590  
C    -2.7610830    1.2475990   -0.2407430  
O    -3.6571190    1.6729730   -0.9796100  
C    -2.9679870    0.1052110    0.7045890  
H    -2.3161100   -2.0793160    2.7254150  
H    -2.3622840    2.9816740   -1.5697280  
H     0.2312050   -1.7316200    3.5096500  
C    -4.8150480   -0.8985480    2.0788540  
C    -4.2917490   -0.4605200    0.8862940  
C    -5.3727160   -0.7284810   -0.0889820  
C    -6.4512480   -1.3538700    0.7348780  
N    -6.1118490   -1.4317400    1.9975900  
C    -7.6914050   -1.8001940    0.1660480  
C    -7.8627730   -1.6501310   -1.1699530  
O    -8.9617310   -2.0210880   -1.8373370  
C    -6.7915360   -1.0361430   -2.0338440  
O    -7.0163220   -0.9415740   -3.2372650  
C    -5.5274480   -0.5772220   -1.4178450  
H    -8.4485200   -2.2447810    0.8020560  
H    -8.7914560   -1.7923790   -2.7781170  
H    -4.7976480   -0.1190020   -2.0732110  
H    -4.3421840   -0.8276550    3.0509730  
C     3.8514420   -4.0223750    1.4904110  
C     3.5706460   -2.7080580    1.2198210  
C     4.5458430   -2.2551740    0.2676810  
C     5.4073600   -3.3518030    0.0037090  
N     4.9554160   -4.4166000    0.7566640  
C     6.5049560   -3.2703190   -0.8616770  
C     6.7363340   -2.0498590   -1.4762690  
O     7.7821720   -1.9115930   -2.3437610  
C     5.8940060   -0.9374780   -1.2298210  
O     6.2562030    0.1982240   -1.9333250  
C     4.7936080   -1.0083540   -0.3694380  
H     2.7760440   -2.1218840    1.6582640  
H     5.3787150   -5.3305650    0.7827460  
H     7.1619880   -4.1095840   -1.0657680  
H     7.7344340   -1.0059160   -2.6971450  
H     5.5247030    0.8406460   -1.8915840  
H     3.3559370   -4.7195920    2.1513760  
