62


C    -4.0186200    1.5387080   -0.5216680  
C    -4.2079560    0.1681590   -0.3915890  
C    -5.5002660    0.0036330    0.2610070  
C    -6.0226420    1.3041660    0.4767170  
N    -5.1011730    2.2075810   -0.0242550  
C    -7.2419110    1.5524490    1.1146760  
C    -7.9615990    0.4566090    1.5648690  
O    -9.1601210    0.6348350    2.1945460  
C    -7.4535120   -0.8525060    1.3774990  
O    -8.2715020   -1.8475710    1.8840990  
C    -6.2463180   -1.0897250    0.7455710  
H    -5.1927000    3.2110100    0.0106080  
H    -7.6298180    2.5539910    1.2710200  
H    -9.4965230   -0.2498600    2.4192290  
H    -7.8880230   -2.7116210    1.6731750  
H    -5.8948510   -2.1052900    0.6048720  
H    -3.1680790    2.0672210   -0.9210350  
C     0.1468170    0.5227770   -0.8329020  
C     0.4854330   -0.7416380   -1.2261590  
C    -0.7588420   -1.4734830   -1.3101720  
C    -1.8070330   -0.4863930   -0.9013900  
N    -1.2731250    0.6632430   -0.6239610  
C    -3.2361420   -0.8286220   -0.8311240  
C    -3.5306310   -2.1069450   -1.2301930  
O    -4.7890360   -2.6006530   -1.3134630  
C    -2.5067190   -3.1028160   -1.6450990  
O    -2.9011750   -4.2255470   -1.9870840  
C    -1.0840000   -2.7342670   -1.6593000  
H     1.4666490   -1.1244440   -1.4587130  
H    -4.6611380   -3.5200400   -1.6432150  
H    -0.3708910   -3.4952260   -1.9611720  
C     4.4312660    0.7330410    0.1921430  
C     4.6074000    2.1028440    0.2188190  
C     3.3426510    2.6846140   -0.0724100  
C     2.4152220    1.5207500   -0.2841200  
N     3.0582820    0.4032160   -0.1131110  
C     1.0059710    1.6756130   -0.6087580  
C     0.5789400    2.9822590   -0.6872090  
O    -0.6475550    3.3701510   -1.0102830  
C     1.4971010    4.1791690   -0.4594100  
O     0.9564740    5.2871660   -0.5730080  
C     2.8887610    3.9688240   -0.1518970  
H     5.5006940    2.6496390    0.4710750  
H    -0.5938530    4.3617450   -0.9804450  
H     3.5152490    4.8408370    0.0033480  
C     8.9242390    0.4914270    0.6444140  
C     7.6443160    0.9486960    0.4268170  
C     6.7600980   -0.1709080    0.5501000  
C     7.5750460   -1.2927040    0.8363430  
N     8.8826190   -0.8585540    0.8972810  
C     7.0760360   -2.5930420    0.9914820  
C     5.7140620   -2.7774270    0.8419500  
O     5.1742540   -4.0190890    0.9737990  
C     4.8504010   -1.6860780    0.5530980  
O     3.5525750   -2.0491390    0.4530720  
C     5.3397110   -0.3549780    0.4214730  
H     7.3954230    1.9667680    0.1740040  
H     9.6818930   -1.4461260    1.0774550  
H     7.7127150   -3.4437760    1.2132300  
H     4.2133960   -3.9190530    0.8426020  
H     3.0251220   -1.2242210    0.2213380  
H     9.8634950    1.0256010    0.6360420  
