64


C    -3.4441240   -0.0557640   -0.0180320  
C    -3.6318030    1.2630350    0.4057110  
C    -5.0221700    1.5444060    0.3461250  
C    -5.6650850    0.3598550   -0.1228570  
N    -4.6914830   -0.5789850   -0.3353820  
C    -7.0521510    0.2761610   -0.2997420  
C    -7.8038890    1.4000680    0.0022010  
O    -9.1585730    1.3748980   -0.1494860  
C    -7.1792870    2.5916200    0.4730450  
O    -8.0693650    3.6192720    0.7265120  
C    -5.8138740    2.6763020    0.6464510  
H    -2.8650310    1.9241560    0.7797310  
H    -4.7983680   -1.5556700   -0.5829080  
H    -7.5456750   -0.6221860   -0.6551450  
H    -9.4947510    2.2477990    0.1177490  
H    -7.5854160    4.3885630    1.0610680  
H    -5.3595670    3.5973170    1.0070730  
C     0.9221040    0.9571400   -0.1811910  
C    -0.4534500    1.0008720   -0.1946700  
C    -0.9546610   -0.3389320   -0.1207050  
C     0.2305830   -1.2078210   -0.0751600  
N     1.3421130   -0.3739470   -0.0293930  
C     0.2517590   -2.5761770   -0.0898870  
C    -1.0605910   -3.2270030   -0.1220830  
O    -1.2272450   -4.4309570   -0.0288590  
C    -2.3465230   -2.3274050   -0.2482900  
O    -3.4004660   -2.9191460   -0.4653530  
C    -2.2449700   -0.8597540   -0.1108850  
H    -1.0397400    1.9034710   -0.2521350  
H     2.2318570   -0.7027040   -0.3836000  
C     3.5059900   -2.6418020    2.9237410  
C     4.2931620   -3.5904950    2.3257390  
C     3.6318060   -3.9866690    1.1134690  
C     2.4354970   -3.2286220    1.0261600  
N     2.3927940   -2.4057280    2.1348370  
C     1.5008000   -3.3638060   -0.0256260  
C     1.8221680   -4.3015570   -1.0108610  
O     1.0029270   -4.4560970   -2.0856480  
C     3.0148350   -5.0674280   -0.9367400  
O     3.1807970   -5.9370560   -1.9999260  
C     3.9169740   -4.9222920    0.0997510  
H     5.2329390   -3.9681900    2.7048990  
H     1.6035170   -1.8325410    2.3890720  
H     1.3386070   -5.2116830   -2.5986170  
H     3.9190170   -6.5355790   -1.8136710  
H     4.8252340   -5.5210370    0.1281680  
H     3.6435740   -2.1031850    3.8509170  
C     1.8883700    2.0142770   -0.2488400  
C     1.7649900    3.3151650   -0.7105230  
C     3.0332130    3.9464290   -0.5675330  
C     3.9181120    2.9846660   -0.0029840  
N     3.2120750    1.8093690    0.1475280  
C     5.2531860    3.2736460    0.3003400  
C     5.7085370    4.5516700    0.0164720  
O     6.9978360    4.8879080    0.2899160  
C     4.8426440    5.5231920   -0.5654070  
O     5.4543190    6.7389990   -0.7900880  
C     3.5258580    5.2378020   -0.8599320  
H     0.8703170    3.7403550   -1.1442480  
H     3.5065280    1.0415060    0.7339430  
H     5.9314060    2.5463450    0.7341170  
H     7.1230930    5.8128990    0.0146140  
H     4.8232430    7.3535520   -1.1932060  
H     2.8808240    5.9946050   -1.3010390  
