62


C     4.8379970   -0.3785280    2.0676460  
C     3.5401790   -0.6135860    1.7001000  
C     3.5688500   -1.4859830    0.5607100  
C     4.9387610   -1.7547790    0.2896200  
N     5.6875470   -1.0603800    1.2153920  
C     5.3709460   -2.5991540   -0.7377560  
C     4.3911470   -3.2129090   -1.5000230  
O     4.7360350   -4.0578450   -2.5120410  
C     3.0142650   -2.9876360   -1.2449150  
O     2.1718890   -3.6549180   -2.1141430  
C     2.5707030   -2.1137430   -0.2403810  
H     2.6708520   -0.1729790    2.1608960  
H     6.6921990   -1.0872050    1.2857960  
H     6.4192830   -2.7943040   -0.9404270  
H     3.8896200   -4.3715050   -2.8840230  
H     1.5055120   -4.1328110   -1.5756270  
H     5.2344960    0.2328760    2.8658170  
C     0.2193530    1.6231450    0.1307220  
C    -1.0524680    1.1314480    0.2280400  
C    -0.9194810   -0.3105340    0.1829310  
C     0.5473600   -0.5410320    0.0571590  
N     1.2011780    0.5823770    0.0232880  
C     1.1251880   -1.8867110   -0.0355930  
C     0.2054280   -2.8921370    0.0190040  
O     0.5420510   -4.2116670   -0.0740380  
C    -1.2643840   -2.7007440    0.1435760  
O    -1.9672580   -3.7113480    0.0999570  
C    -1.8288910   -1.3212950    0.2558940  
H    -1.9672090    1.6869610    0.3752310  
H    -0.3217870   -4.6859800   -0.0238850  
C    -4.6335000    0.8722640   -2.3869260  
C    -5.7865910    0.5714040   -1.7122040  
C    -5.4150460   -0.2249110   -0.5769820  
C    -4.0040730   -0.3695070   -0.6130210  
N    -3.5550660    0.3099000   -1.7252320  
C    -3.2858120   -1.1426510    0.3303610  
C    -4.0412950   -1.7480080    1.3410360  
O    -3.4114460   -2.4413570    2.3255400  
C    -5.4494630   -1.5949690    1.3953810  
O    -6.0321840   -2.2448280    2.4657640  
C    -6.1387090   -0.8520020    0.4561640  
H    -6.7857000    0.8761400   -1.9911630  
H    -2.5934910    0.3586480   -2.0247860  
H    -4.0993520   -2.8251590    2.8972410  
H    -6.9942150   -2.1397610    2.4273530  
H    -7.2206030   -0.7536930    0.5184420  
H    -4.4806760    1.4464040   -3.2897420  
C    -1.3771340    5.3795460   -1.6824910  
C    -1.2552000    4.0782370   -1.3162350  
C    -0.0421460    4.0205310   -0.5147440  
C     0.4574210    5.4309020   -0.5221730  
N    -0.3267630    6.2177800   -1.2059110  
C     1.6768750    5.8091490    0.1400660  
C     2.3641010    4.8424760    0.7901980  
O     3.5047960    5.0534790    1.4651220  
C     1.8705250    3.4190330    0.8627650  
O     2.4914100    2.6573150    1.5953150  
C     0.6364030    3.0183830    0.1149090  
H    -1.9123460    3.2565050   -1.5592950  
H     2.0130970    6.8396650    0.1124570  
H     3.7312190    4.1861990    1.8685340  
H    -2.1593730    5.8274330   -2.2844050  
