62


C    -3.2682190    1.0514920   -1.9117300  
C    -4.5767670    1.4456990   -1.8822370  
C    -5.2057020    0.7528920   -0.7933780  
C    -4.2095680   -0.0563700   -0.1863790  
N    -3.0223090    0.1345510   -0.8909200  
C    -4.4675460   -0.8523470    0.9414720  
C    -5.7600560   -0.8455780    1.4482550  
O    -6.0619970   -1.6013640    2.5433640  
C    -6.7704930   -0.0542850    0.8432940  
O    -8.0032230   -0.1566600    1.4594120  
C    -6.5071040    0.7421630   -0.2568920  
H    -5.0421200    2.1471920   -2.5610480  
H    -3.6993680   -1.4303580    1.4439770  
H    -7.0011230   -1.4504320    2.7471840  
H    -8.6358710    0.4282600    1.0170040  
H    -7.2953000    1.3513810   -0.6952820  
H    -2.4671090    1.3221730   -2.5837760  
C     1.0906110    1.6970300   -0.2041420  
C    -0.2851230    1.5805330   -0.4004090  
C    -0.5894880    0.1975800   -0.4653950  
C     0.6319460   -0.5166900   -0.2946350  
N     1.6257990    0.4119520   -0.1406050  
C     0.7178660   -1.9247430   -0.3019570  
C    -0.4877700   -2.6038360   -0.4913860  
O    -0.5054990   -3.9574750   -0.4641560  
C    -1.7203850   -1.9165900   -0.6874320  
O    -2.7863270   -2.7556750   -0.9048320  
C    -1.7882890   -0.5310740   -0.6739680  
H    -0.9638590    2.4136290   -0.4818700  
H     2.6105930    0.2237830   -0.0187330  
H    -1.4191760   -4.2401790   -0.6503490  
H    -3.6240520   -2.2689380   -0.8164640  
C     0.0341810    5.9703250   -0.3269060  
C     1.2383700    6.5556280   -0.1461670  
C     2.1832490    5.4512470   -0.0159860  
C     1.3387700    4.2239640   -0.1482870  
N     0.0909610    4.5390030   -0.3296330  
C     1.9174450    2.8735200   -0.0738460  
C     3.2781040    2.8356870    0.1232770  
O     3.9848920    1.6757440    0.2186410  
C     4.1263060    4.0323390    0.2562130  
O     5.3421340    3.8708010    0.4341690  
C     3.5120170    5.3723440    0.1760120  
H     1.4736630    7.6100510   -0.1042580  
H     4.9161640    1.9700990    0.3458830  
H     4.1721710    6.2287710    0.2770680  
H    -0.9302160    6.4437020   -0.4644380  
C     3.8013250   -1.9909960    2.9027020  
C     2.6929360   -1.7479650    2.1577950  
C     2.8170830   -2.5162320    0.9336810  
C     4.1063360   -3.2431050    1.0358990  
N     4.6597330   -2.8667540    2.2444650  
C     4.5868360   -4.1128530    0.1097470  
C     3.7886110   -4.3512110   -1.0825350  
O     4.1075640   -5.1417950   -1.9581590  
C     2.4513320   -3.5402380   -1.2560000  
O     1.8510750   -3.6366160   -2.3102750  
C     1.9932630   -2.6537120   -0.1511860  
H     1.8674250   -1.1072440    2.4276340  
H     5.5232310   -4.6505600    0.2226360  
H     4.0701540   -1.6069980    3.8779080  
H     5.5160820   -3.2389900    2.6234940  
