64


C    -2.8280670   -1.0166550   -0.0266100  
C    -3.5503050   -0.0188380   -0.6422860  
C    -4.9337380   -0.1938640   -0.3055330  
C    -5.0135420   -1.3311470    0.5351990  
N    -3.7325080   -1.8611150    0.6486930  
C    -6.2166320   -1.7837710    1.0838750  
C    -7.3694620   -1.0785230    0.7676490  
O    -8.5700210   -1.4751230    1.2795140  
C    -7.3127460    0.0508700   -0.0909460  
O    -8.5422570    0.6380190   -0.3199240  
C    -6.1188230    0.4959460   -0.6293270  
H    -3.1385990    0.7191920   -1.3162680  
H    -3.4425110   -2.4023010    1.4534740  
H    -6.2809870   -2.6521270    1.7316000  
H    -9.2456480   -0.8649380    0.9367690  
H    -8.4344240    1.3944780   -0.9150560  
H    -6.1005860    1.3664290   -1.2822250  
C     0.8235300    1.6253870   -0.0788140  
C    -0.4760640    1.1407430   -0.0417480  
C    -0.4142710   -0.2879800   -0.0835560  
C     0.9594500   -0.6379290   -0.1353940  
N     1.6803380    0.5354240   -0.1334390  
C     1.4346360   -1.9663780   -0.1537480  
C     0.4494630   -2.9575230   -0.1195150  
O     0.8128030   -4.2657920   -0.0886460  
C    -0.9282800   -2.6325090   -0.0736070  
O    -1.7513660   -3.7447480   -0.0460110  
C    -1.3969980   -1.3154180   -0.0525270  
H    -1.3687700    1.7293210    0.1088300  
H     2.6833890    0.6239720   -0.1995800  
H    -0.0020360   -4.7906640   -0.1825320  
H    -2.6525390   -3.4771330   -0.3005390  
C     4.7846240   -0.7760620    2.4378650  
C     5.8007180   -1.4408320    1.8275160  
C     5.2337760   -2.1542880    0.7027310  
C     3.7835440   -1.8431400    0.7078530  
N     3.5736820   -1.0252990    1.8068830  
C     2.8706410   -2.3058280   -0.1983080  
C     3.4077850   -3.1473250   -1.2938850  
O     2.7337880   -3.5069300   -2.2421700  
C     4.9268420   -3.5596730   -1.2607410  
O     5.3372480   -4.3390090   -2.1080530  
C     5.7809640   -2.9832120   -0.2279630  
H     6.8378760   -1.4481170    2.1296880  
H     6.8339630   -3.2478550   -0.2325480  
H     4.8099090   -0.1344440    3.3089820  
H     2.7151950   -0.5262570    1.9857900  
C    -1.0746770    5.3828800   -1.3859550  
C    -0.0665270    6.2378750   -1.0279620  
C     0.9859100    5.4370100   -0.4688090  
C     0.5442800    4.0890330   -0.5016490  
N    -0.7219430    4.0888350   -1.0493570  
C     1.3273960    2.9966200   -0.0573090  
C     2.6113330    3.3302620    0.3931550  
O     3.4761050    2.3448080    0.8171420  
C     3.0619710    4.6704950    0.4398450  
O     4.3474240    4.8019770    0.9385790  
C     2.2703160    5.7260220    0.0299660  
H    -0.0687600    7.3124470   -1.1482080  
H    -1.2013640    3.2530040   -1.3470110  
H     4.3160870    2.7883690    1.0324350  
H     4.6419480    5.7186950    0.8354580  
H     2.6399260    6.7480200    0.0780830  
H    -2.0311090    5.5859030   -1.8468310  
