64


C    -4.7088600    1.0361170    0.0924630  
C    -4.7101470   -0.3206700    0.4043410  
C    -6.0636980   -0.7290980    0.5538210  
C    -6.8741590    0.4196630    0.3259240  
N    -6.0327180    1.4664100    0.0482100  
C    -8.2726020    0.3816730    0.3965500  
C    -8.8625060   -0.8341760    0.7025840  
O   -10.2192940   -0.9304420    0.7856900  
C    -8.0677420   -1.9946360    0.9334100  
O    -8.8109600   -3.1230680    1.2250580  
C    -6.6912680   -1.9567900    0.8632350  
H    -3.8350610   -0.9361400    0.5326110  
H    -6.2960380    2.4290920   -0.1017190  
H    -8.8957560    1.2530240    0.2244880  
H   -10.4296070   -1.8540670    1.0079880  
H    -8.2153520   -3.8724450    1.3727940  
H    -6.1031360   -2.8546390    1.0422770  
C    -0.3829450    0.2851850   -0.5228250  
C     0.0759560    1.5810870   -0.5523930  
C    -1.0713390    2.4275110   -0.4318520  
C    -2.2340370    1.4892610   -0.3011140  
N    -1.8248140    0.2599280   -0.3813980  
C    -3.6101930    1.9569670   -0.1311130  
C    -3.7528380    3.3199830   -0.2080760  
O    -4.9456310    3.9513980   -0.1135830  
C    -2.6199830    4.2784340   -0.3691430  
O    -2.9139020    5.4835510   -0.3992800  
C    -1.2600330    3.7723750   -0.4683460  
H     1.0860050    1.9215480   -0.7113800  
H    -4.7113220    4.9093590   -0.1899040  
H    -0.4580040    4.4943880   -0.5821150  
C     3.9817100   -0.8865180   -0.2955660  
C     2.7886870   -0.1799170   -0.2813750  
C     1.7270850   -1.0983860   -0.5356760  
C     2.3262640   -2.3749000   -0.6846430  
N     3.6903510   -2.2255460   -0.5117260  
C     1.5986600   -3.5437160   -0.9221360  
C     0.2192730   -3.4320690   -0.9944520  
O    -0.5423820   -4.5371450   -1.2210980  
C    -0.4296960   -2.1805980   -0.8342070  
O    -1.7798950   -2.2628670   -0.9407080  
C     0.2977650   -0.9809150   -0.6195120  
H     2.7135380    0.8659490   -0.0299590  
H     4.3756110   -2.9058300   -0.8067160  
H     2.0670070   -4.5158910   -1.0385290  
H    -1.4683960   -4.2322240   -1.2382330  
H    -2.1511610   -1.3490420   -0.7681150  
C     5.3359440   -0.4326640   -0.0949760  
C     5.9089260    0.8002420   -0.3317790  
C     7.2888790    0.7163690    0.0362200  
C     7.5167320   -0.6073870    0.4973180  
N     6.3264050   -1.3049400    0.3681740  
C     8.7612800   -1.0410040    0.9644840  
C     9.8026400   -0.1242790    0.9556310  
O    11.0365710   -0.4941060    1.4030090  
C     9.5991850    1.1990890    0.4791290  
O    10.7340150    1.9858300    0.5249850  
C     8.3671470    1.6250890    0.0203380  
H     5.4029700    1.6488790   -0.7713240  
H     6.1130000   -2.1350810    0.9028190  
H     8.9391230   -2.0496360    1.3232580  
H    11.6194780    0.2797160    1.3141600  
H    10.5255040    2.8747310    0.2017230  
H     8.2343350    2.6442280   -0.3371180  
