62


C     2.1184100   -1.7493170   -0.5946840  
C     3.3478130   -1.1260040   -0.4324280  
C     4.2178710   -2.1173380    0.1801790  
C     3.4447760   -3.2889710    0.3699940  
N     2.1750390   -3.0325140   -0.1195680  
C     3.9427490   -4.4518490    0.9691460  
C     5.2624960   -4.4338030    1.3902420  
O     5.8102590   -5.5382940    1.9713230  
C     6.0547480   -3.2682340    1.2158800  
O     7.3486360   -3.4003570    1.6824850  
C     5.5536780   -2.1232170    0.6281390  
H     1.4275570   -3.7069190   -0.1757590  
H     3.3439820   -5.3462360    1.1074590  
H     6.7413900   -5.3283760    2.1612420  
H     7.8717570   -2.6356550    1.3987860  
H     6.1923290   -1.2594370    0.4801270  
H     1.2239200   -1.3771930   -1.0725590  
C     0.8888920    2.5831760   -0.1585120  
C     1.3870450    1.3143940   -0.0698710  
C     2.7013800    1.2772820   -0.6659340  
C     2.9664830    2.6480690   -1.1320030  
N     1.8682320    3.4367080   -0.7513420  
C     4.0773430    3.0576530   -1.7913050  
C     5.1279610    2.0782150   -2.0093440  
O     6.1863740    2.3335380   -2.5631210  
C     4.9059510    0.6146750   -1.4689460  
O     5.8140570   -0.1828370   -1.6341700  
C     3.6192450    0.2567120   -0.8139750  
H     0.9136350    0.4993850    0.4560650  
H     4.2345360    4.0769920   -2.1298300  
H     1.5537840    4.1545350   -1.3978460  
C    -3.3066600    0.9650680    0.1563550  
C    -1.9467870    1.1328460   -0.1135920  
C    -1.5744420    2.4136220    0.3563130  
C    -2.7520120    3.0155740    0.9040400  
N    -3.7700650    2.1150010    0.7751380  
C    -2.7655460    4.3104610    1.4353450  
C    -1.5756330    5.0174550    1.4138650  
O    -1.5256420    6.2719120    1.9269050  
C    -0.3842820    4.4485900    0.8725560  
O     0.6999390    5.2833030    0.9691700  
C    -0.3514590    3.1556660    0.3434040  
H    -1.3160810    0.4108350   -0.6104700  
H    -4.7373530    2.2130710    1.0529160  
H    -3.6559980    4.7655090    1.8551270  
H    -0.6054940    6.5824710    1.8510390  
H     1.5030310    4.8106100    0.6715970  
C    -4.2127990   -0.1076060   -0.0905490  
C    -4.0197350   -1.3328230   -0.6870200  
C    -5.2943500   -1.9831500   -0.6565830  
C    -6.2049550   -0.9912660    0.0174640  
N    -5.5696970    0.0977500    0.3437520  
C    -7.5961240   -1.2760050    0.2415830  
C    -8.0602180   -2.4767500   -0.1793270  
O    -9.3243850   -2.8868540   -0.0435970  
C    -7.1680290   -3.5001790   -0.8635590  
O    -7.7114270   -4.5568840   -1.1995860  
C    -5.7651530   -3.1898760   -1.0790160  
H    -3.1027320   -1.7285380   -1.1003150  
H    -8.2340530   -0.5474560    0.7292820  
H    -9.3386760   -3.7885060   -0.4442530  
H    -5.1545350   -3.9403510   -1.5708930  
