60


C    -3.0845430    1.0405740   -0.0595220  
C    -2.4067920    2.2129870    0.1737790  
C    -3.3006170    3.2798990   -0.1658130  
C    -4.5180960    2.6886860   -0.5949210  
N    -4.3670220    1.3153210   -0.5088780  
C    -5.6242020    3.4420750   -1.0021350  
C    -5.4978320    4.8223890   -0.9755660  
O    -6.5394960    5.6039350   -1.3666210  
C    -4.2880480    5.4345060   -0.5404280  
O    -4.3282660    6.8117000   -0.5682820  
C    -3.1996840    4.6862930   -0.1369620  
H    -1.4090860    2.2961520    0.5817920  
H    -5.0023380    0.6295600   -0.8886320  
H    -6.5564170    2.9946500   -1.3302710  
H    -6.2625360    6.5320020   -1.2713970  
H    -3.4851960    7.1736590   -0.2571600  
H    -2.2853050    5.1746870    0.1924660  
C    -1.4129910   -0.7325090   -0.3931450  
C    -1.2152930   -2.0690900   -0.1413000  
C    -2.4256490   -2.5314420    0.5526590  
C    -3.3024820   -1.3451560    0.6883880  
N    -2.6356990   -0.2814350    0.0644690  
C    -4.4997700   -1.3281890    1.3231610  
C    -4.9877910   -2.5738640    1.9164740  
O    -6.0555870   -2.6554430    2.5006830  
C    -4.0801890   -3.8443270    1.7915950  
O    -4.4548420   -4.8952030    2.2834430  
C    -2.7957250   -3.7220900    1.0858940  
H    -5.1022500   -0.4339430    1.4371860  
H    -2.1909440   -4.6162230    1.0061910  
H    -0.7732570   -0.0489610   -0.9339710  
C     3.1265010   -1.0158490   -0.2402720  
C     1.7786100   -0.9813290    0.0236120  
C     1.2520090   -2.2216470   -0.4841090  
C     2.4411610   -2.9278400   -1.0286780  
N     3.5299500   -2.2193490   -0.8932150  
C     2.3533940   -4.2414050   -1.6111230  
C     1.1388640   -4.8340880   -1.6333540  
O     0.9117500   -6.0610170   -2.1235500  
C    -0.0961100   -4.1516940   -1.1003800  
O    -1.1519340   -4.7743380   -1.1985840  
C    -0.0064690   -2.7782970   -0.5240000  
H     1.2350450   -0.2064480    0.5443580  
H     3.2407180   -4.7281980   -1.9996680  
H    -0.0534850   -6.2142100   -2.0238140  
C     4.1477420   -0.0482510    0.0534010  
C     4.0821080    1.1853330    0.6638750  
C     5.4104150    1.7282540    0.6948700  
C     6.2891000    0.7155820    0.0489550  
N     5.4637750   -0.3243900   -0.3122120  
C     7.6289210    0.8619630   -0.1150130  
C     8.2603900    2.0863700    0.3667450  
O     9.4579460    2.3054650    0.2613050  
C     7.3506410    3.1717350    1.0517470  
O     7.8630340    4.2043970    1.4587870  
C     5.9186970    2.9004520    1.1736720  
H     3.1904930    1.6581280    1.0496830  
H     8.2562480    0.1130070   -0.5881590  
H     5.3008950    3.6560800    1.6496460  
H     5.7219170   -1.1871260   -0.7694940  
