62


C    -5.1849170   -0.0396380    2.3380250  
C    -6.3011330   -0.8307510    2.3402770  
C    -6.4118270   -1.4127000    1.0321920  
C    -5.3213670   -0.9281620    0.2660170  
N    -4.5745910   -0.0819040    1.0834640  
C    -5.0981640   -1.3187310   -1.0592480  
C    -6.0030540   -2.2028950   -1.6254020  
O    -5.8366100   -2.6111170   -2.9183630  
C    -7.1061770   -2.6916140   -0.8770220  
O    -7.9172480   -3.5644500   -1.5795560  
C    -7.3179090   -2.3107530    0.4350210  
H    -6.9796150   -0.9665290    3.1717790  
H    -4.2713460   -0.9423680   -1.6490650  
H    -6.5788050   -3.2030090   -3.1296090  
H    -8.6762500   -3.8102910   -1.0305860  
H    -8.1655350   -2.7037750    0.9934080  
H    -4.7810730    0.6067710    3.1046400  
C    -0.7445680   -0.3879850    3.0925340  
C    -0.0501590    0.4845120    2.2922870  
C    -0.9504820    0.9457430    1.2719130  
C    -2.1946510    0.3168680    1.5299740  
N    -2.0396090   -0.4961030    2.6315500  
C    -3.3512770    0.5531870    0.7668460  
C    -3.2342190    1.4776580   -0.2709130  
O    -4.3100190    1.7880130   -1.0347390  
C    -1.9989210    2.1202640   -0.5500120  
O    -2.0742380    2.9770180   -1.6185020  
C    -0.8277460    1.8555510    0.1739790  
H     0.9837410    0.7670210    2.4225100  
H    -2.7708820   -1.0670400    3.0278160  
H    -3.9945380    2.4756560   -1.6548910  
H    -1.5605340    3.7860410   -1.3719460  
H    -0.4212690   -0.9438010    3.9611620  
C     3.2208100    0.0732160   -0.4186740  
C     1.8671890    0.3059120   -0.2655010  
C     1.6410330    1.7129280   -0.2660070  
C     2.9712430    2.3361230   -0.4478150  
N     3.8992610    1.3027300   -0.4558990  
C     3.1978950    3.6659090   -0.5698130  
C     2.0433420    4.5487000   -0.5282260  
O     2.1214890    5.7649240   -0.5900510  
C     0.6153610    3.9006680   -0.4198150  
O    -0.3377850    4.6668960   -0.5830130  
C     0.4757630    2.4640030   -0.1601930  
H     1.1173070   -0.4551770   -0.1164120  
H     4.1854260    4.1047580   -0.6692800  
H     4.7926340    1.4034590   -0.9174590  
C     3.4185540   -2.4015180   -0.8610540  
C     3.9241600   -1.1689850   -0.5121120  
C     5.3557430   -1.4301670   -0.2533080  
C     5.5066060   -2.8882020   -0.5163670  
N     4.3623650   -3.4336310   -0.8643240  
C     6.7634990   -3.5581410   -0.3681970  
C     7.8301110   -2.8245490    0.0432620  
O     9.0605400   -3.3243760    0.2216880  
C     7.7074670   -1.3596790    0.3473640  
O     8.7137120   -0.7601000    0.7225720  
C     6.3963630   -0.6943210    0.1860300  
H     6.8397010   -4.6198860   -0.5742930  
H     9.6129400   -2.5708230    0.5256400  
H     6.3490870    0.3569500    0.4519160  
H     2.3968940   -2.6247830   -1.1454370  
