64


C    -1.8981030   -0.5457540    0.9298070  
C    -3.1850610   -0.0733720    0.8808690  
C    -3.1403600    1.2520530    0.3179120  
C    -1.7800600    1.5335160    0.0469170  
N    -1.0265780    0.4252730    0.4402880  
C    -1.3684530    2.7331180   -0.5450870  
C    -2.3481020    3.6670650   -0.8427570  
O    -2.0001560    4.8540750   -1.4163030  
C    -3.7155920    3.4053580   -0.5572920  
O    -4.5650690    4.4359800   -0.9047460  
C    -4.1212530    2.2158830    0.0164490  
H    -0.3302460    2.9570960   -0.7544250  
H    -2.8187620    5.3635290   -1.5453560  
H    -5.4805130    4.1773370   -0.7212740  
H    -5.1713440    2.0235040    0.2204940  
H    -1.5169230   -1.4760630    1.3252390  
C     0.9909130   -2.7256830   -1.7158960  
C     2.2830290   -2.3397840   -1.4431190  
C     2.2205750   -1.1669120   -0.6224150  
C     0.8464800   -0.8923330   -0.4373220  
N     0.1220010   -1.8562680   -1.1026440  
C     0.3617820    0.2258640    0.2740130  
C     1.3072930    1.0983130    0.8011940  
O     0.9175770    2.1894550    1.5095170  
C     2.6982380    0.8631670    0.6287350  
O     3.4599020    1.8086830    1.2174430  
C     3.1997360   -0.2812110   -0.0527710  
H     3.1605680   -2.8341160   -1.8268040  
H    -0.8850850   -1.8749310   -1.1669850  
H     1.7382700    2.6449720    1.7778000  
H     4.4266400    1.5747280    1.0303550  
H     0.6219360   -3.5549000   -2.3021600  
C    -4.4807390   -1.2359560    2.6589370  
C    -5.6891310   -1.8653630    2.7804800  
C    -6.3392130   -1.7825860    1.5028760  
C    -5.4611940   -1.0833410    0.6345480  
N    -4.3230180   -0.7502310    1.3635210  
C    -5.7631200   -0.8456600   -0.7131750  
C    -6.9829030   -1.3046140   -1.1864700  
O    -7.3297710   -1.0937410   -2.4922270  
C    -7.8794250   -1.9945890   -0.3292500  
O    -9.0544400   -2.3865060   -0.9465700  
C    -7.5725570   -2.2384900    0.9967790  
H    -6.0765380   -2.3267790    3.6786870  
H    -5.0871390   -0.3245360   -1.3816930  
H    -8.2047340   -1.4976090   -2.6235030  
H    -9.6059690   -2.8665400   -0.3115250  
H    -8.2724070   -2.7770510    1.6332900  
H    -3.7027680   -1.0578000    3.3875440  
C     4.6148950   -0.5136450   -0.1356690  
C     5.3466960   -1.5846010   -0.6155530  
C     6.7210590   -1.2603270   -0.4309470  
C     6.7118760    0.1009140    0.2040110  
N     5.4894240    0.5175840    0.3734940  
C     7.9178850    0.7904430    0.5538930  
C     9.0847910    0.1519840    0.2891470  
O    10.2912490    0.6503160    0.5519210  
C     9.1373100   -1.2322700   -0.3502810  
O    10.2705750   -1.6921820   -0.5323090  
C     7.9010720   -1.8984690   -0.6929730  
H     4.9748040   -2.5126370   -1.0161780  
H     7.8850520    1.7742130    1.0084910  
H    10.9186130   -0.0497950    0.2447760  
H     7.9646440   -2.8820840   -1.1467420  
