60


C    -0.0450160   -3.8341630    0.2182190  
C     0.7417710   -4.9165900   -0.0725050  
C     2.0821930   -4.4322210   -0.2317730  
C     2.0520310   -3.0294590   -0.0388880  
N     0.7418050   -2.6936070    0.2268630  
C     3.2110660   -2.2013970   -0.0946230  
C     4.4264300   -2.8757410   -0.3587540  
O     5.5851740   -2.1970310   -0.5027680  
C     4.4545170   -4.2826230   -0.5514800  
O     5.7211980   -4.7734140   -0.8099020  
C     3.3149640   -5.0585620   -0.4984450  
H     0.4058680   -5.9398810   -0.1665890  
H     0.4466290   -1.7805400    0.5378450  
H     6.2763770   -2.8537580   -0.7048710  
H     5.6699700   -5.7176410   -1.0183590  
H     3.3720040   -6.1335750   -0.6577960  
H    -1.1124430   -3.7761710    0.3870830  
C     3.1287380   -0.7668660    0.0786440  
C     2.0365260    0.0475990   -0.1530360  
C     2.4513400    1.3780520    0.1785320  
C     3.8746410    1.2150200    0.6205070  
N     4.2606860   -0.0257760    0.5703620  
C     4.6670360    2.3431920    1.0320450  
C     4.0882770    3.5654910    0.9748830  
O     4.7036420    4.7059340    1.3130650  
C     2.6477580    3.7658810    0.5507580  
O     2.2088130    4.9135920    0.6232810  
C     1.8398640    2.6022780    0.1450840  
H     1.1046250   -0.2205220   -0.6277930  
H     5.6926520    2.2019090    1.3538640  
H     4.0235910    5.4074930    1.1888150  
C    -1.9108240    0.9227240    1.7503510  
C    -0.6240000    1.2933960    1.5492400  
C    -0.5983550    2.1605880    0.3883630  
C    -1.9980860    2.2760640   -0.0731280  
N    -2.7675060    1.4934610    0.7950830  
C    -2.4008620    3.0170550   -1.1352170  
C    -1.3927080    3.7783530   -1.8651740  
O    -1.6628640    4.5120940   -2.8027930  
C     0.1105570    3.6391630   -1.4259140  
O     0.9674770    4.1849840   -2.0953550  
C     0.4337180    2.7967240   -0.2449080  
H     0.2240790    1.0234490    2.1598820  
H    -3.4330190    3.0867090   -1.4608600  
H    -2.3362740    0.2992550    2.5254260  
C    -5.2217100    1.8287640    0.5301280  
C    -4.0912660    1.0676610    0.5908220  
C    -4.4846070   -0.3163750    0.3849370  
C    -5.9536470   -0.2980080    0.2053440  
N    -6.3313650    1.0322240    0.2906530  
C    -6.7038990   -1.4086870   -0.0003910  
C    -6.0270010   -2.7074020   -0.0507340  
O    -6.6215040   -3.7573030   -0.2285550  
C    -4.4646930   -2.7398300    0.1360300  
O    -3.8820400   -3.8134920    0.1140860  
C    -3.7692760   -1.4692600    0.3403270  
H    -7.7812610   -1.3896400   -0.1317180  
H    -2.6907680   -1.4926430    0.4556690  
H    -5.3264040    2.8997900    0.6386040  
H    -7.2730060    1.3738310    0.1761410  
