62


C    -4.3702710    2.5787050   -2.5832770  
C    -3.5616150    1.6508320   -1.9801860  
C    -4.2713110    1.1397850   -0.8390780  
C    -5.5292070    1.8018890   -0.8146340  
N    -5.5525320    2.6852160   -1.8751160  
C    -6.5220770    1.5257060    0.1296590  
C    -6.2444790    0.5324250    1.0560510  
O    -7.1701130    0.1922990    1.9941170  
C    -5.0021390   -0.1543890    1.0545900  
O    -4.8882910   -1.0952720    2.0584880  
C    -3.9828050    0.1479300    0.1456770  
H    -2.5743740    1.3663770   -2.3120080  
H    -6.3455120    3.2463010   -2.1430400  
H    -7.4837800    2.0285540    0.1429860  
H    -6.7668230   -0.5404200    2.4989380  
H    -4.5283040   -1.9095980    1.6425260  
H    -4.2016800    3.1803040   -3.4653940  
C     0.2560400    1.6188770    0.0977000  
C    -1.1231280    1.5523330    0.1484680  
C    -1.4602380    0.1711960    0.1367940  
C    -0.1294260   -0.5316270    0.0743710  
N     0.8583270    0.3120160    0.0464590  
C    -0.0129000   -1.9787510    0.0464000  
C    -1.1929350   -2.6505400    0.1550650  
O    -1.2765490   -3.9784570    0.2302150  
C    -2.5394980   -1.9614070    0.2790860  
O    -3.4950490   -2.7423390    0.4641670  
C    -2.6592720   -0.5146390    0.1862360  
H    -1.8211780    2.3743540    0.1930910  
H    -2.2398560   -4.1701890    0.3160320  
C     3.8745040   -1.8857190    2.2428060  
C     2.5962930   -1.6792830    1.8415640  
C     2.3748050   -2.4830420    0.6552330  
C     3.6514680   -3.1950020    0.4030780  
N     4.5403350   -2.7490230    1.3671510  
C     3.8560000   -4.1101860   -0.5790760  
C     2.7504740   -4.4068490   -1.4759430  
O     2.8147950   -5.2346700   -2.3722420  
C     1.4082540   -3.6086110   -1.2875900  
O     0.5277230   -3.7626260   -2.1138030  
C     1.2744060   -2.6726150   -0.1365720  
H     1.8812320   -1.0134510    2.2975020  
H     4.7942030   -4.6382280   -0.7200690  
H     4.4049530   -1.4661380    3.0875390  
H     5.4055240   -3.2203140    1.5848180  
C     0.7171600    4.0896590    0.1467420  
C     1.1218800    2.7546130    0.1009870  
C     2.5754290    2.7771120    0.0665700  
C     2.9719210    4.1330200    0.0971520  
N     1.8113010    4.8991230    0.1449660  
C     4.3092200    4.5409750    0.0802040  
C     5.2736670    3.5439910    0.0308480  
O     6.5947170    3.8773090    0.0108350  
C     4.8935550    2.1766470    0.0010690  
O     5.9585040    1.2988850   -0.0408860  
C     3.5679660    1.7831450    0.0167930  
H     1.7830630    5.9077540    0.1702790  
H     4.6120240    5.5827180    0.1004870  
H     7.1000130    3.0479360   -0.0490810  
H     5.6206820    0.3945160   -0.1290240  
H     3.2821170    0.7369250   -0.0071400  
H    -0.2806700    4.5031460    0.1794920  
