64


C     4.5919090    0.0471890   -2.7384110  
C     3.8518580   -0.0354990   -1.5825030  
C     4.6556150   -0.7157580   -0.5996360  
C     5.8869760   -1.0226790   -1.2310010  
N     5.8138300   -0.5586440   -2.5307510  
C     6.9247770   -1.6920550   -0.5691820  
C     6.7113370   -2.0552780    0.7508850  
O     7.6907010   -2.7027470    1.4454340  
C     5.4787970   -1.7588980    1.3951560  
O     5.4184430   -2.1925660    2.7056900  
C     4.4551850   -1.1014940    0.7406480  
H     6.5519630   -0.6222730   -3.2138570  
H     7.8724470   -1.9253910   -1.0437470  
H     7.3581070   -2.8395840    2.3494990  
H     4.6141870   -1.8495730    3.1229740  
H     3.5204150   -0.8807390    1.2499460  
H     4.3375000    0.4948960   -3.6880210  
C     1.4394920    0.0217390   -2.1867020  
C     0.3078350    0.6747920   -1.7736020  
C     0.6815050    1.5294180   -0.6813100  
C     2.0803520    1.3593990   -0.4970790  
N     2.5258280    0.4195130   -1.4209100  
C     2.8229570    2.0883860    0.4353830  
C     2.1297240    3.0184350    1.1960230  
O     2.7876110    3.7733880    2.1179370  
C     0.7327510    3.2110690    1.0406730  
O     0.2070920    4.1535660    1.9007940  
C    -0.0284950    2.4627100    0.1343450  
H    -0.6775360    0.5506920   -2.1966430  
H     3.8935810    1.9692380    0.5555210  
H     2.1094910    4.3671760    2.4947360  
H    -0.3767060    4.7342600    1.3645600  
H     1.5790750   -0.7167050   -2.9633230  
C    -3.4476670   -0.4517080   -0.0015590  
C    -2.1938310    0.1265710    0.1143060  
C    -2.3683850    1.5273400   -0.0230780  
C    -3.8437990    1.7051150   -0.2168590  
N    -4.4601060    0.5565610   -0.1959260  
C    -4.4492430    2.9928240   -0.3840790  
C    -3.6185590    4.0573570   -0.3077980  
O    -4.0184710    5.3256060   -0.4118560  
C    -2.1220330    3.9158950   -0.0620150  
O    -1.5255280    5.0080130    0.0505450  
C    -1.4970840    2.6080280    0.0213180  
H    -1.2609950   -0.3682590    0.3171890  
H    -5.5165640    3.0960470   -0.5417480  
H    -3.1972960    5.8589610   -0.2887410  
C    -1.2152740   -4.3826870   -0.0247650  
C    -1.5244140   -3.0428120   -0.0938610  
C    -2.9433300   -2.9225960    0.0576390  
C    -3.4445600   -4.2381080    0.2027940  
N    -2.3710130   -5.1031760    0.1624310  
C    -4.8088570   -4.5382570    0.3237510  
C    -5.7026240   -3.4839600    0.2791350  
O    -7.0403580   -3.7153110    0.3752810  
C    -5.2536820   -2.1433120    0.1351950  
O    -6.2574930   -1.2422390    0.1122410  
C    -3.8673780   -1.8203860    0.0540020  
H    -0.8083600   -2.2581090   -0.2815010  
H    -2.4311190   -6.1072280    0.2311180  
H    -5.1791680   -5.5527230    0.4340840  
H    -7.4743340   -2.8439150    0.3188650  
H    -5.8432310   -0.3336990   -0.0415170  
H    -0.2583280   -4.8791960   -0.0987090  
