62


C     5.8244250   -3.3232310   -1.3331220  
C     4.8156650   -2.4198280   -1.1194080  
C     5.3017210   -1.4658830   -0.1608000  
C     6.6297280   -1.8471270    0.1665750  
N     6.9183610   -2.9842580   -0.5590700  
C     7.4287000   -1.1283150    1.0627150  
C     6.8728420   -0.0015020    1.6465360  
O     7.6029770    0.7283300    2.5396810  
C     5.5466030    0.3982540    1.3418860  
O     5.1443850    1.5232790    2.0396510  
C     4.7449430   -0.3045020    0.4419800  
H     3.8443450   -2.4360040   -1.5938340  
H     7.7972280   -3.4771140   -0.5423020  
H     8.4443210   -1.4170300    1.3133500  
H     7.0387810    1.4606930    2.8421640  
H     4.2122010    1.7120150    1.8546640  
H     5.8557220   -4.1895330   -1.9786180  
C     2.2832170   -0.7204100    0.0903840  
C     3.3640590    0.1076140    0.1357900  
C     2.8777340    1.4297780   -0.2535770  
C     1.4254150    1.2848260   -0.5264890  
N     1.1071900   -0.0473930   -0.2766620  
C     0.6308390    2.2924070   -0.9773340  
C     1.2196730    3.6169510   -1.1741420  
O     0.5708870    4.5768570   -1.5593570  
C     2.7479420    3.7963140   -0.8720840  
O     3.2568700    4.8953790   -1.0179840  
C     3.5089180    2.6223150   -0.4286430  
H    -0.4090810    2.1584350   -1.2530780  
H     4.5760130    2.7463860   -0.2754480  
H     2.2390120   -1.7774480    0.3022210  
C    -2.9092860    1.0173140    1.0837760  
C    -3.6174580    0.0012430    0.5108190  
C    -2.6355850   -0.8352750   -0.1825110  
C    -1.3145620   -0.2067130    0.0489400  
N    -1.5425700    0.8937370    0.8409960  
C    -0.1369930   -0.6821010   -0.4646980  
C    -0.1829320   -1.9215770   -1.2571840  
O     0.8160880   -2.4475050   -1.7214980  
C    -1.5827710   -2.5971790   -1.4994210  
O    -1.6162590   -3.6253990   -2.1542510  
C    -2.7696620   -1.9738630   -0.9180350  
H    -3.7303710   -2.4418630   -1.1026950  
H    -3.2774690    1.8412310    1.6799340  
H    -0.8545090    1.6046050    1.0419150  
C    -6.9917020    2.7890710   -0.4643240  
C    -5.7523420    2.2354650   -0.2720710  
C    -5.9555510    0.8923240    0.1951000  
C    -7.3592550    0.6872090    0.2604000  
N    -7.9629250    1.8611010   -0.1411580  
C    -7.9336470   -0.5257120    0.6567990  
C    -7.0717510   -1.5548020    0.9989580  
O    -7.5770530   -2.7545800    1.4064130  
C    -5.6654540   -1.3740860    0.9466260  
O    -4.9559980   -2.4932060    1.3421010  
C    -5.0826950   -0.1723120    0.5465660  
H    -4.8080530    2.7264630   -0.4596040  
H    -8.9575280    2.0102740   -0.2067860  
H    -9.0059850   -0.6839880    0.7077410  
H    -6.8212020   -3.3273090    1.6234240  
H    -4.0162710   -2.2727830    1.4297420  
H    -7.2673840    3.7754070   -0.8096500  
