62


C    -5.2170470    0.2052290   -0.0178200  
C    -5.5674880   -1.1035180    0.2867940  
C    -6.9928190   -1.1961230    0.2328630  
C    -7.4755260    0.0945750   -0.1144960  
N    -6.3820470    0.9146860   -0.2709110  
C    -8.8406210    0.3791030   -0.2492310  
C    -9.7344380   -0.6563490   -0.0283480  
O   -11.0759940   -0.4345970   -0.1445770  
C    -9.2696480   -1.9545860    0.3196420  
O   -10.2836060   -2.8765810    0.5038430  
C    -7.9231980   -2.2340840    0.4503860  
H    -4.8914100   -1.8831160    0.6103140  
H    -6.3961480    1.9170570   -0.3878600  
H    -9.2136250    1.3633370   -0.5129040  
H   -11.5247120   -1.2735090    0.0579900  
H    -9.9036150   -3.7234740    0.7800740  
H    -7.5928400   -3.2359610    0.7183800  
C    -1.3132780   -1.5799070   -0.9667500  
C    -0.5493430   -0.4473880   -0.8010070  
C    -1.4359370    0.6299360   -0.4461690  
C    -2.7360170    0.0745220   -0.3982130  
N    -2.6274150   -1.2663840   -0.7148990  
C    -3.8982460    0.8282570   -0.1040440  
C    -3.6799520    2.1969060    0.0904930  
O    -4.7383380    3.0305810    0.3457460  
C    -2.3808500    2.7642200    0.0452750  
O    -2.3712970    4.1252090    0.2771580  
C    -1.2551310    2.0058390   -0.2077030  
H    -3.4218430   -1.8630450   -0.8926860  
H    -4.3713560    3.9187930    0.5037760  
H    -1.4591940    4.4345400    0.3812560  
H    -0.2684940    2.4602120   -0.2371720  
H    -1.0129360   -2.5832750   -1.2321170  
C     1.5149640   -0.5834790   -2.1968140  
C     2.8601940   -0.4455280   -2.0545200  
C     3.1188710   -0.1097740   -0.6744780  
C     1.7957890   -0.0823210   -0.0134440  
N     0.8482240   -0.3594740   -0.9932680  
C     1.5820980    0.1540150    1.3092850  
C     2.7399020    0.3930890    2.1482630  
O     2.6762370    0.6011980    3.3512190  
C     4.1659440    0.3767520    1.4783660  
O     5.1278730    0.5778990    2.2016560  
C     4.2903080    0.1359750    0.0169520  
H     3.5953600   -0.5849900   -2.8314540  
H     0.5954450    0.1580290    1.7584670  
H     0.9336730   -0.8278000   -3.0757580  
C     5.8398900    0.7088760   -1.8932420  
C     5.5869290    0.2196890   -0.6372500  
C     6.9244980   -0.2214470   -0.1623760  
C     7.8321130    0.0829680   -1.3046210  
N     7.1875180    0.6369680   -2.2992280  
C     9.2388990   -0.2113040   -1.2663960  
C     9.7320080   -0.8026140   -0.1519410  
O    11.0193120   -1.1421790    0.0214080  
C     8.8432080   -1.1389390    1.0110270  
O     9.3582300   -1.6866720    1.9842040  
C     7.4019670   -0.8063490    0.9524930  
H     9.8644250    0.0334960   -2.1176370  
H    11.0618700   -1.5469290    0.9159980  
H     6.8092520   -1.0284110    1.8308200  
H     5.1246030    1.1681270   -2.5644650  
