62


C    -3.1219200    1.1466570    1.3299200  
C    -1.8178110    0.8141490    1.0883140  
C    -1.8087950   -0.1510500    0.0274100  
C    -3.1628640   -0.3498780   -0.3509550  
N    -3.9598500    0.4417040    0.4726660  
C    -3.5522620   -1.1800010   -1.4098710  
C    -2.5417550   -1.8144850   -2.1147150  
O    -2.8456000   -2.6259720   -3.1641210  
C    -1.1774390   -1.6295210   -1.7727050  
O    -0.3054770   -2.3561680   -2.5557870  
C    -0.7809790   -0.8299090   -0.6894640  
H    -0.9635140    1.1931510    1.6275080  
H    -4.5874610   -1.3067320   -1.7066530  
H    -1.9876900   -2.9382790   -3.5095440  
H     0.4086860   -1.7533670   -2.8544380  
H    -3.5521940    1.8168160    2.0599390  
C     1.2619210   -1.2418450    3.1906770  
C     2.5540830   -0.9972530    2.8633390  
C     2.5492950   -0.7688060    1.4228870  
C     1.1168200   -0.8805070    1.0461070  
N     0.3768870   -1.1777490    2.0776400  
C     0.6436280   -0.7028170   -0.3300490  
C     1.6332030   -0.4636220   -1.2379720  
O     1.3872430   -0.2841860   -2.5715960  
C     3.0676270   -0.3398040   -0.9033020  
O     3.8411790   -0.0781770   -1.8322890  
C     3.5356330   -0.5396280    0.5052580  
H     3.4089790   -0.9588820    3.5225590  
H     2.2725070   -0.1089120   -2.9658750  
H     0.8481220   -1.4595190    4.1677050  
C     5.5609020   -1.3970000    1.7185000  
C     4.9554980   -0.5692130    0.8045340  
C     6.0750550    0.2374930    0.2683230  
C     7.2668640   -0.2594890    1.0203580  
N     6.9485110   -1.2207440    1.8508720  
C     8.5812530    0.2831240    0.8221650  
C     8.7196510    1.2896270   -0.0747110  
O     9.8795470    1.8929580   -0.3609070  
C     7.5378390    1.8251510   -0.8407560  
O     7.7403690    2.7443440   -1.6294130  
C     6.1970890    1.2398530   -0.6222020  
H     9.4189990   -0.1107930    1.3864440  
H     9.6648360    2.5753770   -1.0350760  
H     5.3827760    1.6383000   -1.2139920  
H     5.0790360   -2.1781510    2.2940250  
C    -6.6787750    3.8817090   -0.2842680  
C    -5.5633600    3.0998530   -0.1308540  
C    -6.0214190    1.7750460    0.1779890  
C    -7.4403960    1.8135280    0.1961480  
N    -7.8112610    3.1127230   -0.0868920  
C    -8.2314670    0.6846180    0.4440830  
C    -7.5763880   -0.5115130    0.6894640  
O    -8.2949610   -1.6433370    0.9440450  
C    -6.1585610   -0.5796550    0.6979430  
O    -5.6537850   -1.8256500    0.9883980  
C    -5.3791120    0.5439640    0.4402010  
H    -4.5375680    3.4240140   -0.2312200  
H    -8.7605000    3.4444260   -0.1525480  
H    -9.3162150    0.7126490    0.4466670  
H    -7.6553760   -2.3643330    1.0784930  
H    -4.6851400   -1.8130370    0.9106200  
H    -6.7647760    4.9325870   -0.5220360  
