60


C     5.1006310    0.7295030   -0.0463460  
C     6.1358320    1.5817710   -0.3991660  
C     7.3611160    0.8723100   -0.2408350  
C     7.0299210   -0.4325010    0.2212580  
N     5.6526520   -0.5077920    0.2943930  
C     7.9971950   -1.4002590    0.5083840  
C     9.3256590   -1.0510180    0.3152560  
O    10.3089340   -1.9535160    0.5802170  
C     9.6767590    0.2438660   -0.1638230  
O    11.0367540    0.4265870   -0.3089090  
C     8.7200140    1.1978580   -0.4444010  
H     6.0100610    2.5861870   -0.7797490  
H     5.1549990   -1.2123140    0.8181830  
H     7.7512470   -2.3951360    0.8648410  
H    11.1593020   -1.5253080    0.3787510  
H    11.2131470    1.3219690   -0.6338350  
H     9.0101790    2.1818670   -0.8065080  
C     3.0105310    2.1440590    0.1499930  
C     3.6813520    0.9662330   -0.0150100  
C     2.6038920   -0.0327850   -0.2047750  
C     1.3397840    0.7456830   -0.0930510  
N     1.6066670    2.0106820    0.0996310  
C     0.0178830    0.1269140   -0.2120940  
C     0.0255210   -1.2281600   -0.4921140  
O    -1.0534250   -1.9952820   -0.6544680  
C     1.2973820   -2.0079070   -0.6570720  
O     1.2013870   -3.2119510   -0.9075190  
C     2.5998840   -1.3415160   -0.5109080  
H    -0.6930960   -2.8934150   -0.8442460  
H     3.4867860   -1.9464660   -0.6712780  
H     3.4354250    3.1240290    0.3276230  
C    -1.1897810    0.9150860   -0.0471650  
C    -1.3011100    2.2641460    0.1754800  
C    -2.7165140    2.5336790    0.2582830  
C    -3.3599780    1.1940980    0.0812900  
N    -2.4811090    0.2634630   -0.1104100  
C    -4.8048030    1.0281080    0.0982760  
C    -5.5411690    2.1629790    0.2340240  
O    -6.8809310    2.1864620    0.2629190  
C    -4.9152090    3.5258690    0.4015720  
O    -5.6842210    4.4805390    0.5306890  
C    -3.4561130    3.6563870    0.4097560  
H    -0.4941790    2.9736830    0.2570890  
H    -7.1131200    3.1360790    0.3790890  
H    -3.0424900    4.6531720    0.5273510  
C    -4.5990560   -2.4897760    2.7124340  
C    -5.3056980   -3.4130540    2.0217460  
C    -5.7592390   -2.7187660    0.8200760  
C    -5.1874280   -1.3394040    0.9590200  
N    -4.5274960   -1.2091480    2.0705300  
C    -5.4135670   -0.3107460   -0.0430300  
C    -6.2133960   -0.6486430   -1.0901150  
O    -6.5229470    0.1867840   -2.0933650  
C    -6.8089050   -2.0217870   -1.2437360  
O    -7.5055590   -2.2308240   -2.2362070  
C    -6.5388120   -3.0526810   -0.2255000  
H    -5.5135200   -4.4396970    2.2894630  
H    -7.0983690   -0.3359500   -2.6948970  
H    -6.9952990   -4.0270200   -0.3715960  
H    -4.1014690   -2.6097870    3.6676200  
