64


C    -3.4777080    0.1567580   -1.8065400  
C    -3.0142070   -0.6222390   -0.7671530  
C    -4.1918210   -1.1911550   -0.1387430  
C    -5.3228120   -0.7163540   -0.8517520  
N    -4.8548320    0.1044780   -1.8579710  
C    -6.6360490   -1.0566930   -0.5040070  
C    -6.8128110   -1.8910810    0.5883020  
O    -8.0702640   -2.2576360    0.9678290  
C    -5.6935580   -2.3670160    1.3237780  
O    -6.0334590   -3.1785420    2.3884200  
C    -4.3985620   -2.0286380    0.9795670  
H    -5.4292470    0.5703210   -2.5428970  
H    -7.5026260   -0.6938580   -1.0472970  
H    -7.9802910   -2.8282900    1.7506350  
H    -5.2306180   -3.4547810    2.8549470  
H    -3.5583490   -2.3963210    1.5634600  
H    -2.9172980    0.7268380   -2.5336740  
C     0.4091200    2.2230530    0.0352420  
C    -0.8302230    1.6676180   -0.2537000  
C    -0.6945720    0.2445260   -0.2052750  
C     0.6573010   -0.0264510    0.1306090  
N     1.2971880    1.1826440    0.2587640  
C     1.1776730   -1.3279600    0.3010310  
C     0.2652200   -2.3665020    0.1065110  
O     0.6683900   -3.6632060    0.2576950  
C    -1.0861120   -2.1144130   -0.2388920  
O    -1.8303100   -3.2678790   -0.4058750  
C    -1.6023770   -0.8303400   -0.3960840  
H    -1.7582230    2.2063680   -0.3779630  
H     2.2610580    1.3245570    0.5195240  
H    -0.0975240   -4.2227810    0.0374110  
H    -2.7115510   -3.0284180   -0.7392730  
C     3.2438540   -0.9443320    1.7072520  
C     2.5808110   -1.5584200    0.6845530  
C     3.5595530   -2.4336170    0.0359570  
C     4.8326980   -2.2713390    0.7813770  
N     4.5747050   -1.3497960    1.7739450  
C     5.9883210   -2.9238790    0.4903700  
C     5.9994870   -3.8408830   -0.6419320  
O     6.9886060   -4.4728740   -0.9842300  
C     4.6676770   -4.0119900   -1.4617080  
O     4.6582220   -4.7662850   -2.4220830  
C     3.4823530   -3.2571050   -1.0395760  
H     6.9065250   -2.7905350    1.0544900  
H     2.5650740   -3.4018000   -1.5980760  
H     2.8623990   -0.2311260    2.4267320  
H     5.2351340   -1.0613110    2.4781380  
C    -1.2914840    5.8263230   -1.8498540  
C    -0.4478160    6.7486820   -1.2903240  
C     0.4744460    6.0264740   -0.4599690  
C     0.1250460    4.6542480   -0.5459590  
N    -0.9659820    4.5649220   -1.3862710  
C     0.8274320    3.6207910    0.1206170  
C     1.9440880    4.0425670    0.8541490  
O     2.7314630    3.1251860    1.5155860  
C     2.3008720    5.4083750    0.9539990  
O     3.4204590    5.6280390    1.7395800  
C     1.5813840    6.4046320    0.3235010  
H    -0.4757210    7.8178470   -1.4495310  
H    -1.3130830    3.6940220   -1.7572150  
H     3.4364460    3.6341190    1.9539680  
H     3.6198960    6.5753450    1.7604240  
H     1.8770310    7.4474050    0.4168520  
H    -2.1147900    5.9604100   -2.5373820  
