62


C    -4.1009450   -0.3397530    0.1199740  
C    -4.5629900    0.1513260   -1.0784590  
C    -5.7359220    0.9374080   -0.8172710  
C    -5.9590980    0.8972120    0.5803920  
N    -4.9928240    0.0624790    1.1386620  
C    -7.0081920    1.5819820    1.1989030  
C    -7.8598670    2.3178370    0.3859400  
O    -8.8981130    3.0100530    0.9394000  
C    -7.6650630    2.3523480   -1.0190380  
O    -8.5997310    3.1154360   -1.6934470  
C    -6.6234100    1.6732110   -1.6260690  
H    -4.1410620   -0.0767200   -2.0474070  
H    -4.6638230    0.1939130    2.0875770  
H    -7.1797170    1.5571200    2.2702740  
H    -9.3698210    3.4503400    0.2115220  
H    -8.3993900    3.1075740   -2.6409950  
H    -6.4919290    1.7177030   -2.7054240  
C     0.0587590   -0.5267810   -1.5242260  
C    -1.2350420   -0.1794240   -1.2567940  
C    -1.7285960   -1.0968990   -0.2679460  
C    -0.6727060   -1.9918560    0.0332590  
N     0.4237910   -1.6324220   -0.7524360  
C    -0.7766470   -2.9853060    1.0119930  
C    -1.9835940   -3.0861260    1.6854060  
O    -2.1506990   -4.0492100    2.6375770  
C    -3.0594080   -2.2114640    1.3956390  
O    -4.1946000   -2.4606830    2.1435800  
C    -2.9641720   -1.2095950    0.4241400  
H    -1.7751940    0.6395530   -1.7083810  
H     0.0219570   -3.6814450    1.2355020  
H    -3.0764950   -3.9956650    2.9329310  
H    -4.9424300   -1.9721040    1.7535130  
H     0.7605080   -0.1127820   -2.2343450  
C     4.3026650    0.2243680   -0.1849600  
C     5.0823650   -0.9004910   -0.3798570  
C     4.2118130   -2.0145440   -0.6198360  
C     2.8370740   -1.4721400   -0.5584510  
N     2.9567400   -0.1289340   -0.2927940  
C     1.7054650   -2.2170580   -0.7431350  
C     1.8753050   -3.6518740   -1.0436980  
O     0.9401680   -4.3932480   -1.2892450  
C     3.3361810   -4.2446470   -1.0573030  
O     3.4668430   -5.4476210   -1.2327620  
C     4.4562930   -3.3379970   -0.8549640  
H     6.1594670   -0.9333230   -0.4207150  
H     5.4591070   -3.7517270   -0.8921700  
H     2.2148710    0.5602730   -0.2922320  
C     8.0295630    2.0605040    1.4351050  
C     7.0479010    1.1844700    1.0734130  
C     5.9461440    1.9534710    0.5576960  
C     6.3629500    3.3716220    0.6610840  
N     7.6478290    3.3620080    1.1728010  
C     5.6075730    4.4424610    0.3063780  
C     4.2618850    4.1902080   -0.1821020  
O     3.5016100    5.0695560   -0.5517800  
C     3.7547860    2.7036400   -0.2225200  
O     2.5712690    2.5281600   -0.4788010  
C     4.7033850    1.5984870    0.0571160  
H     7.0848510    0.1152780    1.2027990  
H     5.9542350    5.4691390    0.3670840  
H     8.9965440    1.8570540    1.8757510  
H     8.1788630    4.1867580    1.4060570  
