64


C     0.5889470    1.2662890   -0.0700090  
C     1.6615500    0.3884900    0.0410490  
C     2.8665180    1.1582700    0.0200990  
C     2.4739910    2.5208310   -0.0859230  
N     1.1018310    2.5522370   -0.1578920  
C     3.3922100    3.5770790   -0.0797690  
C     4.7286930    3.2408800    0.0604410  
O     5.6801240    4.2126240    0.1004140  
C     5.1503710    1.8838420    0.1584280  
O     6.5177120    1.7335310    0.2540390  
C     4.2486030    0.8209870    0.1090130  
H     1.5989250   -0.6716420    0.2346920  
H     0.5132690    3.3729250   -0.1384620  
H     3.0963740    4.6182400   -0.1534750  
H     6.5267870    3.7425200    0.2259540  
H     6.6956390    1.0541390    0.9400390  
C    -1.5966190   -2.3962370   -1.1663200  
C    -2.8658040   -1.9458910   -0.9050460  
C    -2.7506650   -0.5892310   -0.4356240  
C    -1.3669520   -0.2777970   -0.4353830  
N    -0.6914830   -1.4034330   -0.8636350  
C    -0.8421510    0.9962700   -0.1048950  
C    -1.8176300    1.9698700    0.1443770  
O    -1.4541350    3.2622760    0.4128420  
C    -3.2058680    1.6859980    0.1601100  
O    -3.9730410    2.7752840    0.4916750  
C    -3.7126360    0.4036050   -0.0735400  
H    -3.7769330   -2.5011820   -1.0743950  
H     0.2913130   -1.4209320   -1.0911530  
H    -2.2982320    3.7448330    0.5286820  
H    -4.7812920    2.7444820   -0.0793810  
H    -1.2592840   -3.3494130   -1.5482170  
C     3.2044370   -2.4600580   -2.6549870  
C     3.9463830   -3.4549670   -2.0712780  
C     4.6101740   -2.8751410   -0.9385650  
C     4.2171800   -1.5113690   -0.8783070  
N     3.3626530   -1.2896560   -1.9384840  
C     4.6896250   -0.5965580    0.0937020  
C     5.6111590   -1.1297090    0.9932230  
O     6.1678130   -0.3177280    1.9653440  
C     6.0176730   -2.4852240    0.9550480  
O     6.9307690   -2.8156260    1.9415210  
C     5.5259580   -3.3662310    0.0126210  
H     4.0244360   -4.4770370   -2.4156970  
H     2.9350000   -0.3991740   -2.1433650  
H     6.7710170   -0.8749420    2.4901560  
H     7.1762190   -3.7486280    1.8576510  
H     5.8536940   -4.4035210   -0.0023600  
H     2.5787090   -2.4819650   -3.5365450  
C    -5.6517850   -2.9557180    1.9715640  
C    -6.9509620   -2.7245170    1.6522180  
C    -6.9870880   -1.5114440    0.8634680  
C    -5.5810230   -1.0546450    0.7411490  
N    -4.8297070   -1.9617250    1.4514470  
C    -5.1467830    0.0655220    0.0624950  
C    -6.2184830    0.8995640   -0.4830560  
O    -6.0396300    2.0214740   -0.9626530  
C    -7.7088650    0.3880650   -0.4560900  
O    -8.5515400    1.0492560   -1.0416080  
C    -8.0113520   -0.8280640    0.2847120  
H    -7.8033070   -3.3208360    1.9429850  
H    -9.0448750   -1.1555800    0.3309950  
H    -5.2179390   -3.7579680    2.5536460  
H    -3.8199590   -1.9815680    1.4360680  
