62


C    -5.5840770   -0.8121950    2.2295150  
C    -6.8804440   -1.1462820    1.9814330  
C    -7.0814230   -1.0748480    0.5583870  
C    -5.8535310   -0.6687400   -0.0191740  
N    -4.9341370   -0.4991020    1.0283570  
C    -5.6776540   -0.5713260   -1.4028620  
C    -6.7703130   -0.8514500   -2.2127380  
O    -6.6447960   -0.7584970   -3.5706040  
C    -8.0107010   -1.2348110   -1.6491760  
O    -9.0032680   -1.4791190   -2.5796130  
C    -8.1744750   -1.3532310   -0.2788780  
H    -7.6145940   -1.4216840    2.7263850  
H    -4.7436000   -0.2762810   -1.8609020  
H    -7.5066590   -0.9937320   -3.9547050  
H    -9.8157740   -1.7410240   -2.1222070  
H    -9.1289070   -1.6705360    0.1369730  
H    -5.0353810   -0.7671330    3.1556090  
C    -1.4636500   -2.0590260    3.0750150  
C    -0.4721210   -1.3113490    2.5321370  
C    -1.1336790   -0.4178260    1.5868520  
C    -2.5676730   -0.7713480    1.7107610  
N    -2.7544770   -1.7357970    2.5691960  
C    -3.5990500   -0.0926460    0.9313600  
C    -3.1806120    0.9404300    0.1398410  
O    -4.0223680    1.7234490   -0.5685120  
C    -1.7525960    1.3115470    0.0006670  
O    -1.4955610    2.2758880   -0.7273910  
C    -0.6872300    0.5472920    0.7308380  
H     0.5821890   -1.3343340    2.7664040  
H    -3.4375920    2.3561660   -1.0405940  
H    -1.3836420   -2.8317610    3.8297890  
C     1.6440290   -0.2162210    0.3737590  
C     0.7222580    0.8011840    0.4633130  
C     1.4598740    2.0424070    0.2601850  
C     2.8185370    1.7007960    0.0724260  
N     2.9122860    0.2842360    0.1277360  
C     3.8184890    2.6606750   -0.0986050  
C     3.4333870    3.9953420   -0.0819830  
O     4.3717110    4.9658660   -0.2531450  
C     2.0779970    4.3545420    0.1090360  
O     1.8473820    5.7122410    0.1011070  
C     1.0942780    3.3967760    0.2834010  
H     4.8532500    2.3887200   -0.2454660  
H     3.9129980    5.8234830   -0.2253240  
H     0.8957080    5.8823560    0.1672520  
H     0.0569900    3.6884050    0.4022950  
H     1.4729470   -1.2800790    0.4033210  
C     4.0177620   -0.5202850   -0.0397740  
C     4.0809710   -1.8947120    0.0605890  
C     5.4444220   -2.2201460   -0.2098090  
C     6.1055930   -0.8887630   -0.4612890  
N     5.2557690    0.0956700   -0.3565570  
C     7.5007670   -0.7799530   -0.7736080  
C     8.2099930   -1.9334120   -0.8327740  
O     9.5118330   -2.0038640   -1.1093800  
C     7.5749270   -3.2974890   -0.5830260  
O     8.3334180   -4.2670510   -0.6677720  
C     6.1603150   -3.3777890   -0.2702030  
H     3.2912720   -2.5918740    0.2957670  
H     7.9512220    0.1899710   -0.9514270  
H     9.7236940   -2.9678000   -1.0764420  
H     5.7367490   -4.3620760   -0.0990830  
