60


C    -6.5776770   -2.4886890    2.7427000  
C    -5.4532120   -1.8862670    2.2411710  
C    -5.7312590   -1.5374520    0.8752270  
C    -7.0613300   -1.9548060    0.6067020  
N    -7.5478710   -2.5373430    1.7592790  
C    -7.6879680   -1.7509180   -0.6281300  
C    -6.9523740   -1.1128460   -1.6131680  
O    -7.5088370   -0.8885170   -2.8384920  
C    -5.6154470   -0.6981130   -1.3755120  
O    -5.0173660   -0.1357160   -2.4885320  
C    -4.9826660   -0.8965150   -0.1481770  
H    -4.5413020   -1.6971120    2.7894280  
H    -8.4776490   -2.9085350    1.8746220  
H    -8.7077230   -2.0602600   -0.8331040  
H    -6.8454110   -0.4095610   -3.3657560  
H    -4.2089020    0.3365040   -2.2341580  
H    -6.7734810   -2.8889910    3.7274040  
C    -2.5773430   -1.2711510    0.5675080  
C    -3.5820280   -0.4899630    0.0697490  
C    -2.9838410    0.8172530   -0.1870110  
C    -1.5518360    0.7094730    0.1808540  
N    -1.3715840   -0.5863820    0.6223770  
C    -0.6429580    1.7260650    0.1148020  
C    -1.1296720    3.0207920   -0.4119430  
O    -0.3844520    3.9568790   -0.6388250  
C    -2.6565270    3.1722660   -0.7470540  
O    -3.0726110    4.2619880   -1.1053470  
C    -3.5163570    1.9940980   -0.6248380  
H    -4.5744970    2.1177300   -0.8359710  
H    -2.6276270   -2.3048990    0.8825850  
H    -0.5168720   -0.9339430    1.0296430  
C     2.6997830   -0.8727850   -1.2533280  
C     1.4987980   -0.2633910   -1.0907460  
C     1.6429390    0.7014880   -0.0204900  
C     3.0491050    0.6040030    0.4318740  
N     3.6519170   -0.3847390   -0.3530560  
C     3.6123650    1.3972130    1.3748520  
C     2.7751170    2.4058450    2.0169830  
O     3.2005500    3.1937360    2.8461270  
C     1.2578160    2.4720670    1.6237370  
O     0.5190500    3.2036330    2.2561640  
C     0.7645200    1.5982410    0.5267560  
H     0.6049490   -0.4538330   -1.6656880  
H     4.6524810    1.3297340    1.6723070  
H     2.9882490   -1.6518940   -1.9463230  
C     6.9449250   -0.5898330   -3.2342760  
C     5.7586570   -0.3253080   -2.6215020  
C     5.8490250   -0.8482290   -1.2789600  
C     7.1981320   -1.4510610   -1.1542200  
N     7.8045730   -1.2687540   -2.3837000  
C     7.6917920   -2.0307760   -0.0306810  
C     6.8368120   -2.0858080    1.1491450  
O     7.1962140   -2.5481300    2.2191920  
C     5.3717940   -1.5224620    1.0362850  
O     4.6067360   -1.6653140    1.9726610  
C     4.9719220   -0.8655340   -0.2281650  
H     4.9194170    0.1990700   -3.0528920  
H     8.6906950   -2.4494620    0.0379030  
H     7.2653820   -0.3406860   -4.2372520  
H     8.7527290   -1.5332110   -2.6014860  
