62


C    -5.7449290    0.6666730   -2.2999620  
C    -7.1037620    0.7637140   -2.1835040  
C    -7.4500320    0.3308360   -0.8584820  
C    -6.2435660   -0.0289470   -0.2069950  
N    -5.1996450    0.1812620   -1.1081530  
C    -6.2058150   -0.4659250    1.1219000  
C    -7.4123370   -0.5591790    1.7977890  
O    -7.4327940   -0.9882030    3.0936480  
C    -8.6322870   -0.2139290    1.1581510  
O    -9.7463800   -0.3601230    1.9629620  
C    -8.6637130    0.2283480   -0.1512160  
H    -7.7841730    1.0853880   -2.9604720  
H    -5.2871040   -0.7486770    1.6208040  
H    -8.3631010   -1.0032210    3.3770490  
H   -10.5434050   -0.1569660    1.4515940  
H    -9.6082530    0.4968370   -0.6204810  
H    -5.0990350    0.8414620   -3.1489870  
C    -2.0549140    3.1264400   -1.5523050  
C    -1.0024590    2.3268890   -1.1805510  
C    -1.5384910    1.0393020   -0.8399000  
C    -2.9383830    1.1262500   -1.0487490  
N    -3.2262540    2.4062560   -1.4684540  
C    -3.8161170    0.0447260   -0.8623280  
C    -3.2401160   -1.1674110   -0.4777460  
O    -4.0162640   -2.2646550   -0.3075850  
C    -1.8415110   -1.2855330   -0.2701600  
O    -1.4698910   -2.5441170    0.1274840  
C    -0.9621770   -0.1982490   -0.4056980  
H     0.0337110    2.6288210   -1.1562500  
H    -4.1535500    2.7429530   -1.6805550  
H    -3.3999530   -2.9893560   -0.0819800  
H    -0.6398120   -2.7704300   -0.3540170  
H    -2.0644340    4.1584260   -1.8728860  
C     1.7307140    2.3320440    2.0455210  
C     0.6573270    1.7334040    1.4721750  
C     1.1514270    0.6578340    0.6417200  
C     2.6171250    0.6884610    0.7667450  
N     2.9125520    1.7398410    1.5930500  
C     3.5056410   -0.1853340    0.1579570  
C     2.8822870   -1.3199320   -0.5161820  
O     3.4972720   -2.2664290   -0.9952260  
C     1.3109640   -1.3912520   -0.6186730  
O     0.8614450   -2.4183650   -1.1194780  
C     0.4776070   -0.2866280   -0.1144240  
H    -0.3788430    1.9932280    1.6189140  
H     1.7754240    3.1502170    2.7510890  
H     3.8225160    1.8672540    2.0133790  
C     4.9448520   -0.0304060    0.1995720  
C     5.7167560    1.0769580    0.5096340  
C     7.0977880    0.7064030    0.3812200  
C     7.1026970   -0.7192040   -0.0323730  
N     5.7816080   -1.1013040   -0.1089600  
C     8.2268330   -1.4415930   -0.2708090  
C     9.5216610   -0.7855220   -0.1117740  
O    10.5851680   -1.3559690   -0.3038570  
C     9.5402730    0.7248780    0.3279640  
O    10.6173270    1.2870850    0.4679250  
C     8.2621050    1.3956720    0.5537770  
H     5.3620350    2.0801830    0.6930580  
H     8.2118000   -2.4835830   -0.5746950  
H     8.2872520    2.4389210    0.8545410  
H     5.4113260   -1.9663660   -0.4832180  
