60


C    -4.9921150    0.0199180   -2.4058960  
C    -6.0506840    0.8059660   -2.7493060  
C    -6.6887390    1.2267890   -1.5306290  
C    -5.9698770    0.6442450   -0.4579970  
N    -4.9257670   -0.1078530   -1.0140870  
C    -6.2873170    0.8989170    0.8798740  
C    -7.3679380    1.7316760    1.1374120  
O    -7.7188720    2.0017480    2.4300630  
C    -8.1091760    2.3059760    0.0763320  
O    -9.1548450    3.1100680    0.4892060  
C    -7.7798120    2.0661590   -1.2471660  
H    -6.3455710    1.0629120   -3.7576350  
H    -5.7435890    0.4670230    1.7094770  
H    -8.4951110    2.5868480    2.4002960  
H    -9.6282370    3.4464700   -0.2858450  
H    -8.3495200    2.5306600   -2.0497680  
H    -4.2594630   -0.4776630   -3.0206120  
C    -0.6612290   -0.1453020   -1.5660080  
C    -0.2319800   -1.0208800   -0.6035700  
C    -1.4884040   -1.4693970    0.0455110  
C    -2.5547700   -0.7245750   -0.6741150  
N    -2.0592080    0.0336310   -1.6147390  
C    -3.9629080   -0.8614130   -0.3276720  
C    -4.2670830   -1.7264070    0.6872630  
O    -5.5212010   -1.9897560    1.0952230  
C    -3.2129630   -2.4611780    1.4331970  
O    -3.5687520   -3.2203870    2.3366650  
C    -1.7878940   -2.3000290    1.0593050  
H    -5.4193970   -2.6356890    1.8295490  
H    -1.0635120   -2.8926370    1.6038770  
H    -0.0552730    0.3636920   -2.3074880  
C     3.3257430    1.4892040   -0.4828430  
C     4.2960590    0.5631910   -0.1982450  
C     3.6043230   -0.7248060   -0.0776610  
C     2.1727710   -0.4514580   -0.3280570  
N     2.0857330    0.9018430   -0.5936180  
C     1.1466060   -1.3656140   -0.2769250  
C     1.5365260   -2.7383550    0.1095430  
O     0.7360800   -3.6502160    0.2362870  
C     3.0547180   -3.0521620    0.3726000  
O     3.3619080   -4.1908890    0.6840400  
C     4.0312320   -1.9725160    0.2499680  
H     5.0719290   -2.2166290    0.4214340  
H     3.4425010    2.5506040   -0.6552410  
H     1.2122760    1.3917420   -0.7235590  
C     6.5217730    3.8963670    1.7615980  
C     5.5153460    3.0695760    1.3852690  
C     6.1594990    2.0068090    0.6189200  
C     7.6038980    2.3711700    0.6516390  
N     7.8097860    3.4774350    1.3115120  
C     8.6107450    1.5560940    0.0212160  
C     8.2048220    0.4280850   -0.6033870  
O     9.0340870   -0.4329810   -1.2176060  
C     6.7552690    0.0341170   -0.6692570  
O     6.4833200   -0.9947000   -1.2836060  
C     5.7090180    0.8935910   -0.0264940  
H     4.4661870    3.1493260    1.6309610  
H     9.6536880    1.8490270    0.0665940  
H     8.4599840   -1.1364810   -1.5900820  
H     6.4527490    4.7997570    2.3559050  
