64


C    -0.3906260    0.1973290   -0.7033980  
C    -0.2068710   -0.9682750   -1.4095670  
C    -1.4465770   -1.6935040   -1.4057730  
C    -2.3774560   -0.9155100   -0.6814400  
N    -1.7427690    0.2665880   -0.2993970  
C    -3.7016210   -1.3117150   -0.4232890  
C    -4.0775370   -2.5535420   -0.9436660  
O    -5.3469880   -3.0078810   -0.7669910  
C    -3.1594590   -3.3426500   -1.6858710  
O    -3.6971060   -4.5312840   -2.1425680  
C    -1.8614700   -2.9319860   -1.9298240  
H     0.7020590   -1.2513270   -1.9217590  
H    -2.0052580    0.7190680    0.5699580  
H    -5.3902320   -3.8966200   -1.1609210  
H    -2.9959750   -5.0748860   -2.5312680  
H    -1.1804720   -3.5596030   -2.5006110  
C     4.0264680    0.3431880    0.1309580  
C     2.7230720   -0.0607760   -0.1009750  
C     1.9113640    1.1073850   -0.2199370  
C     2.7615910    2.2253260   -0.0250160  
N     4.0597400    1.7544270    0.1215010  
C     2.2962740    3.5409370    0.0000580  
C     0.9354310    3.7303400   -0.1970220  
O     0.4213290    4.9902320   -0.1985500  
C     0.0625340    2.6328620   -0.4218140  
O    -1.2429100    3.0190050   -0.6342000  
C     0.5184460    1.3107920   -0.4408660  
H     2.4067290   -1.0878660   -0.1732150  
H     4.7368590    2.2562030    0.6820010  
H     2.9426440    4.3980130    0.1576850  
H    -0.5334050    4.9050900   -0.3726470  
H    -1.7823290    2.2440110   -0.8826700  
C    -5.2200150    2.7123040   -1.3794210  
C    -5.9777300    2.9077320   -0.2555790  
C    -5.8473680    1.7280080    0.5550980  
C    -4.9822380    0.8441050   -0.1372910  
N    -4.5921910    1.4783980   -1.3028450  
C    -4.6318290   -0.4380610    0.3354670  
C    -5.1886000   -0.8133590    1.5586300  
O    -4.8803580   -2.0229940    2.1033040  
C    -6.0547040    0.0615720    2.2669790  
O    -6.5090270   -0.4623270    3.4645260  
C    -6.3854900    1.3155000    1.7898600  
H    -6.5585550    3.7908510   -0.0266970  
H    -4.1150340    1.0157310   -2.0619030  
H    -5.3819020   -2.0986360    2.9334420  
H    -7.1166170    0.1663480    3.8808930  
H    -7.0507510    1.9635050    2.3573190  
H    -5.0563040    3.3567620   -2.2316770  
C     8.2633340    1.3833870   -0.4405300  
C     8.8285210    0.2302380    0.0017390  
C     7.7555560   -0.6669330    0.3724730  
C     6.5055390    0.0696400    0.1267860  
N     6.8770260    1.3375710   -0.3228150  
C     5.2359920   -0.4265890    0.3125680  
C     5.1659200   -1.8570520    0.7202940  
O     4.1189880   -2.4732810    0.8084020  
C     6.5009030   -2.6284530    1.0582520  
O     6.4036880   -3.7757150    1.4720260  
C     7.7639450   -1.9485840    0.8458060  
H     9.8856780    0.0158330    0.0649880  
H     8.6804030   -2.4922310    1.0518090  
H     8.7379770    2.2776880   -0.8230220  
H     6.2491250    1.9052110   -0.8765390  
