62


C     2.5695410   -1.6047810   -1.6159660  
C     2.6800430   -2.9505470   -1.4009350  
C     3.7081110   -3.1410290   -0.4167230  
C     4.1869420   -1.8526390   -0.0625670  
N     3.4778250   -0.9164830   -0.8124420  
C     5.1861500   -1.6572320    0.9048750  
C     5.7230520   -2.7871680    1.5071330  
O     6.6950930   -2.6517460    2.4529220  
C     5.2649200   -4.0834510    1.1535860  
O     5.8980910   -5.1027690    1.8367480  
C     4.2679680   -4.2691640    0.2127120  
H     2.1024100   -3.7207910   -1.8936000  
H     5.5159820   -0.6739950    1.2233860  
H     6.9230080   -3.5449010    2.7641100  
H     5.5131350   -5.9542350    1.5817020  
H     3.9238840   -5.2720270   -0.0326330  
H     1.9385430   -1.0501320   -2.2952300  
C     0.6728320    2.4819100   -0.1031510  
C     1.2510230    1.2068580   -0.2280830  
C     2.6077580    1.3825830   -0.5766710  
C     2.8464780    2.7900390   -0.6510480  
N     1.6647440    3.4172970   -0.3675830  
C     4.1032410    3.3287170   -0.9413630  
C     5.1379460    2.4329580   -1.1667490  
O     6.3807460    2.8922110   -1.4528600  
C     4.9270090    1.0200800   -1.1248650  
O     6.0473830    0.2860030   -1.4260860  
C     3.6806480    0.4879870   -0.8321650  
H     0.7703840    0.2651210   -0.0200610  
H     1.4860850    4.4095250   -0.2581150  
H     4.2930910    4.3954180   -0.9833080  
H     6.9606170    2.1155080   -1.5547140  
H     5.9316520   -0.6391390   -1.1464890  
C    -3.2278020    0.2604880    0.2007100  
C    -1.9158100    0.6439980   -0.0537840  
C    -1.7520060    2.0045860    0.3147040  
C    -3.0677860    2.4509990    0.8103450  
N    -3.9225410    1.3693450    0.6912450  
C    -3.3586510    3.6894280    1.2902450  
C    -2.3135720    4.6897030    1.2598130  
O    -2.4471960    5.8339140    1.6675460  
C    -0.9265200    4.2899870    0.6375020  
O    -0.1105900    5.1950380    0.4919470  
C    -0.6600220    2.8791030    0.2646270  
H    -1.1921860    0.0175210   -0.5493460  
H    -4.3352540    3.9680760    1.6728920  
H    -4.7923330    1.3020710    1.1982590  
C    -3.2419770   -2.2345420   -0.1491920  
C    -3.8521830   -1.0028490   -0.0004640  
C    -5.2979050   -1.3076730   -0.1000410  
C    -5.3398640   -2.7765340   -0.2963010  
N    -4.1251440   -3.2927670   -0.3264400  
C    -6.5733210   -3.4824350   -0.4511150  
C    -7.7273320   -2.7626010   -0.4337390  
O    -8.9496240   -3.3016650   -0.5671160  
C    -7.7224350   -1.2765820   -0.2706940  
O    -8.8049660   -0.6857530   -0.2703380  
C    -6.4319230   -0.5749620   -0.1144260  
H    -6.5699780   -4.5582610   -0.5868440  
H    -9.5746420   -2.5446690   -0.5233970  
H    -6.4795000    0.5068200   -0.0381870  
H    -2.1778910   -2.4369400   -0.1112490  
