66


C     3.6099790   -1.5901060   -2.4587470  
C     3.5994260   -1.0353060   -1.2006620  
C     4.7410190   -1.5505820   -0.4893500  
C     5.4117110   -2.4219300   -1.3838780  
N     4.6964900   -2.4335830   -2.5662280  
C     6.5785620   -3.1114140   -1.0286040  
C     7.0716810   -2.9160050    0.2514270  
O     8.2081630   -3.5583310    0.6484730  
C     6.4057400   -2.0497710    1.1612760  
O     7.0168670   -1.9668820    2.3977850  
C     5.2544290   -1.3717490    0.8105400  
H     4.9381890   -2.9649390   -3.3876150  
H     7.0997800   -3.7772100   -1.7089150  
H     8.3907360   -3.2790060    1.5623180  
H     6.5586090   -1.3081990    2.9405280  
H     4.7589650   -0.7122340    1.5186970  
H     2.9254630   -1.4431590   -3.2814010  
C     1.2547970   -0.4408690   -0.6249630  
C     0.5629150    0.6318330   -0.1135890  
C     1.5506810    1.6529050    0.1564300  
C     2.8129760    1.1314740   -0.2231500  
N     2.6131230   -0.1613060   -0.6958110  
C     3.9998990    1.8671340   -0.1066910  
C     3.9121130    3.1438920    0.4269150  
O     5.0406270    3.9030670    0.5688560  
C     2.6599440    3.6727060    0.8350140  
O     2.7338210    4.9533080    1.3566830  
C     1.4888080    2.9485320    0.7069200  
H     4.9627180    1.4733440   -0.4120040  
H     4.7668380    4.7482530    0.9645310  
H     1.8578090    5.2201990    1.6720830  
H     0.5391460    3.3713230    1.0272040  
H     0.8897590   -1.4026930   -0.9560950  
C    -1.6404050   -0.2501670    0.7692450  
C    -0.8806040    0.6962590    0.1283490  
C    -1.7938320    1.7472650   -0.2788770  
C    -3.0934230    1.3822770    0.1444730  
N    -2.9749050    0.1516910    0.7803690  
C    -4.2271700    2.1645580   -0.0932180  
C    -4.0413820    3.3506600   -0.7881250  
O    -5.1086970    4.1595450   -1.0520360  
C    -2.7488790    3.7321020   -1.2356000  
O    -2.7255810    4.9355370   -1.9184920  
C    -1.6338340    2.9504980   -0.9938750  
H    -5.2193640    1.8722080    0.2319390  
H    -4.7759960    4.9107980   -1.5728070  
H    -1.8436540    5.0729880   -2.2947240  
H    -0.6534370    3.2564520   -1.3513650  
H    -1.3563640   -1.1784400    1.2429220  
C    -4.4316360   -0.4103500    2.6700580  
C    -5.4673440   -1.2732040    2.8923270  
C    -5.7037870   -1.9911500    1.6674510  
C    -4.7697260   -1.5187160    0.7133350  
N    -4.0014840   -0.5505990    1.3516370  
C    -4.7030290   -1.9958130   -0.5988370  
C    -5.6096270   -2.9815490   -0.9583870  
O    -5.5958150   -3.4896000   -2.2253720  
C    -6.5567690   -3.4721630   -0.0202600  
O    -7.3891680   -4.4522720   -0.5294290  
C    -6.6138350   -2.9928960    1.2755470  
H    -6.0056240   -1.3880210    3.8233460  
H    -3.9858460   -1.6236350   -1.3217890  
H    -6.3058670   -4.1523740   -2.2763260  
H    -8.0213610   -4.7241230    0.1519830  
H    -7.3485890   -3.3851770    1.9761980  
H    -3.9425850    0.3051070    3.3147860  
