62


C    -2.8804680   -3.2411000    0.9696630  
C    -1.6995790   -2.6035550    0.6799160  
C    -2.0362530   -1.3088740    0.1667260  
C    -3.4554340   -1.2152170    0.1815630  
N    -3.9358480   -2.4155510    0.6576070  
C    -4.1834080   -0.0852190   -0.2528710  
C    -3.3872270    0.9595520   -0.7317010  
O    -3.9855720    2.0957810   -1.2397610  
C    -1.9794570    0.9026430   -0.7445360  
O    -1.3862100    2.0495690   -1.2582990  
C    -1.2615140   -0.2070100   -0.2913410  
H    -0.7097570   -3.0114500    0.8213110  
H    -4.9106470   -2.5985410    0.8459950  
H    -3.2629430    2.6726790   -1.5522220  
H    -0.5391700    1.8156560   -1.6694920  
H    -3.0560540   -4.2291790    1.3710540  
C     1.0102020   -1.2885880   -0.6824930  
C     0.2013910   -0.2513210   -0.3195900  
C     1.1515270    0.7843760    0.1558650  
C     2.4969570    0.1728330   -0.0260180  
N     2.3926800   -1.0292380   -0.5182870  
C     3.7290920    0.8819570    0.3296550  
C     3.5472570    2.1243310    0.8882460  
O     4.5535920    2.9315150    1.2894840  
C     2.2082720    2.7337320    1.1147450  
O     2.1744660    3.8586330    1.6229980  
C     0.9968630    1.9977980    0.7195750  
H     4.1039320    3.7363580    1.6414870  
H     0.0398440    2.4800060    0.8867610  
H     0.7075070   -2.2484620   -1.0806300  
C     5.0363430    0.2862290    0.1105790  
C     5.3567390   -0.9360810   -0.4358820  
C     6.7885730   -1.0572200   -0.4377560  
C     7.3147110    0.1978570    0.1549340  
N     6.2148480    0.9618050    0.4628600  
C     8.6350620    0.4685290    0.3271520  
C     9.6100630   -0.5309190   -0.0929740  
O    10.8174960   -0.3779650    0.0212870  
C     9.0749910   -1.8697730   -0.7241680  
O     9.8776420   -2.7187950   -1.0823680  
C     7.6274490   -2.0457370   -0.8579410  
H     4.6413720   -1.6606190   -0.7884950  
H     9.0023870    1.3927300    0.7625420  
H     7.2686620   -2.9730520   -1.2943050  
H     6.2267790    1.8793480    0.8820270  
C    -7.2008710   -1.0245600    2.9555480  
C    -6.0396470   -0.7684820    2.2717910  
C    -6.4040780   -0.4320760    0.9193110  
C    -7.8220390   -0.4920940    0.8550840  
N    -8.2757730   -0.8675820    2.1032350  
C    -8.5506630   -0.1814770   -0.2984620  
C    -7.8245760    0.2245870   -1.4055720  
O    -8.4634700    0.5637290   -2.5578580  
C    -6.4048170    0.2950400   -1.3745450  
O    -5.8427590    0.6825740   -2.5724740  
C    -5.6661470   -0.0541290   -0.2408390  
H    -5.0446390   -0.7867770    2.6924810  
H    -9.2451520   -0.9623000    2.3626250  
H    -9.6340260   -0.2243540   -0.3441440  
H    -7.7587100    0.8330150   -3.1776650  
H    -5.1443270    1.3427890   -2.3726490  
H    -7.3537640   -1.3004140    3.9893560  
