62


C    -4.7882550   -0.1765560    0.1608210  
C    -5.4859600   -1.3302460    0.5377210  
C    -6.8551830   -1.1289540    0.2331680  
C    -6.9667090    0.1751430   -0.3375910  
N    -5.7122630    0.7192170   -0.3661270  
C    -8.1906800    0.7091490   -0.7605470  
C    -9.3173710   -0.0825740   -0.6107830  
O   -10.5338730    0.3832980   -1.0061890  
C    -9.2248530   -1.3898730   -0.0449140  
O   -10.4400390   -2.0424060    0.0321770  
C    -8.0221860   -1.9159960    0.3732820  
H    -5.0500780   -2.2383930    0.9234070  
H    -5.4158120    1.5990800   -0.7714150  
H    -8.2816380    1.6990280   -1.1947590  
H   -11.1858560   -0.3151610   -0.8220320  
H   -10.3108760   -2.9231440    0.4140280  
H    -7.9748450   -2.9148340    0.8025530  
C    -1.2989840   -1.9488980    2.3153340  
C    -2.5519340   -1.6420510    1.8760440  
C    -2.4280320   -0.5514380    0.9416670  
C    -0.9886950   -0.2194760    0.9067920  
N    -0.3622880   -1.0923930    1.7696640  
C    -0.3997410    0.7943820    0.1731420  
C    -1.3151760    1.4498090   -0.7743320  
O    -0.9530410    2.1033180   -1.7379770  
C    -2.8594130    1.2802210   -0.5830430  
O    -3.5682900    2.1235440   -1.1213110  
C    -3.3796600    0.1388810    0.2005300  
H    -3.4660340   -2.1004030    2.2146960  
H    -0.9870240   -2.7167000    3.0111800  
H     0.6308920   -1.3005310    1.6257660  
C     3.4613940   -1.4448370    0.4513460  
C     4.3755410   -0.4653930    0.2055120  
C     3.5591790    0.7603200    0.0892150  
C     2.1489280    0.3043150    0.2695840  
N     2.1220940   -0.9823100    0.5093190  
C     1.0098690    1.2128210    0.1922980  
C     1.3441040    2.5449460    0.0905510  
O     0.4442160    3.5353850    0.1388540  
C     2.7427280    3.0274230   -0.0777290  
O     2.9289140    4.2431810   -0.1798500  
C     3.8549370    2.0584540   -0.0921480  
H     0.9595670    4.3612620   -0.0004970  
H     4.8616260    2.4470770   -0.1856240  
H     3.6542440   -2.4953750    0.6344380  
C     6.6047930   -3.4605850   -2.1140970  
C     7.8720380   -3.0405220   -1.8061430  
C     7.7397170   -1.9037840   -0.9394590  
C     6.3509760   -1.6846260   -0.7495010  
N     5.6849860   -2.6561350   -1.4670230  
C     5.8236520   -0.6241390    0.0257110  
C     6.7703410    0.2201700    0.6157160  
O     6.3635770    1.2608130    1.4047860  
C     8.1611330    0.0096550    0.4398300  
O     8.9451310    0.9362700    1.1038110  
C     8.6563410   -1.0333930   -0.3188450  
H     8.7932640   -3.4866310   -2.1547300  
H     4.6851020   -2.6825660   -1.5961240  
H     7.1687090    1.6911500    1.7433610  
H     9.8796290    0.7037500    1.0015600  
H     9.7292950   -1.1689300   -0.4384490  
H     6.2723480   -4.2786480   -2.7373980  
