64


C    -4.9505930   -0.2052100    0.0086410  
C    -5.5291820   -1.4357420    0.2153820  
C    -6.9485860   -1.2504580    0.3243230  
C    -7.1984760    0.1347070    0.1748170  
N    -5.9669220    0.7779020    0.0474550  
C    -8.4853350    0.6775140    0.1938070  
C    -9.5466260   -0.1983250    0.3802010  
O   -10.8241420    0.2787780    0.4029070  
C    -9.3140820   -1.5875840    0.5548650  
O   -10.4665350   -2.3256410    0.7419960  
C    -8.0370350   -2.1196450    0.5328390  
H    -4.9882360   -2.3638440    0.3371430  
H    -5.8761610    1.6246030   -0.5019400  
H    -8.6814730    1.7382440    0.0748350  
H   -11.4137020   -0.4815600    0.5466520  
H   -10.2395430   -3.2620110    0.8411680  
H    -7.8832870   -3.1887700    0.6647050  
C    -1.4806870   -2.1612220   -2.0473640  
C    -2.7254030   -1.8635810   -1.5597120  
C    -2.6046360   -0.6475470   -0.8058570  
C    -1.2434130   -0.2562230   -0.8675420  
N    -0.5798170   -1.2083560   -1.6130650  
C    -0.7324890    0.9283690   -0.2817940  
C    -1.6981640    1.7379520    0.3329070  
O    -1.3313460    2.9241160    0.9217700  
C    -3.0581800    1.3686110    0.4062620  
O    -3.8368260    2.2873050    1.0890540  
C    -3.5482340    0.1758480   -0.1343150  
H    -3.6286390   -2.4293160   -1.7326120  
H     0.3613570   -1.0951410   -1.9557330  
H    -2.1304590    3.2770900    1.3541820  
H    -4.6905690    1.8718180    1.3127660  
H    -1.1512980   -2.9839990   -2.6660140  
C     0.6856810    1.2674400   -0.3146830  
C     1.8005870    0.4540140   -0.4937890  
C     2.9616110    1.2813770   -0.4345080  
C     2.5043280    2.6096360   -0.2084460  
N     1.1316670    2.5704140   -0.1585920  
C     3.3691760    3.6963050   -0.0579520  
C     4.7311200    3.4385530   -0.1401130  
O     5.6210220    4.4657110   -0.0299490  
C     5.2107690    2.1246330   -0.3553210  
O     6.5944120    2.0456770   -0.4257520  
C     4.3617540    1.0238050   -0.4993910  
H     1.7945880   -0.6238790   -0.5567260  
H     0.5173610    3.3267790    0.1064620  
H     3.0208990    4.7106600    0.1057940  
H     6.5071150    4.0872700   -0.1692990  
H     6.8430860    1.2629400   -0.9418290  
C     4.4158790   -1.2835690   -1.5801640  
C     4.8803740   -0.3293180   -0.7208750  
C     5.9647730   -1.0260750    0.0169990  
C     5.9925130   -2.3947030   -0.5732450  
N     5.0896390   -2.5302300   -1.5066340  
C     6.9206190   -3.3955260   -0.1181600  
C     7.7583680   -3.0717070    0.8967160  
O     8.6676430   -3.9102360    1.4237820  
C     7.7351900   -1.7123210    1.5311070  
O     8.5265270   -1.4900820    2.4470960  
C     6.7837740   -0.6932040    1.0345910  
H     6.9233080   -4.3785280   -0.5761930  
H     9.1134640   -3.3967990    2.1326920  
H     6.8079380    0.2813830    1.5106620  
H     3.6138740   -1.1708860   -2.2994610  
