62


C    -5.1525130    1.0219840    2.1050940  
C    -6.4916130    0.7541350    2.1004830  
C    -6.7755470    0.0064060    0.9066830  
C    -5.5542580   -0.1461310    0.2056280  
N    -4.5570350    0.4835320    0.9562980  
C    -5.4586430   -0.8639720   -0.9914830  
C    -6.6237650   -1.4175750   -1.4991160  
O    -6.5863430   -2.1189700   -2.6670940  
C    -7.8597820   -1.2639630   -0.8158110  
O    -8.9255190   -1.8741150   -1.4466070  
C    -7.9467970   -0.5653210    0.3735800  
H    -7.2030360    1.0755020    2.8493110  
H    -4.5329390   -0.9758970   -1.5423850  
H    -7.4977470   -2.3901430   -2.8721350  
H    -9.7468530   -1.6558610   -0.9818800  
H    -8.9004940   -0.4670260    0.8881540  
H    -4.5581110    1.6146750    2.7862390  
C    -1.2341480   -0.6254300    3.4693920  
C    -0.2050840   -0.2551920    2.6570940  
C    -0.7840760    0.2460890    1.4327690  
C    -2.2456520    0.1381260    1.5990490  
N    -2.4538650   -0.3942120    2.8567770  
C    -3.1803740    0.5256720    0.6785990  
C    -2.6806280    1.1016370   -0.5804520  
O    -3.4047310    1.5844900   -1.4310350  
C    -1.1260360    1.1079950   -0.8345000  
O    -0.7254960    1.4045320   -1.9459200  
C    -0.2301670    0.7249950    0.2706730  
H     0.8463530   -0.3130720    2.8944500  
H    -1.2014690   -1.0419220    4.4673080  
H    -3.3652060   -0.5995710    3.2387780  
C     1.9944450   -0.3875860    0.2208730  
C     3.3033190   -0.1078120   -0.0395970  
C     3.3458870    1.3006500   -0.4165670  
C     1.9554600    1.8076260   -0.3340970  
N     1.1617650    0.7230620    0.0522650  
C     1.6030170    3.0943540   -0.5644330  
C     2.6462650    4.0486000   -0.9453890  
O     2.4190560    5.2317780   -1.1399750  
C     4.1153450    3.5190560   -1.1026170  
O     4.9915270    4.2904620   -1.4583440  
C     4.3745300    2.1082260   -0.7991610  
H     0.5839620    3.4572730   -0.5021800  
H     5.3909290    1.7455080   -0.9229750  
H     1.5577150   -1.3316320    0.5169160  
C     3.9199010   -4.1818240   -1.8095220  
C     3.4123330   -2.9539110   -1.4727150  
C     4.3757040   -2.3166210   -0.6181180  
C     5.4630520   -3.2186940   -0.4782180  
N     5.1530330   -4.3485790   -1.2072730  
C     6.6080660   -2.9196230    0.2690080  
C     6.6541740   -1.6817740    0.8893040  
O     7.7431850   -1.3354300    1.6339620  
C     5.5752210   -0.7657560    0.7766710  
O     5.7650620    0.3882790    1.5143670  
C     4.4298560   -1.0559990    0.0345010  
H     2.4707760   -2.5457310   -1.8116700  
H     5.7516830   -5.1519470   -1.3161080  
H     7.4446180   -3.6034450    0.3700170  
H     7.5907510   -0.4272980    1.9501030  
H     5.1575750    1.0844900    1.2170940  
H     3.5053250   -4.9589350   -2.4359690  
