66


C     6.5111650   -3.1191090   -0.3368310  
C     7.6741890   -2.3927400   -0.3242670  
C     7.3039480   -1.0115790   -0.2075300  
C     5.8845180   -0.9648070   -0.1455280  
N     5.4329770   -2.2640030   -0.2417730  
C     5.1411200    0.2357940   -0.0519180  
C     5.9110150    1.3980190   -0.0417280  
O     5.2879100    2.6340940    0.0163370  
C     7.3242640    1.3773370   -0.1011090  
O     7.8983140    2.6379520   -0.0732080  
C     8.0312810    0.1939440   -0.1778060  
H     8.6763280   -2.7916370   -0.4007080  
H     4.4653960   -2.5359570   -0.1522790  
H     5.9944420    3.3053740    0.0192330  
H     8.8621710    2.5549770   -0.1150500  
H     9.1181720    0.1985680   -0.2276790  
H     6.3569230   -4.1864300   -0.4120000  
C     2.1735950   -2.0525740    2.4487960  
C     3.3221720   -1.5027500    1.9392560  
C     2.9351880   -0.6071450    0.8786990  
C     1.5187410   -0.6515340    0.8077000  
N     1.0848000   -1.5424480    1.7695500  
C     0.7470950    0.1104350   -0.0942870  
C     1.4739530    0.9626860   -0.9237320  
O     0.8325170    1.7832680   -1.7948760  
C     2.8947930    1.0235920   -0.8779780  
O     3.4360940    1.9046370   -1.7923200  
C     3.6563620    0.2369430   -0.0132730  
H     4.3247340   -1.6905450    2.2954330  
H     0.1187530   -1.7833830    1.9288880  
H     1.5413350    2.2831490   -2.2443960  
H     4.1328370    2.4203090   -1.3312880  
H     2.0371130   -2.7610000    3.2537530  
C    -2.1793450    1.0711770    3.0554490  
C    -3.3240340    0.7678480    2.3651230  
C    -2.9245370    0.3302290    1.0567010  
C    -1.5075790    0.3830510    1.0165720  
N    -1.0795120    0.8248440    2.2533640  
C    -0.7345050    0.0380860   -0.1126750  
C    -1.4549120   -0.3769610   -1.2322280  
O    -0.7996930   -0.7502040   -2.3656680  
C    -2.8734240   -0.4404920   -1.2121490  
O    -3.4266080   -0.8630510   -2.4059400  
C    -3.6347310   -0.1030760   -0.0926290  
H    -4.3354860    0.8502710    2.7356560  
H    -0.1217950    1.0496600    2.4763420  
H    -1.4790010   -0.9144390   -3.0431480  
H    -4.3841680   -0.6914340   -2.3783390  
H    -2.0497620    1.4376930    4.0641220  
C    -6.8966480    2.9990050    0.2717150  
C    -5.6839880    2.3639720    0.2074330  
C    -5.9495760    0.9659640    0.0142270  
C    -7.3609100    0.8140330   -0.0349790  
N    -7.9113650    2.0693200    0.1255900  
C    -7.9882370   -0.4234320   -0.2282250  
C    -7.1717700   -1.5330570   -0.3714980  
O    -7.7238210   -2.7697770   -0.5501520  
C    -5.7587140   -1.4048230   -0.3304410  
O    -5.0856800   -2.6011040   -0.4734090  
C    -5.1216930   -0.1768290   -0.1425580  
H    -4.7131410    2.8299280    0.2930620  
H    -8.8976320    2.2755410    0.1320410  
H    -9.0666610   -0.5407190   -0.2636040  
H    -6.9875670   -3.4044440   -0.5947200  
H    -4.1372050   -2.4386510   -0.3295160  
H    -7.1291200    4.0454190    0.4111550  
