64


C    -5.3776500    0.9138690    2.3089320  
C    -6.6119000    0.4270820    2.6461100  
C    -7.2091130   -0.0817850    1.4436250  
C    -6.2760680    0.1261140    0.3954000  
N    -5.1553600    0.7415090    0.9435790  
C    -6.5203050   -0.2722210   -0.9241960  
C    -7.7345380   -0.8835270   -1.1921160  
O    -8.0282770   -1.2887530   -2.4643680  
C    -8.6843190   -1.0946210   -0.1577190  
O    -9.8464790   -1.7159940   -0.5821630  
C    -8.4372860   -0.7052970    1.1452760  
H    -7.0529180    0.4462960    3.6337130  
H    -5.8098470   -0.1056970   -1.7254200  
H    -8.9250690   -1.6643460   -2.4436270  
H   -10.4721500   -1.7619780    0.1555320  
H    -9.1784300   -0.8816430    1.9228770  
H    -4.6296920    1.4119510    2.9101560  
C    -1.2206450   -0.9615850    1.5573140  
C    -0.5254150   -0.2124160    0.6211100  
C    -1.5014940    0.6756830    0.0181060  
C    -2.7460160    0.3974440    0.6296390  
N    -2.5482250   -0.5958710    1.5631790  
C    -3.9415260    1.0510200    0.2773590  
C    -3.8684950    2.0126290   -0.7265050  
O    -4.9817250    2.6952900   -1.1034890  
C    -2.6252010    2.2879240   -1.3577610  
O    -2.7135240    3.2633500   -2.3330260  
C    -1.4564570    1.6442800   -1.0044730  
H    -3.2672820   -0.9676370    2.1653260  
H    -4.7061370    3.3271370   -1.7912310  
H    -1.8214760    3.5353600   -2.5960070  
H    -0.5177540    1.9050290   -1.4811060  
H    -0.8491250   -1.6834220    2.2713370  
C     1.9479370   -3.7955970    0.2747090  
C     3.1602690   -3.2333190    0.0321730  
C     2.9788320   -1.7954130   -0.0076540  
C     1.5469470   -1.5635020    0.2580810  
N     0.9809500   -2.8119270    0.4373870  
C     0.9032560   -0.3488870    0.3158090  
C     1.7611570    0.8126300    0.0883670  
O     1.3648460    1.9703270    0.1080980  
C     3.3045560    0.5986980   -0.1881840  
O     3.9689680    1.6057140   -0.3729920  
C     3.8696190   -0.7678870   -0.2398510  
H     4.0966600   -3.7584520   -0.0736160  
H     1.6797320   -4.8387950    0.3766790  
H    -0.0180450   -2.9575930    0.4585490  
C     5.7158100   -1.9990330   -1.4277750  
C     5.2694500   -0.9802150   -0.6000610  
C     6.4579030   -0.2450530   -0.1990070  
C     7.5683800   -0.8846080   -0.8034020  
N     7.0811100   -1.9444080   -1.5483790  
C     8.8916310   -0.4669960   -0.6166140  
C     9.1023250    0.6287240    0.2044900  
O    10.3679390    1.0911730    0.4183630  
C     8.0047910    1.2812360    0.8250980  
O     8.3692440    2.3578330    1.6129850  
C     6.7024710    0.8604420    0.6392690  
H     7.6360880   -2.5419630   -2.1410400  
H     9.7367370   -0.9597900   -1.0864500  
H    10.2904090    1.8744940    0.9905030  
H     7.5732210    2.8409600    1.8807820  
H     5.8818370    1.3980660    1.1018530  
H     5.1425410   -2.7295050   -1.9797440  
