60


C     6.8666350   -0.5869660   -3.3991590  
C     5.6742530   -0.3091870   -2.7826340  
C     5.7603860   -0.8393340   -1.4509250  
C     7.0450220   -1.4297090   -1.3148560  
N     7.6927530   -1.2631460   -2.5211100  
C     7.4912900   -2.0238260   -0.1284880  
C     6.6186440   -2.0289340    0.9488010  
O     6.9964600   -2.5886710    2.1300520  
C     5.3154550   -1.4728970    0.8411920  
O     4.5361160   -1.6257530    1.9683030  
C     4.8827840   -0.8844610   -0.3450600  
H     4.8415770    0.2213060   -3.2220830  
H     8.6334140   -1.5650380   -2.7211870  
H     8.4788480   -2.4604210   -0.0223840  
H     6.2512370   -2.4689330    2.7467530  
H     3.9496190   -0.8565800    2.0860540  
H     7.2027100   -0.3543510   -4.3996280  
C     2.5981100   -0.8024660   -1.3673900  
C     1.4108180   -0.1772810   -1.1806370  
C     1.5722380    0.7325610   -0.0686010  
C     2.9840520    0.5905250    0.3696430  
N     3.5628930   -0.3608990   -0.4491490  
C     3.5603000    1.3038160    1.3799370  
C     2.7408730    2.2774000    2.0879750  
O     3.1707430    2.9995600    2.9737310  
C     1.2279440    2.4042190    1.6872880  
O     0.5103070    3.1303370    2.3509310  
C     0.7202150    1.6165640    0.5327070  
H     0.5034480   -0.3478430   -1.7380060  
H     4.6195610    1.2515710    1.6139450  
H     2.8773450   -1.5620760   -2.0845260  
C    -2.6139020   -1.2095250    0.3992290  
C    -3.6842140   -0.4355170    0.0319400  
C    -3.0962400    0.9092170   -0.1560210  
C    -1.6475970    0.7198050    0.1648030  
N    -1.3879840   -0.5246980    0.4751740  
C    -0.6895120    1.8071290    0.1379890  
C    -1.1867560    3.0360740   -0.1900440  
O    -0.4331370    4.1326400   -0.2976470  
C    -2.6400600    3.2610610   -0.4993600  
O    -2.9909520    4.4036430   -0.7828280  
C    -3.5829820    2.1250180   -0.4620140  
H    -1.0532170    4.8645080   -0.5135040  
H    -4.6168600    2.3321750   -0.7076740  
H    -2.6267730   -2.2753900    0.5929710  
C    -6.2061310   -3.3856780    2.2312540  
C    -5.1791570   -2.5603320    1.9086470  
C    -5.6203510   -1.8478370    0.7149560  
C    -6.9858980   -2.3837300    0.4668380  
N    -7.3215270   -3.2867730    1.3468970  
C    -7.8034290   -1.9177240   -0.6241600  
C    -7.2965290   -0.9498660   -1.4201100  
O    -7.9553180   -0.4088500   -2.4613150  
C    -5.9240090   -0.3826480   -1.2016710  
O    -5.5543900    0.4940660   -1.9820230  
C    -5.0577630   -0.8959440   -0.0892860  
H    -4.2461180   -2.4274030    2.4365100  
H    -8.7937260   -2.3321810   -0.7767980  
H    -7.3415190    0.2518470   -2.8478350  
H    -6.2680570   -4.0755310    3.0643860  
