62


C    -3.0280870   -1.0280770   -2.0280210  
C    -4.3425410   -1.3958050   -2.0962690  
C    -4.6095740   -2.2361940   -0.9624630  
C    -3.4007720   -2.3479200   -0.2307010  
N    -2.4329630   -1.6010930   -0.9013250  
C    -3.3050530   -3.0745470    0.9613640  
C    -4.4485570   -3.7136570    1.4139580  
O    -4.4080380   -4.4418190    2.5690970  
C    -5.6660600   -3.6217990    0.6894850  
O    -6.7142930   -4.3141620    1.2675170  
C    -5.7586520   -2.8948200   -0.4826330  
H    -5.0398640   -1.1102660   -2.8721660  
H    -2.3833050   -3.1610520    1.5239570  
H    -5.2988720   -4.8060330    2.7094250  
H    -7.5072230   -4.2136540    0.7206170  
H    -6.7037860   -2.8306370   -1.0185120  
H    -2.4301790   -0.4308290   -2.7019550  
C    -0.4512610    2.1619530    0.0267780  
C     0.8008410    1.6107910    0.3177670  
C     0.7057360    0.2061210    0.1748060  
C    -0.6339230   -0.0708570   -0.2258420  
N    -1.3049060    1.1154950   -0.3017490  
C    -1.1001840   -1.3707360   -0.4933230  
C    -0.1766990   -2.4059290   -0.3445080  
O    -0.5547270   -3.6848120   -0.5770590  
C     1.1597510   -2.1425180    0.0688510  
O     1.9168430   -3.2931920    0.1851840  
C     1.6422260   -0.8626170    0.3213550  
H     1.6929490    2.1706580    0.5479110  
H    -2.2571730    1.2588490   -0.6130500  
H     0.2054870   -4.2547050   -0.3602150  
H     2.6772460   -3.1234130    0.7635450  
C     3.4766700    0.2186840    1.7207880  
C     3.0256360   -0.6196710    0.7412760  
C     4.2697080   -1.1504640    0.1353570  
C     5.3648810   -0.5053720    0.9200860  
N     4.8888780    0.2853750    1.8425600  
C     6.7513150   -0.7618580    0.6357210  
C     7.0458190   -1.5912780   -0.3948100  
O     8.2931110   -1.9110890   -0.7728140  
C     5.9671310   -2.2350970   -1.2202480  
O     6.3096670   -2.9751860   -2.1395680  
C     4.5464240   -1.9687350   -0.8990310  
H     7.5221660   -0.2849720    1.2308290  
H     8.1906770   -2.5174390   -1.5386410  
H     3.8000040   -2.4598740   -1.5148670  
H     2.8712420    0.8067860    2.4001200  
C     1.2102710    6.0391310    1.5830160  
C     1.0324380    4.7064980    1.3877360  
C    -0.1698130    4.5909640    0.5726900  
C    -0.5965900    5.9956130    0.3818930  
N     0.2162020    6.8415920    0.9605250  
C    -1.7836280    6.3488910   -0.3552130  
C    -2.5373450    5.3461380   -0.8566470  
O    -3.6892970    5.5335100   -1.5326370  
C    -2.1519790    3.9138580   -0.6771720  
O    -2.9388040    3.0733060   -1.1261190  
C    -0.8661820    3.5451010    0.0150280  
H     1.6279220    3.9041420    1.7957110  
H    -2.0583020    7.3914150   -0.4718470  
H    -4.0194900    4.6360030   -1.7471560  
H     1.9926540    6.5282400    2.1509630  
