62


C    -3.8359610   -3.2279590    2.1334620  
C    -4.6389060   -3.9602260    1.2979440  
C    -5.1762930   -3.0500280    0.3274160  
C    -4.6471300   -1.7650910    0.6235560  
N    -3.8387940   -1.9068310    1.7319940  
C    -4.9722930   -0.5957200   -0.1033320  
C    -5.8899260   -0.7857480   -1.1352530  
O    -6.3109040    0.2982980   -1.8844030  
C    -6.4289730   -2.0554880   -1.4513720  
O    -7.3136260   -2.0293200   -2.5147320  
C    -6.0799260   -3.1886490   -0.7439460  
H    -4.8349580   -5.0210480    1.3705760  
H    -3.3288170   -1.1519870    2.1637160  
H    -6.9273830   -0.0431630   -2.5579190  
H    -7.6330910   -2.9254310   -2.6959020  
H    -6.5076220   -4.1558740   -0.9988440  
H    -3.2587450   -3.5377680    2.9934090  
C    -0.7409390    0.7686070    0.5345900  
C    -1.8606330    0.0360240    0.2283580  
C    -2.9941110    0.8988690    0.4283330  
C    -2.4860920    2.1596050    0.8390330  
N    -1.1093130    2.0529390    0.9060850  
C    -3.2988830    3.2739930    1.0712760  
C    -4.6565590    3.1068250    0.8544870  
O    -5.5117790    4.1454900    1.0390080  
C    -5.1948330    1.8566150    0.4360960  
O    -6.5636690    1.8670510    0.2858870  
C    -4.3968230    0.7288450    0.2431680  
H    -1.8660570   -0.9769660   -0.1465460  
H    -0.4779300    2.7596020    1.2516070  
H    -2.9096200    4.2387000    1.3789680  
H    -6.3948270    3.8039550    0.7986170  
H    -6.7757860    1.4009180   -0.5525020  
C     1.1126000   -0.7447990    1.1952660  
C     2.4438830   -0.8967890    0.9803750  
C     2.8702090    0.1881720    0.1259950  
C     1.6562070    0.9940260   -0.1503630  
N     0.6079150    0.3813910    0.5392120  
C     1.6240860    2.1078510   -0.9245330  
C     2.8748630    2.5720770   -1.5158610  
O     2.9543540    3.5790330   -2.2007000  
C     4.1738630    1.7315630   -1.2597120  
O     5.2006130    2.0497470   -1.8329100  
C     4.0946780    0.5428390   -0.3757770  
H     3.0690980   -1.6812340    1.3785660  
H     0.7196280    2.6730670   -1.1207450  
H     0.4335550   -1.3460300    1.7843600  
C     5.5160360   -3.6756940   -0.9944380  
C     4.7165370   -2.5819600   -0.9730190  
C     5.5349900   -1.5246650   -0.3882890  
C     6.8469870   -2.1935870   -0.1207990  
N     6.8279220   -3.4478190   -0.4747020  
C     7.9653040   -1.4791640    0.4374410  
C     7.7947890   -0.1678930    0.7220160  
O     8.7438320    0.6175190    1.2548160  
C     6.4784610    0.5297470    0.5018620  
O     6.3815950    1.6847060    0.9021840  
C     5.3346280   -0.2085510   -0.1224150  
H     3.6972870   -2.4926020   -1.3197990  
H     8.9037550   -1.9925350    0.6146790  
H     8.3203660    1.4953980    1.3774650  
H     5.2746600   -4.6668480   -1.3604110  
