64


C    -1.7966790   -1.8142960    0.7791150  
C    -1.0532840   -0.8744780    0.0984620  
C    -2.0063470    0.0406850   -0.4918130  
C    -3.3011850   -0.4018140   -0.1236020  
N    -3.1416850   -1.5322740    0.6529680  
C    -4.4944990    0.2249880   -0.5420950  
C    -4.3400380    1.3433670   -1.3621780  
O    -5.4337500    2.0341970   -1.7869500  
C    -3.0499710    1.7911180   -1.7536770  
O    -3.0752430    2.9109000   -2.5691010  
C    -1.8922850    1.1632360   -1.3357260  
H    -3.9009680   -2.0831130    1.0232490  
H    -5.1147410    2.7231710   -2.3954270  
H    -2.1951050    3.0490910   -2.9490210  
H    -0.9185480    1.5228860   -1.6602290  
H    -1.4604570   -2.6524480    1.3732060  
C     1.2337280   -1.8954160   -0.3178320  
C     0.4062090   -0.8385060   -0.0106220  
C     1.2781330    0.2942380    0.2078250  
C     2.6092250   -0.1408630    0.0051270  
N     2.5508840   -1.4763810   -0.3200430  
C     3.7462370    0.6895890    0.1970750  
C     3.4745810    2.0104580    0.6082670  
O     4.4748270    2.9090790    0.7554960  
C     2.1401880    2.4498990    0.8128460  
O     2.0522540    3.7756330    1.1983330  
C     1.0522220    1.6217200    0.6203850  
H     3.3609170   -2.0711250   -0.4086940  
H     4.0693470    3.7409090    1.0598410  
H     1.1302530    3.9952090    1.3972240  
H     0.0411940    1.9860580    0.7870100  
H     0.9784910   -2.9142690   -0.5722290  
C    -6.2225410   -0.1797600    3.4924200  
C    -7.4284450   -0.7256820    3.1363930  
C    -7.4336400   -0.8437780    1.7048360  
C    -6.1860130   -0.3500370    1.2440200  
N    -5.4637700    0.0373680    2.3563150  
C    -5.8230450   -0.2844420   -0.1184820  
C    -6.7746630   -0.7499430   -1.0264180  
O    -6.4980770   -0.7576340   -2.3605570  
C    -8.0293670   -1.2464550   -0.5822800  
O    -8.8506250   -1.6723980   -1.6124950  
C    -8.3684380   -1.3025310    0.7557510  
H    -8.2215770   -1.0109770    3.8140450  
H    -4.5666940    0.4964520    2.3224040  
H    -7.2948400   -1.0833990   -2.8136750  
H    -9.7056400   -1.9453050   -1.2489360  
H    -9.3376270   -1.6905490    1.0635450  
H    -5.8301740    0.0690220    4.4684740  
C     5.0911100    0.1876550   -0.0129370  
C     5.5033250   -0.7717690   -0.9105220  
C     6.9147830   -0.9444910   -0.6881050  
C     7.2217620   -0.0011450    0.4383160  
N     6.1696810    0.6584210    0.8212810  
C     8.5508030    0.1100040    0.9847780  
C     9.5224480   -0.6489120    0.4272340  
O    10.8044650   -0.6482260    0.8199840  
C     9.2461840   -1.5946310   -0.7230300  
O    10.2062710   -2.2391620   -1.1532210  
C     7.8886620   -1.7038330   -1.2507710  
H     4.9237160   -1.2232560   -1.7041490  
H     8.7458010    0.7912080    1.8054870  
H    11.2488150   -1.2953010    0.2251090  
H     7.7261290   -2.3983660   -2.0693400  
