62


C     5.6673750   -0.2960290   -2.8164180  
C     5.1210140   -0.4930550   -1.5699100  
C     6.2071350   -0.6551830   -0.6384240  
C     7.4013930   -0.5433030   -1.3932710  
N     7.0413100   -0.3361070   -2.7117490  
C     8.6713850   -0.6517110   -0.8117040  
C     8.7314680   -0.8776830    0.5539440  
O     9.9419590   -0.9871360    1.1721430  
C     7.5411040   -0.9974870    1.3231140  
O     7.7695130   -1.2270030    2.6655270  
C     6.2894620   -0.8914770    0.7482330  
H     7.6842320   -0.2137120   -3.4781720  
H     9.5902960   -0.5644730   -1.3823390  
H     9.7702640   -1.1326960    2.1186180  
H     6.9248510   -1.2484410    3.1393060  
H     5.3900340   -0.9852760    1.3518810  
H     5.1771890   -0.1269640   -3.7641010  
C     2.8527520   -1.4903320   -1.8099980  
C     1.5893470   -1.2608720   -1.3312070  
C     1.6712330   -0.1354100   -0.4468840  
C     3.0281730    0.2847530   -0.4422060  
N     3.7404000   -0.5650900   -1.2802710  
C     3.4802240    1.3940310    0.2783850  
C     2.5409500    2.0866210    1.0302850  
O     2.9322330    3.1567950    1.7811370  
C     1.1841290    1.6875290    1.0433610  
O     0.3817850    2.4753450    1.8569320  
C     0.7119470    0.5934700    0.3114120  
H     0.7059580   -1.8280680   -1.5858510  
H     4.5164350    1.7122250    0.2749590  
H     2.1453110    3.4673120    2.2624720  
H    -0.3919510    1.9613430    2.1354120  
H     3.2206270   -2.2531720   -2.4811690  
C    -1.2298810   -1.0543800    0.4046800  
C    -0.7010570    0.2011530    0.3317360  
C    -1.8906800    1.0709970    0.1509190  
C    -3.0452320    0.1271570    0.1617190  
N    -2.6464090   -1.1041600    0.3130210  
C    -4.4150670    0.5823080   -0.0028110  
C    -4.5911700    1.9222390   -0.1902820  
O    -5.7926650    2.5020910   -0.3166930  
C    -3.4439710    2.8868570   -0.2357190  
O    -3.7063360    4.0766250   -0.4078180  
C    -2.0651560    2.3898650   -0.0600840  
H    -5.6082710    3.4580110   -0.4545270  
H    -1.2628450    3.1192600   -0.0910940  
H    -0.6880600   -1.9836890    0.5286850  
C    -6.0945770   -2.4650150    2.8316470  
C    -5.2865810   -1.5222850    2.2952240  
C    -5.8551530   -1.2335290    0.9824120  
C    -7.0497520   -2.1341010    0.9036220  
N    -7.1872080   -2.8450560    1.9851310  
C    -7.9168120   -2.1488630   -0.2459240  
C    -7.6160980   -1.3163510   -1.2675570  
O    -8.3242760   -1.2309160   -2.4060440  
C    -6.4179710   -0.4043370   -1.2278290  
O    -6.1915350    0.2637670   -2.2321990  
C    -5.5482780   -0.3645360   -0.0121270  
H    -4.3960030   -1.0837960    2.7190900  
H    -8.7728480   -2.8137990   -0.2726290  
H    -7.8513720   -0.5683170   -2.9561180  
H    -6.0058440   -2.9456650    3.7987610  
