66


C    -3.5311030    1.7193330    0.9699620  
C    -2.1876700    1.7951970    0.7179120  
C    -1.8086380    0.5774700    0.0574070  
C    -2.9814580   -0.2105990   -0.0550210  
N    -4.0325170    0.5066470    0.5058470  
C    -2.9940250   -1.4789210   -0.6439940  
C    -1.7869010   -1.9649000   -1.1160930  
O    -1.7336500   -3.1948070   -1.7076210  
C    -0.5935230   -1.2047220   -1.0095240  
O     0.5063830   -1.8601160   -1.5323370  
C    -0.5723050    0.0701670   -0.4331570  
H    -1.5363300    2.6066250    1.0069760  
H    -3.8928570   -2.0777730   -0.7275240  
H    -0.8107020   -3.3254450   -1.9885350  
H     1.2501280   -1.2479660   -1.6731530  
H    -4.1900540    2.4087340    1.4790030  
C    -7.4367860    2.3912190   -1.4360360  
C    -8.4045380    1.5428580   -0.9634120  
C    -7.7470090    0.5652250   -0.1417380  
C    -6.3655680    0.8839970   -0.1577110  
N    -6.2029960    1.9995040   -0.9485300  
C    -5.4011020    0.1325220    0.5384060  
C    -5.8498530   -0.9678930    1.2658540  
O    -4.9660100   -1.7266310    1.9706090  
C    -7.2299300   -1.3041960    1.2738080  
O    -7.5136740   -2.4250810    2.0325730  
C    -8.1743090   -0.5588990    0.5935970  
H    -9.4629810    1.6056150   -1.1756510  
H    -5.3149420    2.4291670   -1.1578710  
H    -5.4756280   -2.4403430    2.3923570  
H    -8.4681840   -2.5882130    2.0232270  
H    -9.2242410   -0.8431350    0.6231070  
H    -7.5202090    3.2522230   -2.0840440  
C     0.6542860    0.8665220   -0.3680270  
C     0.8496010    2.2265870   -0.4931180  
C     2.2525290    2.4869160   -0.3621910  
C     2.8903300    1.2346750   -0.1755840  
N     1.9072210    0.2609660   -0.2144920  
C     4.2786860    1.0799480    0.0230980  
C     4.9999030    2.2732540    0.0700660  
O     6.3608460    2.2390840    0.3160970  
C     4.3903840    3.5339690   -0.1245440  
O     5.2784280    4.5938700   -0.0652070  
C     3.0331570    3.6587390   -0.3567880  
H     0.0763030    2.9513700   -0.7029550  
H     2.0392960   -0.6580910    0.1865890  
H     6.6759510    3.1610060    0.2999310  
H     4.7971130    5.4265010   -0.1786960  
H     2.5833360    4.6383330   -0.5036390  
C     3.9797030   -2.6549790   -2.4476360  
C     3.9050870   -1.3615690   -1.9956170  
C     4.6102190   -1.3060800   -0.7409870  
C     5.1099890   -2.6117320   -0.4961300  
N     4.6965640   -3.4128890   -1.5428880  
C     5.9039190   -2.9299190    0.6121730  
C     6.2183710   -1.8919000    1.4740490  
O     7.0113870   -2.1151190    2.5584680  
C     5.7247290   -0.5758410    1.2593930  
O     6.1073380    0.3308010    2.2267210  
C     4.8914290   -0.2622640    0.1853190  
H     3.4513620   -0.5320350   -2.5195550  
H     4.9117240   -4.3922590   -1.6436520  
H     6.2919320   -3.9264800    0.7965550  
H     7.1098490   -1.2454030    2.9910460  
H     6.3702110    1.1587000    1.7701580  
H     3.5870130   -3.1018410   -3.3500650  
