60


C    -5.0831050    0.0123560   -0.0834900  
C    -5.9914850    0.9977440   -0.4790970  
C    -7.2953080    0.4786280   -0.2935040  
C    -7.1521780   -0.8440970    0.2254500  
N    -5.8123360   -1.0971300    0.3422070  
C    -8.2516240   -1.6567940    0.5283890  
C    -9.5130230   -1.1291660    0.3045760  
O   -10.6174670   -1.8719660    0.5795140  
C    -9.6767090    0.1922990   -0.2144310  
O   -10.9985580    0.5561610   -0.3745660  
C    -8.5963650    0.9916090   -0.5118680  
H    -5.7099460    1.9668930   -0.8580810  
H    -5.3805760   -1.9462810    0.6769120  
H    -8.1519080   -2.6628320    0.9217510  
H   -11.3955370   -1.3329280    0.3524160  
H   -11.0478220    1.4503800   -0.7438560  
H    -8.7401520    1.9950940   -0.9066750  
C    -2.2564220    3.1232110   -1.3367070  
C    -1.0618090    2.5399340   -1.0704140  
C    -1.3916590    1.2345060   -0.5138890  
C    -2.8843220    1.1960750   -0.5291180  
N    -3.3724610    2.3065530   -1.0069650  
C    -3.6415140    0.0250870   -0.0709340  
C    -2.8670600   -1.0287570    0.3609920  
O    -3.3989980   -2.1859570    0.8419990  
C    -1.4017300   -1.0121750    0.4160020  
O    -0.8271340   -1.9779360    0.9333490  
C    -0.6461890    0.1806660   -0.0876910  
H    -0.0734940    2.9294220   -1.2696720  
H    -2.6189490   -2.7246690    1.1075320  
H    -2.4411960    4.0986560   -1.7705950  
C     2.2879660    2.8849520    1.7492240  
C     3.4381340    2.2187810    1.4403590  
C     3.0748380    1.0543870    0.6779020  
C     1.6009540    1.0860840    0.5724200  
N     1.1912190    2.2292560    1.2281660  
C     0.8168180    0.1320360   -0.0244200  
C     1.5352270   -0.9930590   -0.6472170  
O     0.9981700   -1.8035880   -1.3784650  
C     3.0753150   -1.1259050   -0.4121060  
O     3.5869310   -2.1983660   -0.7076510  
C     3.8298540    0.0216610    0.1365100  
H     4.4275250    2.4933850    1.7668180  
H     2.1553330    3.7921110    2.3234780  
H     0.2306130    2.5308250    1.2977940  
C     5.2793920    0.0077490    0.1190820  
C     6.1729340    1.0592030    0.2222820  
C     7.4989430    0.5318760    0.0820230  
C     7.3415160   -0.9302790   -0.1189830  
N     5.9887120   -1.1787810   -0.0746700  
C     8.3754180   -1.7908560   -0.3029880  
C     9.7339100   -1.2566630   -0.3022170  
O    10.7253970   -1.9535340   -0.4585480  
C     9.9241080    0.2905460   -0.0888170  
O    11.0551000    0.7545850   -0.0839050  
C     8.7314800    1.1168060    0.0963990  
H     5.9237900    2.1045560    0.3113570  
H     8.2426300   -2.8579560   -0.4507360  
H     8.8737750    2.1837910    0.2399730  
H     5.5146360   -2.0455750   -0.2956980  
