62


C    -2.4054480    1.5484720    1.5144750  
C    -1.4786090    2.0755600    0.6346040  
C    -2.0449040    3.3143650    0.1472060  
C    -3.3085590    3.4720230    0.7696830  
N    -3.4988570    2.3826550    1.5974930  
C    -4.1517120    4.5614870    0.5147310  
C    -3.7071380    5.5128870   -0.3884510  
O    -4.4825050    6.5990000   -0.6724350  
C    -2.4445220    5.3697400   -1.0250220  
O    -2.1431350    6.3986860   -1.8985560  
C    -1.6186190    4.2919540   -0.7735820  
H    -4.2941610    2.2393520    2.2001170  
H    -5.1187000    4.6829780    0.9920500  
H    -3.9886050    7.1451690   -1.3081920  
H    -1.2466980    6.2740800   -2.2434650  
H    -0.6496220    4.2129580   -1.2577730  
H    -2.3373200    0.6654370    2.1348380  
C    -0.6809340   -2.0653850   -0.5919170  
C     0.6965980   -1.9486360   -0.7406610  
C     1.0599280   -0.6060900   -0.4370520  
C    -0.1367450    0.0761540   -0.0880530  
N    -1.1691280   -0.8346550   -0.1639980  
C    -0.2029350    1.4372770    0.2678950  
C     1.0246790    2.1046360    0.2570120  
O     1.0817040    3.4254510    0.5847930  
C     2.2384990    1.4465560   -0.0888830  
O     3.3247350    2.2978300   -0.0726620  
C     2.2970200    0.0975620   -0.4264790  
H     1.3634310   -2.7648550   -0.9805640  
H    -2.1387410   -0.5533070   -0.1911120  
H     2.0221040    3.6799080    0.5733330  
H     4.1511230    1.7960800   -0.1565900  
C     3.7848420   -1.3131050   -1.9198850  
C     3.5616390   -0.5571520   -0.8027380  
C     4.8234470   -0.5499540   -0.0644180  
C     5.7875050   -1.3493140   -0.8631530  
N     5.0870540   -1.7893570   -1.9690520  
C     7.0788640   -1.5712210   -0.5129530  
C     7.5709830   -0.9945280    0.7366670  
O     8.7207090   -1.1291310    1.1239160  
C     6.5622800   -0.1702890    1.6163790  
O     6.9453560    0.2986250    2.6754980  
C     5.1898330    0.0040730    1.1252600  
H     7.7668530   -2.1610230   -1.1110200  
H     4.4978230    0.5515940    1.7582530  
H     3.0924010   -1.5480960   -2.7172920  
H     5.4720480   -2.3559780   -2.7085680  
C    -1.3137120   -4.3227600   -1.5478470  
C    -1.5375970   -3.2000100   -0.7964920  
C    -2.8807070   -3.4312840   -0.2017960  
C    -3.2941690   -4.7505490   -0.7413450  
N    -2.3670240   -5.2591100   -1.5144550  
C    -4.5560530   -5.3429620   -0.3962680  
C    -5.3650060   -4.6739580    0.4644170  
O    -6.5717380   -5.1185470    0.8655850  
C    -4.9647460   -3.3616400    1.0504070  
O    -5.7406990   -2.8021780    1.8284760  
C    -3.6579560   -2.7724560    0.6785290  
H    -4.8342620   -6.3041570   -0.8144880  
H    -6.9087370   -4.4325940    1.4814300  
H    -3.4011990   -1.8322230    1.1564340  
H    -0.4437520   -4.5386800   -2.1558590  
