60


C     2.2831200   -1.2818360    0.0366030  
C     2.7276070   -2.5557860    0.3568480  
C     4.1427990   -2.5661680    0.2205310  
C     4.5330850   -1.2614150   -0.1952650  
N     3.3934330   -0.4874370   -0.2620160  
C     5.8645440   -0.9192530   -0.4557180  
C     6.8203830   -1.9070560   -0.2792480  
O     8.1280320   -1.6316740   -0.5163210  
C     6.4508070   -3.2163060    0.1551500  
O     7.5237790   -4.0693810    0.2855030  
C     5.1384590   -3.5522380    0.4070870  
H     2.0990350   -3.3682940    0.6947590  
H     3.3338670    0.3866920   -0.7641030  
H     6.1698680    0.0712100   -0.7761070  
H     8.6384940   -2.4394880   -0.3301370  
H     7.2214360   -4.9388370    0.5879790  
H     4.8754520   -4.5555730    0.7340270  
C     0.9558470   -0.7450700    0.0323040  
C    -0.2598070   -1.3875930   -0.0101360  
C    -1.2961600   -0.4003990    0.0317870  
C    -0.6102360    0.9069740    0.0874870  
N     0.7583300    0.6488990    0.0206290  
C    -1.2152440    2.1238630    0.1857020  
C    -2.6960900    2.1253060    0.1636130  
O    -3.3467510    3.1522340    0.1152490  
C    -3.4507400    0.7537390    0.1322540  
O    -4.6652360    0.7621890    0.2527580  
C    -2.6707970   -0.4897290    0.0040230  
H    -0.4017050   -2.4543610   -0.0958750  
H     1.4092790    1.2760090    0.4781950  
C    -2.8113810   -4.3458300    2.3165210  
C    -2.4580890   -3.0974480    1.9247040  
C    -3.2681420   -2.8264450    0.7412830  
C    -4.0831210   -4.0679360    0.5745800  
N    -3.8097770   -4.9515870    1.4941220  
C    -5.0595520   -4.2030060   -0.4753650  
C    -5.2195380   -3.1608050   -1.3220180  
O    -6.0831950   -3.1495130   -2.3505050  
C    -4.3851010   -1.9121610   -1.2129730  
O    -4.5016620   -1.0825560   -2.1087240  
C    -3.4073370   -1.7577820   -0.0866230  
H    -1.7479480   -2.4276070    2.3874960  
H    -5.6386680   -5.1154030   -0.5643680  
H    -5.9430850   -2.2866330   -2.7987500  
H    -2.4369400   -4.9057980    3.1656480  
C     1.5799880    4.0825910   -2.6111020  
C     1.8257160    5.2261120   -1.9234360  
C     1.0779930    5.1541900   -0.6837640  
C     0.3715160    3.8505410   -0.7062750  
N     0.7506500    3.2298540   -1.8836100  
C    -0.4900970    3.4042590    0.2557850  
C    -0.6812720    4.2814660    1.4330650  
O    -1.3336210    3.9416910    2.4032810  
C     0.0433820    5.6762630    1.4615230  
O    -0.1498100    6.4172610    2.4115940  
C     0.9299280    6.0240230    0.3504600  
H     2.4548670    6.0447610   -2.2412450  
H     1.4258950    6.9892820    0.3824210  
H     1.9414370    3.7754100   -3.5838250  
H     0.2831630    2.4181290   -2.2589730  
