60


C     2.0280120    0.4596340    1.4012800  
C     2.3761520    1.7760690    1.3342670  
C     3.4626040    1.8840870    0.3968450  
C     3.7504820    0.5792590   -0.0718410  
N     2.8568740   -0.2974850    0.5627210  
C     4.7190980    0.3307710   -1.0477550  
C     5.4327870    1.4192610   -1.5363240  
O     6.3968040    1.2218230   -2.4832530  
C     5.1707700    2.7275240   -1.0648700  
O     5.9582400    3.7041620   -1.6435950  
C     4.1943010    2.9699150   -0.1117940  
H     1.9073770    2.5752680    1.8924910  
H     4.9439930   -0.6592310   -1.4222730  
H     6.7854530    2.0910170   -2.6823030  
H     5.7545870    4.5621050   -1.2426970  
H     3.9906000    3.9838270    0.2264480  
H     1.2667520   -0.0243390    1.9918780  
C    -0.5850530   -2.8532370   -0.0777280  
C     0.0043210   -4.0857110   -0.0895470  
C     1.4174190   -3.8358830    0.0949890  
C     1.5215990   -2.3502110    0.2231720  
N     0.3567280   -1.7843670    0.1060150  
C     2.8030650   -1.6905100    0.4392730  
C     3.9063120   -2.4990860    0.5037680  
O     5.1472290   -2.0393550    0.7328880  
C     3.8249430   -3.9769400    0.3436610  
O     4.8717300   -4.6244700    0.4318900  
C     2.5145700   -4.6211800    0.1363180  
H    -0.4654920   -5.0492380   -0.2295460  
H     5.7217280   -2.8376430    0.7263840  
H     2.5019440   -5.7019270    0.0349410  
C    -1.9713190   -2.4869890   -0.2051660  
C    -3.1181840   -3.2417970   -0.2130470  
C    -4.2343290   -2.3438280   -0.3228090  
C    -3.6556960   -0.9763810   -0.3849670  
N    -2.2956600   -1.1313680   -0.3272930  
C    -4.4119400    0.1628220   -0.4860480  
C    -5.8736690    0.0119790   -0.5710280  
O    -6.6251950    0.9646940   -0.7073140  
C    -6.4866640   -1.4347930   -0.5075760  
O    -7.7007920   -1.5462250   -0.5794250  
C    -5.5791510   -2.5661090   -0.3844770  
H    -3.1761920   -4.3174060   -0.1317120  
H    -6.0095100   -3.5616280   -0.3481510  
H    -1.5965750   -0.4047610   -0.2434900  
C    -4.2567580    2.4357410   -1.4881350  
C    -3.5365030    3.5736670   -1.3530210  
C    -2.6191380    3.3809290   -0.2537400  
C    -2.8798690    2.0128050    0.2656120  
N    -3.8687330    1.4643610   -0.5442760  
C    -2.2537530    1.4846650    1.3524860  
C    -1.2067740    2.2677550    2.0010360  
O    -0.5774240    1.8612830    2.9678670  
C    -0.8690820    3.6863900    1.4182900  
O     0.0525310    4.3237510    1.9071890  
C    -1.6739180    4.1822950    0.3030750  
H    -3.6304480    4.4641770   -1.9573390  
H    -2.4980110    0.5181200    1.7773850  
H    -1.4701200    5.1847080   -0.0607060  
H    -5.0433570    2.1961790   -2.1866470  
