60


C    -2.8568530   -2.3134130    2.5487450  
C    -3.4905280   -3.3819910    1.9733980  
C    -4.3145100   -2.8627860    0.9176050  
C    -4.1419610   -1.4542620    0.9104460  
N    -3.2731300   -1.1421600    1.9377490  
C    -4.8182930   -0.5959280    0.0136590  
C    -5.6404490   -1.2238550   -0.9286220  
O    -6.2762480   -0.4850340   -1.8813420  
C    -5.8178070   -2.6313500   -0.9318810  
O    -6.6747540   -3.0773070   -1.9236180  
C    -5.1838690   -3.4514550   -0.0204750  
H    -3.3914410   -4.4178210    2.2678060  
H    -2.7663590   -0.2691120    1.9680900  
H    -6.8121670   -1.1031740   -2.4081860  
H    -6.7458380   -4.0419030   -1.8772690  
H    -5.3446850   -4.5276480   -0.0390460  
H    -2.1468120   -2.2804030    3.3633950  
C    -1.3111170    2.1049230    0.0098280  
C    -1.9235030    3.3358610   -0.0119470  
C    -3.3333920    3.0768040    0.0156140  
C    -3.4424630    1.5746300    0.0428100  
N    -2.2600720    1.0239320    0.0524140  
C    -4.7166100    0.8811190    0.0618630  
C    -5.8158940    1.6934620    0.1210270  
O    -7.0671990    1.2440450    0.2123960  
C    -5.7383340    3.2057910    0.0980910  
O    -6.8089810    3.8152830    0.1502170  
C    -4.4379760    3.8628200    0.0332870  
H    -1.4533300    4.3084180   -0.0557140  
H    -7.6284340    2.0543820    0.2255530  
H    -4.4186590    4.9477550    0.0190150  
C     1.1644900    2.6317360    0.0562880  
C     0.0854440    1.7842630   -0.0061520  
C     0.6963110    0.4451570   -0.1069550  
C     2.1659930    0.6995030   -0.0881030  
N     2.4058080    1.9869940    0.0093430  
C     3.1624380   -0.3641190   -0.1698770  
C     2.6379770   -1.6391810   -0.2837450  
O     3.3417830   -2.7599790   -0.3847560  
C     1.1483750   -1.9051620   -0.3140130  
O     0.7969640   -3.0780040   -0.4240590  
C     0.1881490   -0.7947740   -0.2160000  
H     2.6663960   -3.4774680   -0.4530180  
H    -0.8733910   -1.0129230   -0.2373880  
H     1.1454690    3.7119440    0.1429050  
C     4.5847900   -0.0679820   -0.1334670  
C     5.2000400    1.1559750   -0.0609790  
C     6.6182100    0.8827870   -0.0518120  
C     6.7085180   -0.6101030   -0.1246350  
N     5.5347430   -1.1595600   -0.1716170  
C     7.9806710   -1.2896600   -0.1362830  
C     9.0982940   -0.5289770   -0.0800520  
O    10.3478020   -1.0174820   -0.0832610  
C     9.0380280    0.9798220   -0.0066030  
O    10.1109250    1.5825150    0.0413470  
C     7.7319470    1.6497860    0.0049450  
H     4.7199770    2.1195690   -0.0182790  
H     8.0189790   -2.3719590   -0.1893030  
H    10.9315670   -0.2271570   -0.0345730  
H     7.7282630    2.7341230    0.0593710  
