64


C    -6.7642540   -2.8849870   -1.5223130  
C    -7.8877790   -2.1012180   -1.4964050  
C    -7.4917250   -0.8112000   -1.0049620  
C    -6.0964210   -0.8732220   -0.7522200  
N    -5.6809530   -2.1478920   -1.0787620  
C    -5.3545630    0.2064670   -0.2238580  
C    -6.0729980    1.3766290    0.0328360  
O    -5.4197880    2.4796090    0.4929890  
C    -7.4655410    1.4562780   -0.2223830  
O    -8.0144740    2.6923230    0.0735310  
C    -8.1783600    0.3880090   -0.7321750  
H    -8.8832400   -2.4062250   -1.7888220  
H    -4.7400420   -2.4917820   -0.9691030  
H    -6.0968950    3.1430000    0.7125460  
H    -8.9804200    2.6272710    0.0499680  
H    -9.2469170    0.4769940   -0.9183150  
H    -6.6378720   -3.9152210   -1.8240390  
C    -1.8011420   -0.8256830   -2.6925030  
C    -3.0545610   -0.5332360   -2.2570380  
C    -2.9618250   -0.2319910   -0.8398690  
C    -1.5307510   -0.3655990   -0.4879180  
N    -0.8840000   -0.7373040   -1.6535160  
C    -0.9776890   -0.1456700    0.7433570  
C    -1.9110230    0.2885890    1.7972480  
O    -1.5494190    0.6523090    2.9028760  
C    -3.4530060    0.3138470    1.4814640  
O    -4.2210730    0.4638160    2.4138330  
C    -3.9137450    0.1131260    0.0835730  
H    -3.9545380   -0.5140830   -2.8526720  
H    -1.4648400   -1.0948550   -3.6852700  
H     0.1115960   -0.8814290   -1.7235360  
C     2.4897490    1.9696320   -1.0262380  
C     3.4888670    1.3534950   -0.3089150  
C     2.8296660    0.4015550    0.5606590  
C     1.4381010    0.4897880    0.3110360  
N     1.2578790    1.4366600   -0.6812480  
C     0.4710110   -0.2638080    1.0114720  
C     0.9620590   -1.1270630    1.9945410  
O     0.1002380   -1.9239190    2.6821570  
C     2.3518800   -1.2185730    2.2626510  
O     2.6677180   -2.1254050    3.2601780  
C     3.2847140   -0.4748600    1.5644690  
H     0.3651060    1.8410160   -0.9210940  
H     0.6107100   -2.3542310    3.3903190  
H     3.5764720   -1.9694400    3.5571350  
H     4.3446280   -0.5585990    1.7919370  
H     2.5661580    2.7265440   -1.7941450  
C     5.5135590    2.8759590   -0.3798520  
C     4.9243040    1.6315390   -0.3991890  
C     6.0035370    0.6786560   -0.5460060  
C     7.2142850    1.4154970   -0.6084460  
N     6.8834290    2.7522820   -0.5133110  
C     8.4655670    0.8043920   -0.7607440  
C     8.4959530   -0.5779850   -0.8576880  
O     9.6902580   -1.2252100   -1.0049410  
C     7.2935670   -1.3315480   -0.8105650  
O     7.4850150   -2.6976940   -0.9285280  
C     6.0600580   -0.7251970   -0.6611090  
H     7.5411220    3.5153230   -0.4908830  
H     9.3935460    1.3653560   -0.8086320  
H     9.4938450   -2.1756550   -1.0683180  
H     6.6245280   -3.1420980   -0.9302620  
H     5.1508190   -1.3216730   -0.6347730  
H     5.0549770    3.8472430   -0.2584070  
