64


C     5.8838570   -1.9601130   -3.0606320  
C     7.1646400   -2.1341760   -2.6025140  
C     7.2736670   -1.4004660   -1.3744820  
C     6.0068100   -0.8026750   -1.1328640  
N     5.1865330   -1.1561350   -2.1831480  
C     5.7284690    0.0266900   -0.0205990  
C     6.8111430    0.2440180    0.8300150  
O     6.6638240    1.0724300    1.9302020  
C     8.0805120   -0.3415970    0.6126160  
O     9.0165700   -0.0087110    1.5781120  
C     8.3258830   -1.1645240   -0.4686180  
H     7.9426980   -2.7078890   -3.0869700  
H     4.2150550   -0.8951550   -2.2601690  
H     7.5241410    1.0889480    2.3877660  
H     9.8671050   -0.4155770    1.3573990  
H     9.3100720   -1.6028400   -0.6205700  
H     5.4036880   -2.3423690   -3.9504910  
C     1.6067740   -1.7384600    0.0159770  
C     2.9588610   -1.5538560    0.0001970  
C     3.2031770   -0.1359630    0.0977510  
C     1.9364750    0.4945050    0.1733120  
N     0.9592330   -0.5039820    0.1120060  
C     1.7859820    1.8699300    0.3721830  
C     2.9476580    2.6140390    0.4971910  
O     2.8800470    3.9561400    0.7120630  
C     4.2308520    2.0105130    0.4064520  
O     5.2757460    2.9014350    0.5227470  
C     4.3913580    0.6422930    0.1776090  
H     3.7014260   -2.3360440   -0.0654500  
H     0.8218770    2.3587610    0.4352390  
H     3.8066420    4.2551290    0.7836410  
H     5.9491140    2.4953550    1.1107380  
H     1.0206620   -2.6421200   -0.0655780  
C    -2.0642600   -2.3956860    2.6483290  
C    -0.8934090   -1.9720710    2.1035180  
C    -1.2250570   -1.0638890    1.0281780  
C    -2.6913500   -1.0067660    0.9742230  
N    -3.1477860   -1.8693290    1.9534530  
C    -3.4479110   -0.2161330    0.1329820  
C    -2.6681640    0.7118410   -0.6987230  
O    -3.1577940    1.6388000   -1.3343740  
C    -1.1029420    0.5437420   -0.7986220  
O    -0.5253850    1.1496890   -1.6840620  
C    -0.4335360   -0.3361650    0.1691060  
H     0.1015100   -2.2443150    2.4213020  
H    -2.2329100   -3.0553420    3.4889580  
H    -4.0924890   -1.8245630    2.3091240  
C    -4.8956890   -0.2308310    0.0863670  
C    -5.8150580   -1.1877190    0.5224560  
C    -7.1181000   -0.7070590    0.2097050  
C    -6.9513820    0.5596130   -0.4214590  
N    -5.6051260    0.8188500   -0.4759150  
C    -8.0339410    1.3257980   -0.8713400  
C    -9.3048390    0.8061760   -0.6857270  
O   -10.3946920    1.5078700   -1.1052850  
C    -9.4908570   -0.4599690   -0.0589800  
O   -10.8167970   -0.8327060    0.0499070  
C    -8.4246680   -1.2140140    0.3861350  
H    -5.5793120   -2.1660280    0.9176160  
H    -5.1317420    1.5875590   -0.9349100  
H    -7.9115520    2.2901350   -1.3528530  
H   -11.1812570    0.9761990   -0.8928330  
H   -10.8745700   -1.7089520    0.4584780  
H    -8.5920360   -2.1784520    0.8618450  
