62


C     3.7947710   -2.1173160   -1.4434420  
C     4.1234450   -0.9969020   -0.6988910  
C     5.4955020   -1.1791830   -0.2656040  
C     5.9287350   -2.4227000   -0.7871540  
N     4.8679550   -2.9649050   -1.4943380  
C     7.2084060   -2.9407520   -0.5600700  
C     8.0731140   -2.1876100    0.2185220  
O     9.3313280   -2.6432440    0.4699230  
C     7.6526840   -0.9465170    0.7681150  
O     8.6167660   -0.3256640    1.5339260  
C     6.3853990   -0.4403270    0.5407670  
H     4.8936870   -3.8345830   -2.0048250  
H     7.5377590   -3.8945680   -0.9588910  
H     9.7703030   -1.9891150    1.0409210  
H     8.2588930    0.4880910    1.9189390  
H     6.0816400    0.4960380    1.0024540  
H     2.8768890   -2.3454870   -1.9658870  
C     3.2421930    0.1177950   -0.4494300  
C     1.8714970    0.1760130   -0.4082150  
C     1.4793870    1.5430360   -0.1884830  
C     2.7395060    2.3170110   -0.1038380  
N     3.7742710    1.3962450   -0.1964900  
C     2.8147530    3.6653460    0.0147370  
C     1.5686980    4.4161200    0.1050990  
O     1.5301960    5.6345570    0.1885010  
C     0.2160020    3.6136380    0.1220180  
O    -0.8135240    4.2303310    0.3353590  
C     0.2499870    2.1464500   -0.0816820  
H     1.2032420   -0.6678070   -0.4956730  
H     3.7518290    4.2135190    0.0411940  
H     4.6933940    1.6568140   -0.5259840  
C    -1.2647820   -1.1536690    2.4388350  
C    -2.4849290   -1.3115570    1.8335280  
C    -2.5671960   -0.3432410    0.7740900  
C    -1.3394880    0.3692630    0.7807360  
N    -0.5747120   -0.1357710    1.8122470  
C    -1.0215200    1.3972790   -0.1292370  
C    -1.9934000    1.6599020   -1.0974500  
O    -1.7548350    2.5847740   -2.0600950  
C    -3.2220730    0.9511370   -1.1438450  
O    -4.0508030    1.3593370   -2.1636800  
C    -3.5603200   -0.0246220   -0.2004060  
H    -3.2360060   -2.0357180    2.1122500  
H     0.3573010    0.1745260    2.0372900  
H    -2.5547220    2.5905940   -2.6211750  
H    -4.4273110    0.5436290   -2.5674890  
H    -0.8247080   -1.6862260    3.2701450  
C    -6.5481250   -0.6476720    3.0180720  
C    -5.4921800   -0.2369870    2.2689830  
C    -5.6419640   -0.8144790    0.9519540  
C    -6.8963860   -1.6058740    0.9955590  
N    -7.3816570   -1.4849220    2.2812340  
C    -7.4134490   -2.3101610   -0.0458100  
C    -6.7021280   -2.2536890   -1.3074140  
O    -7.0334100   -2.8724000   -2.3074780  
C    -5.4429060   -1.3118940   -1.4056880  
O    -5.0010180   -1.1100120   -2.5356820  
C    -4.8737670   -0.7059360   -0.1880340  
H    -4.6897440    0.4080620    2.5897200  
H    -8.3076870   -2.9210490    0.0233480  
H    -6.7941170   -0.4124510    4.0450510  
H    -8.2660540   -1.8516510    2.5959210  
