60


C    -3.3782170   -2.6336410    2.4289680  
C    -4.4769860   -3.3944080    2.1327020  
C    -5.2505280   -2.6536850    1.1763750  
C    -4.5697050   -1.4279670    0.9530290  
N    -3.4467850   -1.4245590    1.7578320  
C    -5.0501940   -0.4237310    0.0787120  
C    -6.2005190   -0.7620940   -0.6533430  
O    -6.6764350    0.0774220   -1.6140010  
C    -6.8837040   -1.9852640   -0.4372670  
O    -8.0170340   -2.1323310   -1.2216810  
C    -6.4440520   -2.9177100    0.4795610  
H    -4.7126880   -4.3674870    2.5417060  
H    -2.6345490   -0.8827850    1.4786930  
H    -7.4650290   -0.3493270   -1.9931340  
H    -8.3378660   -3.0432790   -1.1526700  
H    -6.9953750   -3.8427120    0.6370280  
H    -2.5401700   -2.8480430    3.0777420  
C    -0.8400670    0.9491230   -0.4387300  
C    -1.0356530    2.2867740   -0.6765570  
C    -2.4580610    2.5054310   -0.5653140  
C    -3.0236850    1.1486950   -0.2558690  
N    -2.0707740    0.2615540   -0.1683480  
C    -4.4494820    0.9217920   -0.0691830  
C    -5.2131180    2.0617760   -0.0497990  
O    -6.5207440    2.0748320    0.2254590  
C    -4.6702190    3.4322380   -0.3460100  
O    -5.4628840    4.3768310   -0.3169580  
C    -3.2423420    3.6027380   -0.6268660  
H    -0.3059170    3.0201230   -0.9933950  
H    -6.7911610    3.0173540    0.1399840  
H    -2.8840340    4.6074680   -0.8282450  
C     3.0863710    2.1770230    1.0358440  
C     3.8102500    1.0409650    0.8064220  
C     2.8789150    0.0830650    0.2080370  
C     1.5765160    0.7741520    0.0952110  
N     1.7753940    2.0372220    0.6005230  
C     0.4119640    0.2158820   -0.3806170  
C     0.5047480   -1.1863910   -0.8576160  
O    -0.3968240   -1.7575200   -1.4391880  
C     1.8582780   -1.9578970   -0.6547440  
O     1.9058060   -3.1443490   -0.9326470  
C     3.0181130   -1.2221370   -0.1446950  
H     3.9490710   -1.7676850   -0.0304640  
H     3.4186300    3.1139170    1.4624350  
H     1.0250670    2.6942600    0.7609150  
C     5.8565510    1.1996430    2.2907210  
C     5.2109940    0.8349480    1.1472480  
C     6.2778640    0.2588210    0.3028150  
C     7.5077320    0.3674460    1.1452010  
N     7.2502260    0.9211580    2.2976340  
C     8.7879450   -0.0914820    0.6750630  
C     8.8575810   -0.6056740   -0.5764470  
O     9.9844850   -1.0642520   -1.1419490  
C     7.6432970   -0.6986600   -1.4598790  
O     7.7861850   -1.1664480   -2.5865680  
C     6.3344300   -0.2315960   -0.9494400  
H     9.6597620   -0.0099400    1.3146030  
H     9.7268880   -1.3658610   -2.0405710  
H     5.4855140   -0.3182090   -1.6203830  
H     5.4148990    1.6520890    3.1713280  
