64


C    -3.5596750    0.3060080   -0.6003150  
C    -3.8789180    1.5994330   -0.9550220  
C    -5.2764680    1.7925970   -0.6997150  
C    -5.7744030    0.5692050   -0.1779780  
N    -4.7067670   -0.3066440   -0.0946180  
C    -7.1159420    0.3881330    0.1754100  
C    -7.9749300    1.4643440    0.0063690  
O    -9.2966190    1.3389750    0.3318750  
C    -7.4932160    2.6993290   -0.4993570  
O    -8.4657090    3.6790870   -0.6024310  
C    -6.1661640    2.8752590   -0.8482670  
H    -3.1761960    2.3397740   -1.3130960  
H    -4.7946200   -1.3064760    0.0099910  
H    -7.5013740   -0.5472520    0.5686820  
H    -9.7200850    2.1926870    0.1377020  
H    -8.0735720    4.4811310   -0.9775520  
H    -5.8226410    3.8327500   -1.2358320  
C    -1.3543420   -0.2928090   -1.6725210  
C    -2.3014660   -0.4188640   -0.6794060  
C    -1.7865820   -1.4036650    0.2500830  
C    -0.5269880   -1.8256840   -0.2411830  
N    -0.2792260   -1.1147340   -1.3998390  
C     0.2718080   -2.7999730    0.3965420  
C    -0.2432860   -3.3374890    1.5784240  
O     0.4880240   -4.2445430    2.2780160  
C    -1.4947920   -2.9101770    2.0940400  
O    -1.8383640   -3.5209710    3.2844600  
C    -2.2647240   -1.9568380    1.4544730  
H     0.4875510   -1.2997460   -2.0279680  
H    -0.0619240   -4.5548220    3.0182140  
H    -2.7258760   -3.2386380    3.5503550  
H    -3.2070700   -1.6285150    1.8870470  
H    -1.3769610    0.3142300   -2.5662280  
C     3.9437510   -0.5411120   -0.4067140  
C     4.7241330   -1.5609350   -0.8927840  
C     3.9405290   -2.7651060   -0.9010440  
C     2.6095970   -2.3884010   -0.3775380  
N     2.6401220   -1.0131240   -0.1549980  
C     1.5737740   -3.2424510   -0.1489070  
C     1.7929680   -4.6581270   -0.5330020  
O     0.9145850   -5.4989650   -0.4708620  
C     3.2015520   -5.0792420   -1.0949040  
O     3.3877510   -6.2579350   -1.3656020  
C     4.2181070   -4.0510100   -1.2647990  
H     5.7372520   -1.4598570   -1.2551410  
H     5.1868860   -4.3546670   -1.6493960  
H     2.0586150   -0.6076600    0.5684630  
C     4.2502450    0.8448200   -0.1941070  
C     5.4728400    1.4793790   -0.0477380  
C     5.2180980    2.8654140    0.1545090  
C     3.8057520    3.0401960    0.1210940  
N     3.2376020    1.7963070   -0.0546930  
C     3.1964470    4.2925290    0.2608030  
C     4.0262150    5.3858400    0.4511470  
O     3.4895760    6.6266830    0.5933630  
C     5.4429320    5.2284500    0.5050360  
O     6.1180340    6.4135270    0.7071840  
C     6.0414590    3.9945500    0.3634820  
H     6.4348930    0.9856340   -0.0428580  
H     2.2829920    1.6430270   -0.3468840  
H     2.1210670    4.4331740    0.2327510  
H     4.2249970    7.2509370    0.7225480  
H     7.0718700    6.2470460    0.7390720  
H     7.1239850    3.8961160    0.4044620  
