60


C     3.7335860    4.0196970   -0.8829100  
C     3.0194360    2.8786210   -0.5154780  
C     1.7046770    3.3421460   -0.0940640  
C     1.7008370    4.7482790   -0.2337790  
N     2.9511880    5.1198700   -0.7178470  
C     0.6002680    5.5493810    0.0863700  
C    -0.5297570    4.9045880    0.5657360  
O    -1.6361190    5.6261000    0.8969260  
C    -0.5488520    3.4906690    0.7185820  
O    -1.7411910    3.0122970    1.2085180  
C     0.5469590    2.7081830    0.3971720  
H     3.2373260    6.0675040   -0.9150530  
H     0.6017900    6.6292290   -0.0199650  
H    -2.2995490    4.9916740    1.2215570  
H    -1.7276110    2.0443240    1.3055970  
H     0.5311710    1.6310210    0.5197840  
H     4.7441510    4.1070970   -1.2555400  
C     3.5166200    1.5394000   -0.5527780  
C     4.7717340    1.0557910   -0.8716800  
C     4.7044640   -0.3601220   -0.7209390  
C     3.2825550   -0.6191650   -0.2976580  
N     2.6030050    0.4831090   -0.2039830  
C     2.7814600   -1.9541130   -0.0249260  
C     3.6862260   -2.9648590   -0.1615350  
O     3.3989980   -4.2503940    0.0184380  
C     5.1300510   -2.7339140   -0.5903110  
O     5.8242340   -3.7524270   -0.6849580  
C     5.5901620   -1.3892330   -0.8591000  
H     5.6462160    1.6262970   -1.1527160  
H     4.2542730   -4.7196670   -0.1444810  
H     6.6259280   -1.2603920   -1.1562100  
C    -1.1482280   -0.8532360   -1.7394150  
C     0.1626810   -1.1130020   -1.5383520  
C     0.3046620   -1.6940930   -0.2191590  
C    -1.0573530   -1.7620150    0.3484490  
N    -1.9131690   -1.1897660   -0.6043790  
C    -1.3735380   -2.3539830    1.5251580  
C    -0.2867310   -2.9139750    2.3231820  
O    -0.4724620   -3.4961140    3.3795150  
C     1.1849130   -2.7508080    1.7987390  
O     2.0990950   -3.1100970    2.5165920  
C     1.4025260   -2.1435610    0.4587260  
H     0.9653080   -0.9033040   -2.2278990  
H    -2.3843860   -2.4431660    1.9068320  
H    -1.6477200   -0.4095500   -2.5894960  
C    -5.4616990   -2.1768070   -3.0545140  
C    -4.1709220   -2.1144500   -2.6434380  
C    -4.2103200   -1.3532850   -1.4004300  
C    -5.6486800   -1.0236500   -1.2171390  
N    -6.3775980   -1.5131940   -2.1812790  
C    -6.1264870   -0.2835860   -0.0752440  
C    -5.2208560    0.1342160    0.8389710  
O    -5.5363730    0.8378960    1.9410480  
C    -3.7574190   -0.1268300    0.6654900  
O    -2.9778560    0.4207040    1.4447870  
C    -3.2876890   -0.9771420   -0.4770790  
H    -3.3000810   -2.5523780   -3.1101300  
H    -7.1848980   -0.0717420    0.0266200  
H    -4.6889540    1.0728280    2.3725390  
H    -5.8552790   -2.6684750   -3.9358300  
