62


C     0.5563010   -3.1150070   -1.3147970  
C     1.5625420   -2.4608180   -0.6254370  
C     2.4463930   -3.4986470   -0.1237940  
C     1.9145940   -4.7405560   -0.5538060  
N     0.7705540   -4.4687830   -1.2827350  
C     2.4887400   -5.9755110   -0.2324650  
C     3.6304390   -5.9631510    0.5527810  
O     4.2373080   -7.1366820    0.8967840  
C     4.1729380   -4.7334770    1.0059720  
O     5.3073590   -4.8779200    1.7845690  
C     3.5998600   -3.5167840    0.6859950  
H     0.1870110   -5.1596650   -1.7279100  
H     2.0755580   -6.9214920   -0.5676550  
H     5.0158240   -6.9078720    1.4333600  
H     5.6551090   -4.0019730    2.0079840  
H     4.0484650   -2.5929450    1.0348770  
H    -0.2935330   -2.6965030   -1.8297680  
C    -1.6212290    0.5111860   -0.1612700  
C    -0.8991950    1.6805700   -0.0666810  
C     0.4712230    1.2982010   -0.1562370  
C     0.4403830   -0.1995610   -0.3239950  
N    -0.7842550   -0.6432900   -0.3209670  
C     1.6462650   -1.0076050   -0.4684150  
C     2.8108590   -0.2894860   -0.4584290  
O     4.0282450   -0.8437860   -0.6003990  
C     2.8834290    1.1981200   -0.2766730  
O     4.0173140    1.6876070   -0.2158850  
C     1.6538980    1.9939250   -0.1540780  
H    -1.2829350    2.6809420    0.0682590  
H     4.6482580   -0.0778770   -0.5423660  
C     0.2296070    5.1012690    2.7582760  
C     0.4289820    3.9044690    2.1537300  
C     1.2154600    4.2060600    0.9630500  
C     1.4049070    5.6869600    1.0254680  
N     0.8284300    6.2035320    2.0752900  
C     2.1675960    6.3999400    0.0337760  
C     2.7148230    5.6824590   -0.9733100  
O     3.4382340    6.2141090   -1.9728610  
C     2.5211850    4.1940610   -1.0871680  
O     2.9502850    3.6517280   -2.1005220  
C     1.7709840    3.4513730   -0.0233450  
H     0.0880870    2.9298590    2.4711620  
H     2.2861730    7.4751330    0.1094850  
H     3.6564800    5.4604670   -2.5642090  
H    -0.3105980    5.2985700    3.6769390  
C    -3.0241680    0.2778970   -0.1166630  
C    -4.1161070    1.1418770   -0.0063830  
C    -5.2862770    0.3480400   -0.0022920  
C    -4.8691840   -1.0190540   -0.1105790  
N    -3.5051730   -1.0239440   -0.1835030  
C    -5.7804220   -2.0830170   -0.1309630  
C    -7.1259580   -1.7698910   -0.0442940  
O    -8.0545130   -2.7595740   -0.0594850  
C    -7.5619700   -0.4103630    0.0612440  
O    -8.9319880   -0.2847740    0.1361780  
C    -6.6702950    0.6366920    0.0825470  
H    -4.0577510    2.2197370    0.0575450  
H    -2.8814390   -1.8170390   -0.2354440  
H    -5.4736700   -3.1203540   -0.2099810  
H    -8.9311920   -2.3421570    0.0111740  
H    -9.1734510    0.6507860    0.2084030  
H    -7.0208580    1.6630970    0.1639380  
