64


C    -5.2193070   -0.4832740    2.2616220  
C    -6.3263810   -1.2795630    2.1641150  
C    -6.3040860   -1.8812660    0.8605930  
C    -5.1360790   -1.4087770    0.2070130  
N    -4.4803140   -0.5465660    1.0810720  
C    -4.7774410   -1.8174650   -1.0883610  
C    -5.6279680   -2.7017680   -1.7395440  
O    -5.3230560   -3.1308370   -2.9969080  
C    -6.8072880   -3.1713340   -1.1050840  
O    -7.5489320   -4.0399170   -1.8816850  
C    -7.1455430   -2.7803170    0.1782740  
H    -7.0762070   -1.4187730    2.9308190  
H    -3.8507000   -1.5178210   -1.5670640  
H    -6.0179730   -3.7566500   -3.2653920  
H    -8.3036060   -4.3693510   -1.3716400  
H    -8.0482840   -3.1646870    0.6491460  
H    -4.8811630    0.1561920    3.0638820  
C    -0.6150080   -0.1391990    3.2156830  
C    -1.8657690   -0.5449970    2.8293910  
C    -2.1833190    0.1742070    1.6293290  
C    -1.0684610    1.0004900    1.3244140  
N    -0.1359970    0.7938340    2.3185420  
C    -1.0066610    1.8602430    0.2021140  
C    -2.1590010    1.8708030   -0.5823980  
O    -2.2313220    2.7023320   -1.6826570  
C    -3.2990730    1.0846410   -0.2950820  
O    -4.3517240    1.2923420   -1.1601240  
C    -3.3234070    0.2238990    0.7974310  
H    -2.4893170   -1.2672710    3.3356530  
H     0.7755750    1.2243470    2.3436750  
H    -3.0969880    2.5303300   -2.1015480  
H    -4.9400890    0.5158280   -1.1708760  
H    -0.0171930   -0.4392690    4.0646870  
C     3.3915470    0.8894460   -0.0598370  
C     2.0112630    0.8264670    0.0460030  
C     1.5003590    2.1525010   -0.0879340  
C     2.6228250    3.0054290   -0.2891970  
N     3.7535930    2.2156130   -0.2969090  
C     2.5087570    4.3853500   -0.4817690  
C     1.2237400    4.9005290   -0.5143190  
O     1.0235060    6.2235890   -0.7242840  
C     0.0770090    4.0681490   -0.3332310  
O    -1.1102880    4.7589330   -0.3810020  
C     0.1811380    2.7013400   -0.0880460  
H     1.4378340   -0.0846620    0.1374860  
H     4.6909270    2.5702910   -0.1722900  
H     3.3623460    5.0367800   -0.6355900  
H     0.0538790    6.3459350   -0.7386330  
H    -1.7457380    4.2323110   -0.9156090  
C     4.3703640   -0.1583740   -0.0128500  
C     4.2980820   -1.4118110    0.5416540  
C     5.5481330   -2.0798600    0.3123510  
C     6.3927610   -1.1202970   -0.4387140  
N     5.6573750    0.0581160   -0.5513610  
C     7.6339210   -1.3952470   -0.9036510  
C     8.2076360   -2.7114860   -0.6181120  
O     9.3218290   -3.0406290   -0.9946300  
C     7.3507750   -3.7273420    0.2214400  
O     7.8267390   -4.8249170    0.4782840  
C     6.0169930   -3.3169000    0.6465840  
H     3.4611570   -1.8025490    1.1027430  
H     8.2358850   -0.6848000   -1.4624690  
H     5.4245500   -4.0335640    1.2072400  
H     5.7854310    0.6679450   -1.3488720  
