62


C     2.8667220   -2.3214830   -1.5091090  
C     3.2138600   -1.2662670   -0.6765920  
C     4.5455010   -1.5757900   -0.1789790  
C     4.9177330   -2.8251770   -0.7335380  
N     3.8753890   -3.2475800   -1.5417950  
C     6.1324630   -3.4614170   -0.4530450  
C     7.0016560   -2.8171630    0.4126510  
O     8.2066130   -3.3784850    0.7169790  
C     6.6476550   -1.5669570    0.9841730  
O     7.6130640   -1.0445810    1.8250940  
C     5.4437670   -0.9490340    0.7068900  
H     3.8909560   -4.0678130   -2.1280200  
H     6.4113390   -4.4162890   -0.8868460  
H     8.6720980   -2.7516950    1.2981340  
H     7.3977590   -0.1207450    2.0230880  
H     5.2158880    0.0218370    1.1325710  
H     1.9865450   -2.4425420   -2.1235220  
C    -1.1930900   -0.9338160   -0.1724120  
C     0.1019270   -1.3744570   -0.2587930  
C     0.9731380   -0.2306310   -0.2884060  
C     0.0913780    0.9479330   -0.1892350  
N    -1.2128610    0.4761050   -0.2024680  
C     0.5025330    2.2541710   -0.1047120  
C     1.9556870    2.4650490   -0.0586230  
O     2.4652310    3.5396300    0.2107120  
C     2.9120960    1.2412100   -0.3028900  
O     4.1063570    1.4816880   -0.3855940  
C     2.3481770   -0.1237670   -0.4058070  
H     0.4068440   -2.4072340   -0.3235170  
H    -1.9502740    1.0004180    0.2561960  
C    -2.8668030    3.2466010    2.5690170  
C    -3.2474720    4.4229050    2.0158540  
C    -2.3679980    4.6870810    0.8928000  
C    -1.4337070    3.5466290    0.8323530  
N    -1.8279760    2.6505060    1.8382410  
C    -0.3998240    3.4110440   -0.0454030  
C    -0.2619440    4.4950500   -1.0574710  
O     0.5152760    4.4222500   -1.9895340  
C    -1.2178510    5.7414110   -0.9735030  
O    -1.0395200    6.6660380   -1.7511690  
C    -2.2825220    5.7319690    0.0255150  
H    -4.0602660    5.0536750    2.3470100  
H    -2.9538940    6.5842730    0.0622640  
H    -3.2703210    2.7330920    3.4322000  
H    -1.1348700    2.0661150    2.2918520  
C    -2.4264450   -1.6660540   -0.0978720  
C    -2.6737810   -2.9652950    0.3114170  
C    -4.0768340   -3.1927430    0.2044920  
C    -4.6587630   -1.9897760   -0.2837040  
N    -3.6446470   -1.0625860   -0.4210040  
C    -6.0290350   -1.8622140   -0.5364120  
C    -6.8297620   -2.9640800   -0.2788740  
O    -8.1690610   -2.8961310   -0.5064440  
C    -6.2681120   -4.1716470    0.2285400  
O    -7.2012140   -5.1654740    0.4381770  
C    -4.9161940   -4.2963000    0.4737140  
H    -1.9290990   -3.6526100    0.6890400  
H    -3.7142510   -0.2332620   -0.9937280  
H    -6.4778380   -0.9500930   -0.9156090  
H    -8.5501930   -3.7596130   -0.2693790  
H    -6.7612010   -5.9656070    0.7616330  
H    -4.5074380   -5.2284140    0.8578300  
