62


C    -2.7909320   -4.0614430   -0.6339210  
C    -4.0272620   -4.5575350   -0.3206240  
C    -4.8611110   -3.4332310   -0.0052160  
C    -4.0607750   -2.2673360   -0.1330810  
N    -2.8030160   -2.6835880   -0.5097750  
C    -4.5618290   -0.9563470    0.0841740  
C    -5.9289920   -0.8765950    0.3961960  
O    -6.5224480    0.3404280    0.6042550  
C    -6.7313080   -2.0336710    0.5304620  
O    -8.0446450   -1.7541930    0.8570130  
C    -6.2174390   -3.3024300    0.3449190  
H    -4.3155800   -5.5993810   -0.3158720  
H    -2.0531510   -2.0702490   -0.7903460  
H    -7.4518920    0.1702030    0.8422050  
H    -8.5260030   -2.5780440    1.0228780  
H    -6.8544890   -4.1775810    0.4529440  
H    -1.8854120   -4.5726400   -0.9281540  
C    -3.7057900    0.2179690   -0.0094250  
C    -2.3344050    0.3064850    0.0965100  
C    -1.9557570    1.6822160   -0.0782870  
C    -3.2184080    2.4285840   -0.2823590  
N    -4.2270320    1.4898790   -0.2638950  
C    -3.3011100    3.7756180   -0.4363150  
C    -2.0658080    4.5459150   -0.4097450  
O    -2.0351860    5.7643200   -0.5034750  
C    -0.7023030    3.7698880   -0.2747670  
O     0.3343140    4.4003580   -0.3909940  
C    -0.7315360    2.3031430   -0.0664900  
H    -1.6600910   -0.4840530    0.3852560  
H    -4.2396590    4.3063560   -0.5625490  
H    -5.2158320    1.6879760   -0.2107370  
C     0.9712570   -0.9696560   -2.4899660  
C     2.1377830   -1.1422870   -1.7879420  
C     2.1402450   -0.1827440   -0.7124440  
C     0.9221120    0.5360730   -0.8105150  
N     0.2314840    0.0349410   -1.8974730  
C     0.5363780    1.5608250    0.0785760  
C     1.4320140    1.8144550    1.1178050  
O     1.1258440    2.7328290    2.0643560  
C     2.6567090    1.1029030    1.2505260  
O     3.4040650    1.5029240    2.3294450  
C     3.0618100    0.1302110    0.3325730  
H     2.8883990   -1.8919140   -1.9937560  
H    -0.6329890    0.4201460   -2.2454390  
H     1.8775680    2.7312260    2.6886280  
H     3.7875910    0.6886060    2.7354310  
H     0.5985960   -1.4881750   -3.3623230  
C     6.1044910   -0.4076120   -2.7744960  
C     7.0285730   -1.1365700   -2.0974880  
C     6.5327990   -1.3065130   -0.7481600  
C     5.2193290   -0.6146710   -0.6996540  
N     5.0305280   -0.0826940   -1.9531810  
C     4.3900170   -0.5249210    0.3963200  
C     4.9450480   -1.0819760    1.6295060  
O     4.4411040   -0.9168640    2.7421420  
C     6.2765700   -1.9216900    1.5825990  
O     6.6246070   -2.5049080    2.5966060  
C     7.0399540   -1.9433770    0.3408680  
H     7.9670200   -1.5069420   -2.4831270  
H     7.9792700   -2.4867430    0.3275150  
H     6.1147760   -0.0662950   -3.8011780  
H     4.1749510    0.3665090   -2.2467130  
