60


C    -4.7688460    1.8687410    1.1384840  
C    -4.5214390    0.7518140    0.3475590  
C    -5.7662780   -0.0013820    0.3211780  
C    -6.6938540    0.7055910    1.1247040  
N    -6.0548410    1.8410530    1.5981030  
C    -7.9993590    0.2642220    1.3663640  
C    -8.3843780   -0.9300260    0.7784950  
O    -9.6453220   -1.4082260    0.9663120  
C    -7.4695250   -1.6601900   -0.0257940  
O    -7.9949230   -2.8268300   -0.5439570  
C    -6.1806770   -1.2186860   -0.2546460  
H    -6.4951310    2.5736270    2.1338540  
H    -8.7034660    0.8153560    1.9810790  
H    -9.7204810   -2.2302860    0.4506760  
H    -7.3794010   -3.1979700   -1.1939140  
H    -5.5160790   -1.7826380   -0.8993510  
H    -4.1243700    2.7100780    1.3481040  
C    -0.3634990    1.3611350    1.7650710  
C    -1.7035230    1.2121840    1.6775670  
C    -2.0291470    0.7778890    0.3276860  
C    -0.7500880    0.6585960   -0.3882070  
N     0.2272900    1.0848120    0.5129760  
C    -0.5754280    0.2013240   -1.6562310  
C    -1.7600310   -0.2183760   -2.3771750  
O    -1.7433750   -0.6916130   -3.5038000  
C    -3.1586260   -0.0727010   -1.6614800  
O    -4.1444870   -0.4268460   -2.2819860  
C    -3.2334780    0.4860710   -0.2763040  
H    -2.4101980    1.3642260    2.4790360  
H     0.3911730    0.1375090   -2.1437200  
H     0.2691610    1.6514800    2.5921480  
C     2.2654080   -0.2726570    0.4924220  
C     3.6005160   -0.1057650    0.2636760  
C     3.7910800    1.3093340   -0.0897830  
C     2.4510650    1.9369510   -0.0535750  
N     1.5693030    0.9207540    0.3163190  
C     2.1780210    3.2338930   -0.3246580  
C     3.2927830    4.1038010   -0.6993760  
O     3.1566260    5.2889050   -0.9541150  
C     4.7241830    3.4637250   -0.7763640  
O     5.6695610    4.1599030   -1.1048420  
C     4.8774240    2.0381990   -0.4453040  
H     1.1773360    3.6503260   -0.2866030  
H     5.8789490    1.6272030   -0.4799760  
H     1.7272210   -1.1604740    0.7952020  
C     3.6692920   -4.3569050   -1.0845850  
C     3.2859610   -3.0675830   -0.9196190  
C     4.3599240   -2.4458730   -0.1501860  
C     5.3402350   -3.5527590    0.0531290  
N     4.9299420   -4.6660110   -0.4861650  
C     6.5791300   -3.3531480    0.7604950  
C     6.8385870   -2.1144850    1.2361520  
O     7.9577080   -1.7824580    1.9014270  
C     5.8690940   -0.9779290    1.0638530  
O     6.1787420    0.1030040    1.5594540  
C     4.5780840   -1.1927410    0.3366820  
H     2.3974620   -2.5871050   -1.3034980  
H     7.2707020   -4.1783780    0.8880830  
H     7.8593210   -0.8340690    2.1340110  
H     3.1440520   -5.1434340   -1.6130920  
