60


C    -4.1915850   -0.0469830   -0.0112360  
C    -3.3755750    1.0791190    0.1688930  
C    -4.1656960    2.2318490   -0.0588100  
C    -5.4808660    1.7745720   -0.3799210  
N    -5.4608730    0.4073850   -0.3450080  
C    -6.5342800    2.6520000   -0.6630950  
C    -6.2620850    4.0098680   -0.6206030  
O    -7.2474700    4.9085950   -0.8856110  
C    -4.9543080    4.4862790   -0.2999900  
O    -4.8571220    5.8632320   -0.3022720  
C    -3.9163990    3.6242050   -0.0218830  
H    -2.3471010    1.0679060    0.4942900  
H    -6.2356130   -0.2392990   -0.4412660  
H    -7.5345820    2.3103910   -0.9063860  
H    -6.8622170    5.7982930   -0.8015850  
H    -3.9547680    6.1265190   -0.0685750  
H    -2.9280210    4.0101940    0.2197500  
C    -0.3794330   -2.4265650    0.1656600  
C    -1.3301080   -1.4223250    0.0063160  
C    -2.6249040   -1.9930050    0.1919760  
C    -2.3977250   -3.4254980    0.4671210  
N    -1.0357800   -3.6119460    0.4705280  
C    -3.3698480   -4.3574060    0.6758520  
C    -4.7455510   -3.9291840    0.5858610  
O    -5.7107140   -4.6591170    0.7647450  
C    -5.0302860   -2.4257410    0.2159630  
O    -6.2000540   -2.1250380    0.0026980  
C    -3.9089730   -1.4539740    0.1328800  
H    -1.1384310   -0.4287050   -0.3651040  
H    -3.1572360   -5.3974090    0.8997430  
H    -0.5368830   -4.4941140    0.4924060  
C     2.4195520    0.9377840    0.3746900  
C     3.5864570    0.3164220    0.0152880  
C     3.2517060   -1.1013460   -0.1574930  
C     1.7997480   -1.2165350    0.0738410  
N     1.3575130    0.0487740    0.3618610  
C     1.0577860   -2.3855810    0.0305860  
C     1.8393040   -3.6279370   -0.1156490  
O     1.3579680   -4.7501000   -0.0075710  
C     3.3749700   -3.5244550   -0.4091390  
O     3.9898860   -4.5564260   -0.6280990  
C     4.0075630   -2.2103450   -0.3930810  
H     5.0707360   -2.1669700   -0.5855240  
H     2.2691820    1.9680790    0.6562030  
H     0.4434400    0.2394950    0.7473010  
C     5.1257820    3.7669690    2.2234320  
C     6.3837170    3.8849970    1.7447740  
C     6.5140230    2.8249630    0.7507030  
C     5.1866850    2.1314290    0.7730850  
N     4.3852940    2.6911970    1.6318440  
C     4.8878850    0.9796290   -0.0808300  
C     5.8841290    0.6260420   -0.9490770  
O     5.7683710   -0.3533300   -1.8652640  
C     7.2171330    1.3073740   -0.9903220  
O     8.0382430    0.9009840   -1.8134610  
C     7.4955200    2.4344020   -0.0819440  
H     7.1435870    4.6021120    2.0222060  
H     6.6347620   -0.3703260   -2.3328300  
H     8.4751460    2.8978930   -0.1466950  
H     4.6360450    4.3715360    2.9770920  
