64


C     4.0693230   -0.8191380   -2.0942570  
C     4.7704590   -1.9907530   -2.1845100  
C     5.5614830   -2.1034000   -0.9920980  
C     5.2864020   -0.9550290   -0.2032880  
N     4.3675490   -0.1734730   -0.8977130  
C     5.8752920   -0.7420570    1.0536670  
C     6.7694140   -1.6997390    1.5115730  
O     7.3686380   -1.5418470    2.7270460  
C     7.0638310   -2.8477690    0.7303410  
O     7.9743370   -3.7049430    1.3194730  
C     6.4706840   -3.0601760   -0.5010160  
H     4.7347850   -2.6901190   -3.0087640  
H     5.6296010    0.1075930    1.6819480  
H     7.9352980   -2.3191000    2.8718360  
H     8.0933850   -4.4853990    0.7584630  
H     6.7052050   -3.9536120   -1.0767770  
H     3.3852460   -0.3530030   -2.7886060  
C     0.2066360    1.2865310   -0.2157560  
C     1.3189980    0.4934830   -0.4812400  
C     2.4749400    1.3205150   -0.3644520  
C     2.0238880    2.6238990   -0.0194520  
N     0.6532150    2.5734920    0.0505550  
C     2.8973700    3.6933100    0.2120200  
C     4.2550660    3.4443610    0.0867650  
O     5.1550370    4.4447550    0.3011370  
C     4.7369970    2.1583370   -0.2822260  
O     6.1052220    2.0878730   -0.4167800  
C     3.8645220    1.0990540   -0.5078530  
H     1.3204360   -0.5752290   -0.6357900  
H     0.0370340    3.3018620    0.3823910  
H     2.5546610    4.6840790    0.4906110  
H     6.0413240    4.0568490    0.1902970  
H     6.3946800    1.1594690   -0.3992400  
C    -1.9670770   -1.9942200   -2.1857000  
C    -3.2039320   -1.7495360   -1.6547070  
C    -3.0826090   -0.6045450   -0.7981350  
C    -1.7251470   -0.1977270   -0.8517580  
N    -1.0639670   -1.0769520   -1.6825100  
C    -1.2085630    0.9422700   -0.1889650  
C    -2.1745980    1.7137050    0.4717600  
O    -1.8196170    2.8743300    1.1101920  
C    -3.5357620    1.3403650    0.5336690  
O    -4.3034230    2.2003780    1.2936300  
C    -4.0221420    0.1623180   -0.0509900  
H    -4.0959630   -2.3282770   -1.8374060  
H    -0.1361370   -0.9131680   -2.0415870  
H    -2.6521380    3.2173870    1.4925990  
H    -5.1192450    2.4091460    0.7882120  
H    -1.6422760   -2.7618190   -2.8737850  
C    -5.8672370   -3.6744890    1.1359140  
C    -7.1869730   -3.3932710    1.0595460  
C    -7.2535630   -1.9953660    0.6424350  
C    -5.8209280   -1.5894580    0.4860170  
N    -5.0233040   -2.5694720    0.7872080  
C    -5.4351150   -0.2300040    0.0861860  
C    -6.4823110    0.6312780   -0.0780810  
O    -6.3218690    1.9436880   -0.4248530  
C    -7.9093210    0.2583580    0.0719450  
O    -8.7591010    1.1326810   -0.1340980  
C    -8.2593990   -1.1234930    0.4443900  
H    -8.0263880   -4.0391330    1.2770740  
H    -7.2430060    2.2923080   -0.4861280  
H    -9.3136580   -1.3596490    0.5534740  
H    -5.3948540   -4.6063530    1.4219610  
