62


C     2.8233840   -1.0182850   -0.0086240  
C     3.5386460   -0.0674930    0.6840690  
C     4.9280330   -0.2348190    0.3678000  
C     5.0183930   -1.3175120   -0.5406940  
N     3.7356880   -1.8307790   -0.7153710  
C     6.2296230   -1.7446130   -1.0909170  
C     7.3803440   -1.0708570   -0.7050260  
O     8.5886090   -1.4452610   -1.2139770  
C     7.3127280    0.0020770    0.2225860  
O     8.5409080    0.5624100    0.5151540  
C     6.1102420    0.4227970    0.7614360  
H     3.1175040    0.6295570    1.3950690  
H     3.4604320   -2.2932220   -1.5733320  
H     6.3024090   -2.5714640   -1.7899850  
H     9.2621220   -0.8678770   -0.8148160  
H     8.4286030    1.2661480    1.1710300  
H     6.0830210    1.2500710    1.4678800  
C    -0.8225350    1.6323260    0.1426240  
C     0.4838260    1.1342350    0.0896250  
C     0.4096210   -0.2804560    0.0490750  
C    -0.9746090   -0.6229370    0.0656590  
N    -1.6847780    0.5444760    0.1339120  
C    -1.4506230   -1.9503050    0.0244720  
C    -0.4668060   -2.9389210   -0.0565140  
O    -0.8321090   -4.2405210   -0.1458630  
C     0.9182400   -2.6211020   -0.0826900  
O     1.7289460   -3.7370690   -0.1569840  
C     1.3925610   -1.3116710   -0.0245350  
H     1.3827850    1.7235770    0.0078020  
H    -2.6892060    0.6631240    0.0892410  
H    -0.0193670   -4.7735090   -0.0792880  
H     2.6384590   -3.4845030    0.0858020  
C    -5.0070860   -0.7610170   -2.3724580  
C    -3.7446090   -0.9486130   -1.9092410  
C    -3.8338630   -1.8021240   -0.7412780  
C    -5.2746930   -2.1162750   -0.5747900  
N    -5.9280970   -1.4542820   -1.5951750  
C    -5.7911330   -2.9203810    0.3905880  
C    -4.8714410   -3.5198640    1.3438880  
O    -5.2217180   -4.2977450    2.2192670  
C    -3.3483350   -3.1364290    1.2490400  
O    -2.6043080   -3.5124450    2.1362780  
C    -2.8836320   -2.2920550    0.1152130  
H    -2.8419860   -0.5352130   -2.3319760  
H    -6.8485300   -3.1518850    0.4738440  
H    -5.3473680   -0.1776440   -3.2175200  
H    -6.9273690   -1.4416790   -1.7245500  
C     1.0612320    5.5735360    1.0840500  
C     0.8019140    4.2433070    0.9693930  
C    -0.5418360    4.1003450    0.4558320  
C    -1.0580680    5.4702210    0.2892050  
N    -0.0326370    6.3164010    0.6571940  
C    -2.3049570    5.8087930   -0.1547990  
C    -3.2211180    4.7397770   -0.4585900  
O    -4.3581030    4.8947230   -0.8871070  
C    -2.7355520    3.2614920   -0.2089580  
O    -3.5797320    2.3801420   -0.3111240  
C    -1.3127380    2.9907540    0.1445420  
H     1.4674200    3.4468240    1.2597530  
H    -2.6294150    6.8347730   -0.2953750  
H     1.9486000    6.0744940    1.4465430  
H    -0.1102100    7.3202590    0.7008950  
