62


C     1.1477410   -2.9712580   -2.1267110  
C     1.2510960   -4.3306970   -2.0111390  
C     2.0537810   -4.5993140   -0.8511760  
C     2.4170600   -3.3466830   -0.2953470  
N     1.8555580   -2.3526880   -1.0935010  
C     3.1838000   -3.2304230    0.8697430  
C     3.6031540   -4.4035960    1.4765980  
O     4.3590300   -4.3490000    2.6120650  
C     3.2567790   -5.6684990    0.9300580  
O     3.7493880   -6.7409250    1.6499720  
C     2.4923900   -5.7783750   -0.2159930  
H     0.8247720   -5.0578230   -2.6890890  
H     3.4693420   -2.2738800    1.2911060  
H     4.5679490   -5.2654620    2.8622800  
H     3.5342640   -7.5654420    1.1896090  
H     2.2330470   -6.7573660   -0.6144440  
H     0.6829990   -2.3654040   -2.8925670  
C    -1.5220280    0.2802410   -0.4137640  
C    -0.7966900    1.4543470   -0.2844700  
C     0.5877220    1.1311500   -0.3921130  
C     0.6530270   -0.2711670   -0.6113120  
N    -0.6261360   -0.7743570   -0.5745290  
C     1.8542260   -0.9609050   -0.8422710  
C     3.0155380   -0.1928100   -0.8492830  
O     4.2126800   -0.7693350   -1.0878790  
C     2.9782640    1.2138580   -0.6061790  
O     4.2217850    1.7865780   -0.6317910  
C     1.7931190    1.9013910   -0.3390750  
H    -1.2262840    2.4257620   -0.0907870  
H    -0.8704090   -1.6936060   -0.9174290  
H     4.8641330   -0.0392820   -1.0760610  
H     4.1343240    2.6449930   -1.1143930  
C    -0.1304080    4.1695450    2.9621430  
C     0.3763020    3.1975560    2.1561090  
C     1.0551200    3.8494990    1.0614430  
C     0.9039740    5.3076300    1.3035400  
N     0.1538540    5.4303320    2.4568230  
C     1.4036600    6.2864920    0.5074320  
C     2.1808090    5.8746240   -0.6486850  
O     2.6481670    6.6508320   -1.4655900  
C     2.4630420    4.3387010   -0.8417730  
O     3.3135230    4.0430420   -1.6811820  
C     1.7505020    3.3477570   -0.0205020  
H     0.2972430    2.1337930    2.3138570  
H     1.2387870    7.3458250    0.6748110  
H    -0.6869650    4.0717650    3.8848650  
H    -0.0590730    6.3039970    2.9125260  
C    -2.9393890    0.0591860   -0.3536600  
C    -3.9783210    0.9329470   -0.5551290  
C    -5.2101250    0.2200700   -0.3622760  
C    -4.8286750   -1.1715140   -0.0197680  
N    -3.4400010   -1.2330610   -0.0938620  
C    -5.7087450   -2.1496470    0.2993240  
C    -7.1378020   -1.8340660    0.2735420  
O    -7.9998530   -2.6553090    0.5452220  
C    -7.5684190   -0.3778490   -0.1333530  
O    -8.7606450   -0.1057650   -0.1679420  
C    -6.5207090    0.5910150   -0.4387250  
H    -3.8809260    1.9635440   -0.8652700  
H    -5.4121830   -3.1617840    0.5579470  
H    -6.8279040    1.5988160   -0.7012880  
H    -2.9174220   -1.8962180    0.4634630  
