64


C    -3.0246200   -1.1196420   -2.0678980  
C    -4.3350490   -1.5035880   -2.1359420  
C    -4.6024950   -2.3065710   -0.9760920  
C    -3.3981260   -2.3770440   -0.2303740  
N    -2.4340230   -1.6438410   -0.9175740  
C    -3.3028630   -3.0639910    0.9853540  
C    -4.4420360   -3.7010400    1.4509180  
O    -4.4036760   -4.3902710    2.6322010  
C    -5.6542630   -3.6484990    0.7148450  
O    -6.7012310   -4.3343020    1.3075220  
C    -5.7465860   -2.9638450   -0.4824720  
H    -5.0295850   -1.2470070   -2.9242700  
H    -2.3829520   -3.1203710    1.5549970  
H    -5.2924100   -4.7584890    2.7743290  
H    -7.4908700   -4.2514360    0.7531140  
H    -6.6883840   -2.9306400   -1.0273540  
H    -2.4302030   -0.5305240   -2.7520230  
C    -0.5240000    2.1755960   -0.0481170  
C     0.7296360    1.6550720    0.2819080  
C     0.6582410    0.2381140    0.1610540  
C    -0.6683270   -0.0665310   -0.2508540  
N    -1.3573450    1.1122480   -0.3588950  
C    -1.1076330   -1.3802070   -0.4989390  
C    -0.1689210   -2.3960470   -0.3274600  
O    -0.5182110   -3.6894430   -0.5525350  
C     1.1548120   -2.1014620    0.1002520  
O     1.9362900   -3.2295640    0.2471730  
C     1.6033940   -0.8083770    0.3470110  
H     1.6302530    2.2207330    0.4709820  
H    -2.2983950    1.2490830   -0.7090950  
H     0.2558020   -4.2356640   -0.3268290  
H     2.7981550   -2.9710170    0.6158710  
C     1.0303370    5.8687960    1.7569840  
C     0.1722370    6.7648160    1.2039560  
C    -0.7579980    6.0216880    0.3814680  
C    -0.3562080    4.6075730    0.4871820  
N     0.7606200    4.5812040    1.3038420  
C    -0.9916100    3.5458020   -0.1165550  
C    -2.2330330    3.8928900   -0.8450800  
O    -2.9997250    3.0539410   -1.3005720  
C    -2.6169340    5.4086750   -1.0514960  
O    -3.5800250    5.6580260   -1.7620340  
C    -1.8228220    6.4177320   -0.3758200  
H     0.1771070    7.8352370    1.3498850  
H    -2.1103740    7.4578810   -0.4896650  
H     1.8512910    6.0352170    2.4419730  
H     1.0838330    3.7341980    1.7486240  
C     3.3639940    0.1647380    1.9095050  
C     2.9845720   -0.5611080    0.7997860  
C     4.2133970   -1.0381440    0.1941460  
C     5.2880200   -0.5670600    0.9913070  
N     4.7383650    0.1662100    2.0239190  
C     6.6294540   -0.8303090    0.6869490  
C     6.8922260   -1.5820910   -0.4472670  
O     8.1800200   -1.8711920   -0.7875210  
C     5.8297810   -2.0522880   -1.2667170  
O     6.2542560   -2.7755250   -2.3631440  
C     4.5068640   -1.7900890   -0.9649720  
H     5.2592570    0.6001980    2.7698960  
H     7.4536690   -0.4701390    1.2941230  
H     8.1523610   -2.3889740   -1.6107920  
H     5.4888520   -3.0430870   -2.8934160  
H     3.7112330   -2.1494740   -1.6130530  
H     2.7458230    0.6587950    2.6455140  
