64


C    -1.4195030   -0.1884920    0.7990780  
C    -2.7882370   -0.1232380    0.8145240  
C    -3.1316610    1.2249650    0.4085300  
C    -1.9245540    1.9259560    0.1767100  
N    -0.8684650    1.0400950    0.4257950  
C    -1.9049540    3.2527010   -0.2663020  
C    -3.1243140    3.8896890   -0.4428810  
O    -3.1560400    5.1872390   -0.8666060  
C    -4.3412630    3.2100800   -0.1833020  
O    -5.4733130    3.9761330   -0.3959140  
C    -4.3579380    1.8929630    0.2387040  
H    -0.9900460    3.8046920   -0.4391640  
H    -4.0885570    5.4634970   -0.8725850  
H    -6.2465620    3.5058620   -0.0506220  
H    -5.2987970    1.3826990    0.4302920  
H    -0.7687960   -1.0130580    1.0499920  
C     2.2381160   -1.2751500   -1.6174170  
C     1.0466860   -0.8114810   -1.1603790  
C     1.3184600    0.3967330   -0.4131310  
C     2.7806180    0.6048720   -0.4808830  
N     3.2964630   -0.4525640   -1.2221260  
C     3.4506410    1.6603480    0.0581750  
C     2.6832230    2.6578550    0.7779880  
O     3.1647400    3.6730860    1.2609690  
C     1.1339050    2.4284840    0.9511830  
O     0.5078060    3.1869110    1.6688850  
C     0.5055890    1.2738990    0.2594540  
H     0.0776450   -1.2550000   -1.3305530  
H     4.5219920    1.7920120   -0.0408920  
H     2.4574200   -2.1508460   -2.2133210  
C     5.1778390   -0.6556350   -2.8243380  
C     4.6562170   -0.6534710   -1.5510290  
C     5.7319980   -0.9360000   -0.6361910  
C     6.8942360   -1.1026890   -1.4290890  
N     6.5232360   -0.9381620   -2.7512660  
C     8.1482670   -1.3907520   -0.8750910  
C     8.2250270   -1.5092210    0.5030890  
O     9.4209790   -1.7822860    1.0956490  
C     7.0657020   -1.3467070    1.3120110  
O     7.3074590   -1.5005740    2.6616410  
C     5.8292230   -1.0664460    0.7635230  
H     7.1478810   -0.9876900   -3.5408790  
H     9.0434120   -1.5154130   -1.4756190  
H     9.2706690   -1.7983750    2.0568950  
H     6.5138580   -1.2653720    3.1651190  
H     4.9555290   -0.9437800    1.3987330  
H     4.6892140   -0.4734410   -3.7705570  
C    -3.6095350   -1.9721400    2.3411390  
C    -3.7029190   -1.1970950    1.2065550  
C    -4.8627680   -1.6770520    0.4860130  
C    -5.4212630   -2.7393680    1.2420830  
N    -4.6319950   -2.9010130    2.3634270  
C    -6.5561170   -3.4483820    0.8276470  
C    -7.1349910   -3.0827200   -0.3776340  
O    -8.2443350   -3.7404470   -0.8287150  
C    -6.5811970   -2.0317120   -1.1552690  
O    -7.2637260   -1.7895640   -2.3350510  
C    -5.4608470   -1.3341120   -0.7435000  
H    -4.8061620   -3.5559580    3.1091210  
H    -6.9857890   -4.2619840    1.4034490  
H    -8.4770980   -3.3501390   -1.6886880  
H    -6.7948800   -1.1104540   -2.8421430  
H    -5.0486740   -0.5372420   -1.3583980  
H    -2.8976120   -1.9125880    3.1523080  
