64


C    -4.6534040   -0.0643840    0.0378140  
C    -5.3138860   -1.2066930    0.4872920  
C    -6.7131810   -0.9460660    0.4431110  
C    -6.8700200    0.3815280   -0.0471940  
N    -5.6150840    0.8826200   -0.2871080  
C    -8.1256310    0.9791060   -0.2169610  
C    -9.2406360    0.2274670    0.1159620  
O   -10.4873330    0.7589920   -0.0273240  
C    -9.1029720   -1.1018700    0.6097150  
O   -10.3092270   -1.7135330    0.8925470  
C    -7.8663270   -1.6909260    0.7749270  
H    -4.8454440   -2.0902550    0.8973380  
H    -5.3776430    1.8332370   -0.5326940  
H    -8.2506900    1.9903530   -0.5894880  
H   -11.1247050    0.0841350    0.2639790  
H   -10.1474370   -2.5987240    1.2508310  
H    -7.7861330   -2.7079650    1.1538360  
C    -1.3021680   -2.8408760   -0.5239130  
C    -0.2813230   -1.9229280   -0.4667420  
C    -0.8756670   -0.6325700   -0.2771320  
C    -2.2726440   -0.8379050   -0.2174040  
N    -2.5016080   -2.1917190   -0.3501390  
C    -3.2323680    0.2028060   -0.0990040  
C    -2.6969620    1.4969190   -0.1385330  
O    -3.5233500    2.5908210   -0.0935220  
C    -1.3076680    1.7491450   -0.1893890  
O    -1.0064310    3.0687490   -0.1766150  
C    -0.3483310    0.7011240   -0.2117930  
H     0.7641830   -2.1569270   -0.5885590  
H    -3.4141590   -2.5914470   -0.5069140  
H    -2.9331350    3.3694850   -0.0991410  
H     0.0011930    3.1451230   -0.2342170  
H    -1.2688840   -3.9109430   -0.6711900  
C     1.0547500    0.9969290   -0.1711220  
C     2.1620660    0.1776710   -0.0223150  
C     3.3084600    1.0271520   -0.0414970  
C     2.7550750    2.4043780   -0.2082130  
N     1.4510010    2.3747990   -0.2778520  
C     3.5871170    3.5692530   -0.2602250  
C     4.9215500    3.3633300   -0.1565060  
O     5.8355380    4.3333550   -0.1898710  
C     5.5342790    1.9742050   -0.0215420  
O     6.7667060    1.9449420   -0.0439850  
C     4.6632560    0.7977130    0.0740180  
H     2.1723910   -0.8820610    0.1697060  
H     3.1575370    4.5580310   -0.3751430  
H     6.6992400    3.8552720   -0.1335450  
C     4.2075720   -2.8395130   -2.4170620  
C     5.0796370   -3.6432450   -1.7307660  
C     5.5889390   -2.8709550   -0.6326280  
C     4.9808610   -1.5905800   -0.7065340  
N     4.1547520   -1.5970320   -1.8112800  
C     5.2665340   -0.5416970    0.1990860  
C     6.1736580   -0.8447340    1.2198750  
O     6.4458600    0.0817070    2.1802700  
C     6.7846890   -2.1212520    1.3065560  
O     7.6519930   -2.2475730    2.3772710  
C     6.5127480   -3.1268840    0.3990700  
H     5.3370430   -4.6634470   -1.9804710  
H     3.5253970   -0.8488530   -2.0595790  
H     7.1322280   -0.2959910    2.7571510  
H     8.0619240   -3.1246520    2.3579550  
H     6.9998700   -4.0961240    0.4874370  
H     3.6157360   -3.0424850   -3.2985090  
