62


C     5.0441750   -0.4602870   -2.8836580  
C     4.5118330   -0.4228670   -1.6125860  
C     5.6195140   -0.6152610   -0.7009470  
C     6.7879260   -0.7632840   -1.4902220  
N     6.4036590   -0.6721780   -2.8144160  
C     8.0562390   -0.9773980   -0.9360970  
C     8.1470730   -1.0461200    0.4448280  
O     9.3583790   -1.2449530    1.0385400  
C     6.9855660   -0.9139740    1.2529280  
O     7.2363820   -1.0199140    2.6072850  
C     5.7348990   -0.7083910    0.7015130  
H     7.0292820   -0.6927750   -3.6044390  
H     8.9520310   -1.0858230   -1.5390000  
H     9.2116360   -1.2386710    2.0003680  
H     6.4355700   -0.7976300    3.1049760  
H     4.8610220   -0.6208780    1.3424880  
H     4.5517340   -0.3258080   -3.8365300  
C     2.0425810   -0.9114130   -1.8539250  
C     3.0949560   -0.2523640   -1.2909220  
C     2.5156110    0.6885360   -0.3334800  
C     1.0463070    0.5054040   -0.3906800  
N     0.8259870   -0.4955050   -1.3111120  
C     0.1268170    1.2214570    0.3320350  
C     0.6655430    2.2503800    1.2384270  
O    -0.0419850    2.9440780    1.9523770  
C     2.2239570    2.4643050    1.3051870  
O     2.6587200    3.3269120    2.0516360  
C     3.0825010    1.6259940    0.4712730  
H     4.1541030    1.7891240    0.5138600  
H     2.0588500   -1.6919910   -2.6028090  
H    -0.0851530   -0.7225010   -1.6807710  
C    -1.9138570   -0.2630250    0.2991970  
C    -1.3169500    0.9629090    0.2599670  
C    -2.4047200    1.9335810    0.0908550  
C    -3.6606190    1.1472050    0.0401470  
N    -3.3057910   -0.1815840    0.1740790  
C    -4.9067930    1.6850620   -0.1095430  
C    -5.0276610    3.1333910   -0.2418760  
O    -6.0989010    3.7093300   -0.3544210  
C    -3.7053590    3.9788480   -0.2387070  
O    -3.7695990    5.1840280   -0.4119190  
C    -2.4249800    3.2829850   -0.0292750  
H    -5.8171880    1.0962760   -0.0390520  
H    -1.5312430    3.8921380    0.0361510  
H    -1.4642110   -1.2380020    0.4327980  
C    -4.0604420   -3.5599050    2.9489630  
C    -3.6061570   -2.3884080    2.4015370  
C    -4.2266640   -2.2639350    1.1125800  
C    -5.0598030   -3.4010920    0.9333130  
N    -4.9310910   -4.1740940    2.0679060  
C    -5.8474430   -3.6004560   -0.2065500  
C    -5.7929270   -2.6304120   -1.1963270  
O    -6.5371580   -2.7654840   -2.3269560  
C    -4.9509970   -1.4940710   -1.0643070  
O    -4.9298380   -0.6585500   -2.1633770  
C    -4.1707460   -1.3082130    0.0750690  
H    -2.9254270   -1.6914320    2.8692290  
H    -5.4256330   -5.0348970    2.2428290  
H    -6.4941010   -4.4624130   -0.3330980  
H    -6.3645220   -1.9729700   -2.8680760  
H    -4.9218180    0.2750280   -1.8769640  
H    -3.8385840   -4.0119080    3.9052240  
