62


C    -0.6480130    0.5160580    0.1857170  
C    -0.6825580    1.9081110    0.3298500  
C    -2.0451750    2.2949070    0.4110140  
C    -2.8252650    1.1043880    0.3115530  
N    -1.9535130    0.0620530    0.1591620  
C    -4.2425480    1.0917070    0.3277900  
C    -4.8339470    2.3495290    0.4578490  
O    -6.1985420    2.4718110    0.4673160  
C    -4.0688440    3.5477940    0.5580980  
O    -4.8485100    4.6831250    0.6751510  
C    -2.6936190    3.5423860    0.5346830  
H     0.1594650    2.5822050    0.2599860  
H    -2.1864890   -0.9211310    0.1287310  
H    -6.3979890    3.4061950    0.6584090  
H    -4.2829770    5.4505340    0.8467670  
H    -2.1289550    4.4696250    0.6011480  
C     3.5927620    1.0165070    1.2057300  
C     4.0683060   -0.1712220    0.7281960  
C     2.9402690   -0.9202640    0.2010610  
C     1.7704730   -0.0580990    0.3966390  
N     2.2369300    1.1237320    0.9601510  
C     0.4745370   -0.3864740    0.0663490  
C     0.2899850   -1.7882950   -0.3936820  
O    -0.8080610   -2.3121490   -0.5092330  
C     1.5526400   -2.6703460   -0.7323370  
O     1.3604220   -3.7565240   -1.2593160  
C     2.8606420   -2.1571850   -0.3743220  
H     3.7308060   -2.7726590   -0.5767940  
H     4.1317680    1.8190220    1.6907280  
H     1.6250190    1.7764520    1.4294730  
C     5.8725730   -1.7759390    1.3411080  
C     7.2060550   -1.9379330    1.1629770  
C     7.6790140   -0.8100630    0.3882590  
C     6.4886380    0.0348390    0.1199150  
N     5.4083770   -0.6014300    0.7300650  
C     6.5160910    1.1899390   -0.5911230  
C     7.7961050    1.6461300   -1.1277830  
O     7.9150130    2.6737140   -1.7776190  
C     9.0723090    0.7718840   -0.8465130  
O    10.1520580    1.1434220   -1.2785980  
C     8.9093800   -0.4609260   -0.0710800  
H     7.8070560   -2.7557660    1.5332630  
H     5.6347160    1.7911360   -0.7863960  
H     9.7948970   -1.0624990    0.1104860  
H     5.1655310   -2.4008240    1.8702770  
C    -7.5673690    0.0642300   -2.4391620  
C    -7.6960760   -1.2548040   -2.0974860  
C    -6.7501770   -1.5085840   -1.0471470  
C    -6.0634910   -0.2895450   -0.8012750  
N    -6.5587680    0.6441760   -1.6895330  
C    -5.0317380   -0.1568920    0.1589650  
C    -4.7537410   -1.3110420    0.8999880  
O    -3.7840310   -1.2913500    1.8695740  
C    -5.4392230   -2.5300380    0.6713570  
O    -5.0313540   -3.5576630    1.5057060  
C    -6.4190960   -2.6487600   -0.2933930  
H    -8.3742890   -1.9687940   -2.5443590  
H    -6.4689450    1.6372470   -1.5316350  
H    -3.7431290   -2.1923420    2.2375030  
H    -5.3982600   -4.3957150    1.1883640  
H    -6.9248660   -3.5983330   -0.4558900  
H    -8.1038700    0.6488460   -3.1735870  
