64


C    -2.7424200   -1.5811020    0.0265870  
C    -3.6642520   -0.6065340   -0.3608600  
C    -4.9471080   -1.2095630   -0.3824000  
C    -4.7757140   -2.5734330   -0.0011330  
N    -3.4417240   -2.7679880    0.2380270  
C    -5.8471300   -3.4719520    0.0822530  
C    -7.1086180   -2.9883180   -0.2243250  
O    -8.1875550   -3.8156050   -0.1614310  
C    -7.2994300   -1.6266810   -0.6081250  
O    -8.6172180   -1.3120680   -0.8775900  
C    -6.2463510   -0.7427650   -0.6899540  
H    -3.4248430    0.4127590   -0.6150330  
H    -2.9880050   -3.6362970    0.4823630  
H    -5.7251320   -4.5104190    0.3714760  
H    -8.9691960   -3.2912440   -0.4088330  
H    -8.6828600   -0.3780740   -1.1259510  
H    -6.4117110    0.2918240   -0.9831570  
C    -0.0547380    1.9055570    0.1270410  
C     1.1639660    1.2595220    0.1205170  
C     0.8910990   -0.1444200    0.1377550  
C    -0.5806490   -0.2389000    0.1414330  
N    -1.1205230    0.9503400    0.1467940  
C    -1.3076340   -1.5146230    0.1707990  
C    -0.5055390   -2.6109390    0.3630490  
O    -0.9953140   -3.8747840    0.4955210  
C     0.9653930   -2.5605300    0.4047160  
O     1.5388340   -3.6557230    0.5917170  
C     1.6889580   -1.2781810    0.2020740  
H     2.1325950    1.7187920    0.2128500  
H    -0.1911630   -4.4329810    0.6063740  
C     2.3133210    5.6883250   -0.6058630  
C     1.9352520    4.3717050   -0.4921510  
C     0.5539610    4.3498030   -0.1052820  
C     0.1450890    5.7027840   -0.0095130  
N     1.2364560    6.4929990   -0.3084130  
C    -1.1619910    6.0948440    0.3105130  
C    -2.0868190    5.0900330    0.5274240  
O    -3.3780760    5.3998790    0.8352660  
C    -1.7229660    3.7192740    0.4419000  
O    -2.7569250    2.8745140    0.6992890  
C    -0.4000550    3.3097240    0.1469480  
H     2.5741490    3.5281620   -0.7001150  
H     1.2348160    7.5006590   -0.3271040  
H    -1.4646990    7.1346150    0.3834490  
H    -3.8378170    4.5485940    0.9562040  
H    -2.4150780    1.9414450    0.5722950  
H     3.2668090    6.1183850   -0.8776800  
C     3.1224090   -1.2860690    0.0893630  
C     3.9999620   -0.2833780   -0.3468890  
C     5.3124700   -0.8057020   -0.3027470  
C     5.2094750   -2.1513790    0.1693670  
N     3.8867480   -2.4074280    0.3971510  
C     6.3281450   -2.9783350    0.3320230  
C     7.5658180   -2.4441360    0.0142470  
O     8.6867450   -3.1998920    0.1512690  
C     7.6884200   -1.1006900   -0.4600230  
O     8.9912970   -0.7334240   -0.7269500  
C     6.5907250   -0.2863630   -0.6206040  
H     3.7098180    0.6916440   -0.7053810  
H     3.4522920   -3.2842760    0.6571310  
H     6.2582930   -4.0001190    0.6891920  
H     9.4439690   -2.6518390   -0.1201890  
H     9.0138000    0.1810490   -1.0458450  
H     6.7046720    0.7332280   -0.9825290  
