60


C    -4.8043060   -0.4332220   -2.5279560  
C    -5.8328640   -1.0945240   -1.9127680  
C    -5.2672560   -1.8317170   -0.8184810  
C    -3.8723510   -1.5703070   -0.8160660  
N    -3.6204450   -0.7073690   -1.8645670  
C    -2.9774010   -2.1561110    0.1081710  
C    -3.5451510   -3.0239630    1.0487810  
O    -2.7574320   -3.5805120    2.0066560  
C    -4.9373070   -3.2889070    1.0595240  
O    -5.3283600   -4.1528580    2.0657820  
C    -5.7978270   -2.7075670    0.1479110  
H    -6.8745100   -1.0588120   -2.2003710  
H    -2.7039580   -0.4286580   -2.1777800  
H    -3.3044560   -4.2179330    2.4981650  
H    -6.2560210   -4.3994950    1.9371600  
H    -6.8635850   -2.9248940    0.1800730  
H    -4.8104030    0.2299260   -3.3810680  
C    -0.6871570    1.5945740    0.2017440  
C     0.5944030    1.0524280    0.1456160  
C     0.4853910   -0.3650960    0.1322770  
C    -0.9590850   -0.6607870    0.1545980  
N    -1.6059190    0.5585950    0.2164040  
C    -1.5261260   -1.9064180    0.1059730  
C    -0.5777160   -3.0343700   -0.0485660  
O    -0.9369330   -4.1642560   -0.3222720  
C     0.9566800   -2.7678670    0.1169640  
O     1.6714150   -3.7295800    0.3296820  
C     1.4516280   -1.3698300    0.0853270  
H     1.5094660    1.6084600    0.0346150  
H    -2.6052730    0.7192100    0.1698360  
C     1.4162170    5.4105740    1.1856290  
C     1.0769700    4.0936020    1.0572750  
C    -0.2549570    4.0364000    0.5204120  
C    -0.6817970    5.4438460    0.3563690  
N     0.3897300    6.2243520    0.7520680  
C    -1.8931490    5.8530100   -0.1026260  
C    -2.8747870    4.8329070   -0.4298670  
O    -3.9832080    5.0800650   -0.8765650  
C    -2.4905020    3.3311040   -0.1827940  
O    -3.3815510    2.5013970   -0.3088200  
C    -1.0985580    2.9824380    0.1909770  
H     1.6925660    3.2606410    1.3539110  
H    -2.1627180    6.8955970   -0.2380260  
H     2.3308600    5.8451030    1.5665770  
H     0.3819530    7.2317550    0.7942810  
C     2.8666080   -1.1083800    0.0732110  
C     3.5599150   -0.0559160    0.6382110  
C     4.9424480   -0.2712490    0.3171840  
C     4.9345270   -1.5269750   -0.5029090  
N     3.7382910   -2.0154890   -0.6349180  
C     6.1509820   -2.0700650   -1.0534230  
C     7.3075810   -1.4228470   -0.7791100  
O     8.5154200   -1.8140900   -1.2120900  
C     7.3487450   -0.1665630    0.0621120  
O     8.4571650    0.3456420    0.2457830  
C     6.1035960    0.3772640    0.5961560  
H     3.1677560    0.7141660    1.2866450  
H     6.1200750   -2.9746860   -1.6503100  
H     9.1405690   -1.1464560   -0.8474850  
H     6.1695770    1.2862090    1.1864860  
