62


C    -5.4790210    0.0186910    2.3877550  
C    -6.7395080   -0.3862410    2.7266760  
C    -7.4859690   -0.5221950    1.5069840  
C    -6.6171950   -0.1746360    0.4424260  
N    -5.3802880    0.1550840    0.9988910  
C    -7.0114410   -0.2302470   -0.8992940  
C    -8.3123100   -0.6261180   -1.1670630  
O    -8.7498790   -0.6898350   -2.4577260  
C    -9.2000040   -0.9680860   -0.1121330  
O   -10.4593620   -1.3433780   -0.5403860  
C    -8.8037190   -0.9222300    1.2109580  
H    -7.1039060   -0.5469670    3.7324750  
H    -6.3590440    0.0482110   -1.7177140  
H    -9.6865980   -0.9503100   -2.4322330  
H   -11.0339500   -1.4799360    0.2272080  
H    -9.4961110   -1.1962750    2.0046340  
H    -4.6370030    0.2869590    3.0105280  
C    -1.4816940   -1.6875180    1.2109860  
C    -0.7764060   -0.8550740    0.3902030  
C    -1.7324100    0.1347540   -0.1027650  
C    -3.0351240   -0.2020310    0.5122880  
N    -2.8202130   -1.3151890    1.2921270  
C    -4.1957750    0.4916220    0.3123600  
C    -4.1457930    1.6606500   -0.5815030  
O    -5.1049290    2.3824620   -0.7911450  
C    -2.7765920    1.9879220   -1.2923680  
O    -2.7456290    2.9199960   -2.0803870  
C    -1.6079120    1.1680820   -0.9792690  
H    -0.6702340    1.4106850   -1.4675550  
H    -1.1237760   -2.5398420    1.7730880  
H    -3.5371680   -1.7777310    1.8304190  
C     1.2918810   -2.1157960   -0.3380880  
C     0.6409820   -0.9626750    0.0444700  
C     1.6437450    0.0800100    0.0621700  
C     2.8711230   -0.5107820   -0.3253630  
N     2.6226590   -1.8461910   -0.5659400  
C     4.0985140    0.1928290   -0.3881880  
C     4.0328930    1.5446380   -0.0329370  
O     5.1541650    2.3216690   -0.0874810  
C     2.8127630    2.1480980    0.3654270  
O     2.9409650    3.4867840    0.6846050  
C     1.6266820    1.4424310    0.4204000  
H     3.3306070   -2.5240360   -0.8035970  
H     4.8798700    3.2299290    0.1336730  
H     2.0639940    3.8936100    0.7476950  
H     0.7088930    1.9292940    0.7392320  
H     0.8929370   -3.1074370   -0.4989400  
C     5.4785830   -1.3759200   -1.8338570  
C     5.3319740   -0.4671750   -0.8257050  
C     6.6881180   -0.3785430   -0.2351850  
C     7.5060400   -1.3226550   -1.0487330  
N     6.7936150   -1.8952590   -1.9795430  
C     8.9059130   -1.5346300   -0.7856300  
C     9.4652210   -0.8619650    0.2481180  
O    10.7547240   -0.9669940    0.6118100  
C     8.6616390    0.0806400    1.0981460  
O     9.2378510    0.6528080    2.0223050  
C     7.2278380    0.2900260    0.8002090  
H     9.4740670   -2.2217810   -1.4028560  
H    10.8564600   -0.3662070    1.3824090  
H     6.6898020    0.9991330    1.4180690  
H     4.7192930   -1.6997790   -2.5370160  
