64


C    -3.7956190   -3.1275520    2.2564610  
C    -4.6126840   -3.9013470    1.4733620  
C    -5.1738430   -3.0397650    0.4724290  
C    -4.6444890   -1.7404030    0.6970650  
N    -3.8144480   -1.8266800    1.7949960  
C    -4.9886410   -0.6070870   -0.0769540  
C    -5.9241270   -0.8491110   -1.0816130  
O    -6.3631370    0.1963500   -1.8744480  
C    -6.4641940   -2.1340730   -1.3264920  
O    -7.3690950   -2.1618850   -2.3732560  
C    -6.0980210   -3.2315120   -0.5729430  
H    -4.8031470   -4.9580880    1.6004490  
H    -3.2876850   -1.0532830    2.1704260  
H    -6.9917790   -0.1791450   -2.5177790  
H    -7.6908920   -3.0662080   -2.5015410  
H    -6.5273720   -4.2108060   -0.7734030  
H    -3.1987550   -3.3944900    3.1173910  
C    -0.7544760    0.8035770    0.4410430  
C    -1.8745860    0.0530590    0.1796550  
C    -3.0106330    0.9183210    0.3567130  
C    -2.5041020    2.1976690    0.7069970  
N    -1.1258550    2.0991180    0.7636600  
C    -3.3191760    3.3171760    0.9007260  
C    -4.6792960    3.1351070    0.7103940  
O    -5.5375090    4.1780490    0.8620180  
C    -5.2163470    1.8661700    0.3553530  
O    -6.5882790    1.8618480    0.2265940  
C    -4.4144520    0.7344760    0.1995370  
H    -1.8794530   -0.9743380   -0.1535380  
H    -0.4924480    2.8235930    1.0655850  
H    -2.9303830    4.2958740    1.1613600  
H    -6.4216770    3.8212510    0.6501290  
H    -6.8095510    1.3597990   -0.5880900  
C     1.0771560   -0.7371700    1.0882460  
C     2.4147700   -0.8678980    0.9239950  
C     2.8686860    0.2628220    0.1357140  
C     1.6628570    1.0710060   -0.1561330  
N     0.5922280    0.4179340    0.4564640  
C     1.6580270    2.2235960   -0.8768170  
C     2.9300130    2.7186740   -1.3828960  
O     3.0405130    3.7663570   -2.0024560  
C     4.2210050    1.8590760   -1.1275490  
O     5.2583080    2.2040090   -1.6609640  
C     4.1154050    0.6261000   -0.2963620  
H     3.0377310   -1.6518110    1.3273840  
H     0.7610770    2.7935270   -1.0917930  
H     0.3772810   -1.3608200    1.6272480  
C     5.1382290   -3.5544920   -1.3836330  
C     6.4042430   -3.5735530   -0.8607290  
C     6.6373570   -2.2851010   -0.2708060  
C     5.4582950   -1.5194160   -0.4653260  
N     4.5614480   -2.3199610   -1.1429390  
C     5.3283990   -0.1773120   -0.0444610  
C     6.4362990    0.3744510    0.6031660  
O     6.3676220    1.6448740    1.0874000  
C     7.6175470   -0.3816900    0.8123360  
O     8.6085920    0.3130750    1.4827700  
C     7.7321700   -1.6912970    0.3870130  
H     7.0938620   -4.4058400   -0.8938290  
H     3.6492960   -2.0271050   -1.4555710  
H     7.2568330    1.8805990    1.4046040  
H     9.4342960   -0.1918620    1.4487080  
H     8.6506910   -2.2485240    0.5604690  
H     4.5877070   -4.3216230   -1.9096800  
