62


C    -6.4982460   -0.5697610    3.1358930  
C    -5.4264070   -0.2499350    2.3427240  
C    -5.7366220   -0.6794170    1.0063510  
C    -7.0378560   -1.2479420    1.0571440  
N    -7.4672430   -1.1846240    2.3676330  
C    -7.7076170   -1.7289770   -0.0717610  
C    -7.0545310   -1.6038460   -1.2877790  
O    -7.6520770   -2.0298730   -2.4331320  
C    -5.7578140   -1.0310900   -1.3782150  
O    -5.2563590   -1.0071500   -2.6590690  
C    -5.0555350   -0.5962150   -0.2473620  
H    -4.5238730    0.2399650    2.6765260  
H    -8.3782760   -1.4675660    2.6924190  
H    -8.7040190   -2.1573040   -0.0316050  
H    -7.0296290   -1.7990250   -3.1500790  
H    -4.8395630   -0.1221850   -2.7829770  
H    -6.6533610   -0.4109160    4.1937370  
C    -1.3982300   -1.5696840    2.0578540  
C    -2.6332540   -1.5713530    1.4909700  
C    -2.6671020   -0.5018990    0.5198150  
C    -1.3283280    0.1274150    0.5648500  
N    -0.6194630   -0.5402980    1.5425810  
C    -0.9214770    1.2000750   -0.1861710  
C    -1.8838400    1.6649660   -1.1960760  
O    -1.6315310    2.5282040   -2.0170600  
C    -3.2876930    0.9559090   -1.2985540  
O    -3.9936620    1.2989390   -2.2457680  
C    -3.6746470   -0.0705580   -0.3208590  
H    -3.4459960   -2.2412410    1.7215750  
H    -0.9886710   -2.2259770    2.8143540  
H     0.3768800   -0.4365930    1.6764670  
C     3.3850930   -0.1272030   -0.1239340  
C     1.9984150   -0.1477200   -0.2135360  
C     1.5972190    1.2103600   -0.0481210  
C     2.8864600    1.9551400    0.1489450  
N     3.9214760    1.1546130    0.1100390  
C     2.9332490    3.3736840    0.3336550  
C     1.7481560    4.0299990    0.3242030  
O     1.6185370    5.3461150    0.4782330  
C     0.4124210    3.3104290    0.1752520  
O    -0.5835600    4.0197940    0.3128590  
C     0.3818680    1.8589140   -0.0481960  
H     1.3625960   -0.9809290   -0.4700360  
H     3.8815860    3.8824780    0.4633000  
H     0.6437510    5.5059000    0.4675890  
C     3.8202880   -2.5003910   -0.5079230  
C     4.8926570   -3.3294620   -0.5760350  
C     6.0756610   -2.5350720   -0.3515570  
C     5.6593430   -1.1990700   -0.1480850  
N     4.2446820   -1.1853490   -0.2468660  
C     6.5684720   -0.1677890    0.0995550  
C     7.9184330   -0.4995030    0.1400020  
O     8.8384360    0.4770100    0.3783070  
C     8.3487720   -1.8327230   -0.0625100  
O     9.7145600   -2.0028660    0.0079240  
C     7.4412630   -2.8513130   -0.3071060  
H     4.8561840   -4.3933520   -0.7684180  
H     6.2504400    0.8532280    0.2520930  
H     9.7175470    0.0611360    0.3610300  
H     9.9386740   -2.9302180   -0.1600480  
H     7.7834450   -3.8725050   -0.4608910  
H     2.7699620   -2.7124840   -0.6277140  
