64


C    -4.6211220    1.2468990   -1.2515490  
C    -4.7449960    0.0697710   -0.5392880  
C    -5.8482180    0.2701730    0.3768900  
C    -6.3390000    1.5836110    0.1632350  
N    -5.5783620    2.1481270   -0.8409670  
C    -7.4000320    2.1293730    0.8974170  
C    -7.9775080    1.3326310    1.8723850  
O    -9.0180690    1.8099300    2.6193480  
C    -7.4971250    0.0171360    2.1039550  
O    -8.1735620   -0.6562540    3.1081690  
C    -6.4501650   -0.5169760    1.3782250  
H    -5.6728790    3.0895260   -1.1882070  
H    -7.7740770    3.1347800    0.7324890  
H    -9.2748090    1.0999920    3.2325960  
H    -7.8114150   -1.5509140    3.1875470  
H    -6.1138150   -1.5332350    1.5604560  
H    -3.9358850    1.5021690   -2.0477480  
C    -0.3643060   -0.0997970   -0.9003440  
C    -0.2481860   -1.4865110   -1.0324770  
C    -1.5541920   -2.0397500   -0.9654540  
C    -2.4588000   -0.9521640   -0.7932800  
N    -1.7118490    0.1946510   -0.7558190  
C    -3.8614130   -1.0998670   -0.6854680  
C    -4.3236580   -2.4158560   -0.7526940  
O    -5.6632660   -2.6787060   -0.6843380  
C    -3.4329870   -3.5161670   -0.9118440  
O    -4.0777880   -4.7419880   -0.9521050  
C    -2.0696200   -3.3535610   -1.0248450  
H     0.6633500   -2.0316310   -1.2236810  
H    -2.0488510    1.1454900   -0.6815910  
H    -5.7684480   -3.6367570   -0.8209460  
H    -3.4463260   -5.4259350   -1.2190810  
H    -1.4145330   -4.2137380   -1.1469230  
C     4.0923360   -0.1050780   -0.4028860  
C     2.7594380   -0.4430320   -0.4429650  
C     1.9977400    0.7250950   -0.7776310  
C     2.9804190    1.8134230   -0.9334440  
N     4.2216870    1.2663950   -0.6621130  
C     2.6972600    3.0977200   -1.2867460  
C     1.3082050    3.4551900   -1.4588310  
O     0.9190080    4.5684640   -1.7853920  
C     0.2209460    2.3497690   -1.1805390  
O    -0.9480870    2.7231350   -1.1794120  
C     0.6357840    0.9471560   -0.9392670  
H     2.3617950   -1.4032610   -0.1559160  
H     3.4562500    3.8604360   -1.4294510  
H     5.0862120    1.6849870   -0.9725060  
C     5.3595390   -2.2702640   -0.3890370  
C     5.2565410   -0.9129540   -0.1354230  
C     6.5329830   -0.5012430    0.4171710  
C     7.3533920   -1.6548690    0.4619860  
N     6.6060640   -2.7113240   -0.0319770  
C     8.6627080   -1.6406040    0.9550370  
C     9.1559720   -0.4323120    1.4218910  
O    10.4243860   -0.3608090    1.9119060  
C     8.3428080    0.7328220    1.4061060  
O     8.9664010    1.8499460    1.9208060  
C     7.0488460    0.7118580    0.9172470  
H     6.9414180   -3.6553120   -0.1489130  
H     9.2888460   -2.5260180    0.9916400  
H    10.5705070    0.5537030    2.2103330  
H     8.3408260    2.5887030    1.9592210  
H     6.4396120    1.6117940    0.9513880  
H     4.6357260   -2.9391810   -0.8316500  
