64


C    -0.7825010    0.5905650    0.4161940  
C    -1.9503130   -0.0778730    0.1417010  
C    -3.0300540    0.8462400    0.3764340  
C    -2.4412170    2.0759220    0.7732440  
N    -1.0699710    1.8929070    0.7934920  
C    -3.1830160    3.2310090    1.0366210  
C    -4.5557050    3.1397830    0.8705990  
O    -5.3472970    4.2249890    1.0910190  
C    -5.1744360    1.9243760    0.4707720  
O    -6.5482320    2.0063090    0.3772890  
C    -4.4448170    0.7552130    0.2422310  
H    -2.0188680   -1.0838080   -0.2449860  
H    -0.3910840    2.5470810    1.1514550  
H    -2.7302700    4.1713630    1.3333760  
H    -6.2544790    3.9279030    0.8844140  
H    -6.8161150    1.5616980   -0.4564190  
C     0.9679280   -1.0825250    0.9199490  
C     2.3099420   -1.2319700    0.7172210  
C     2.7700740   -0.0645690    0.0202650  
C     1.6418390    0.7713960   -0.1759040  
N     0.5386020    0.1331850    0.3915450  
C     1.7102260    1.9965710   -0.8487140  
C     2.9545800    2.3991020   -1.3078300  
O     3.0772620    3.5790240   -1.9835330  
C     4.1040030    1.6012710   -1.0886470  
O     5.2586160    2.1518710   -1.6106450  
C     4.0455500    0.3674950   -0.4336890  
H     2.8990820   -2.0861170    1.0157570  
H     0.8403720    2.6124600   -1.0466430  
H     4.0027080    3.6445260   -2.2765110  
H     5.9650250    1.4867030   -1.5890860  
H     0.2524850   -1.7289120    1.4066030  
C    -4.0037680   -3.2390660    2.0833540  
C    -4.8967360   -3.9192600    1.2962820  
C    -5.4344240   -2.9746430    0.3596580  
C    -4.8149080   -1.7237910    0.6272000  
N    -3.9595850   -1.9164980    1.6916080  
C    -5.1078830   -0.5341510   -0.0808520  
C    -6.0836850   -0.6690140   -1.0674000  
O    -6.4732350    0.4373950   -1.8027590  
C    -6.7150330   -1.9027620   -1.3519470  
O    -7.6525050   -1.8231240   -2.3683210  
C    -6.4020060   -3.0558600   -0.6602330  
H    -5.1505280   -4.9670690    1.3789880  
H    -3.3391790   -1.2091990    2.0549170  
H    -7.1352810    0.1291400   -2.4481660  
H    -7.9958520   -2.7076180   -2.5619330  
H    -6.9020740   -3.9943840   -0.8899430  
H    -3.3917350   -3.5873550    2.9035840  
C     7.9370050    1.2589790    1.5252700  
C     6.6725500    1.3195020    1.0338800  
C     6.3890710    0.0422060    0.4075720  
C     7.6121920   -0.7789910    0.5861730  
N     8.5164720    0.0239450    1.2535460  
C     7.7556820   -2.0656370    0.1753020  
C     6.6286320   -2.6960340   -0.4915950  
O     6.6338600   -3.8578020   -0.8696900  
C     5.3298730   -1.8376150   -0.7385710  
O     4.4195200   -2.3502080   -1.3636990  
C     5.2683740   -0.4397130   -0.2264250  
H     5.9982480    2.1591180    1.1000680  
H     8.6576600   -2.6485260    0.3341220  
H     8.4996730    2.0097350    2.0642520  
H     9.4255440   -0.2760770    1.5688360  
