60


C    -4.6262910    0.4321590   -2.6163890  
C    -4.3866070    0.2292130   -1.2759300  
C    -5.6567720    0.1339670   -0.6060520  
C    -6.6420950    0.2909210   -1.6115650  
N    -5.9849710    0.4780320   -2.8149990  
C    -8.0143040    0.2567170   -1.3326480  
C    -8.3925730    0.0588600   -0.0148830  
O    -9.7122440    0.0127100    0.3108920  
C    -7.4132970   -0.0978420    1.0073410  
O    -7.9526440   -0.2804990    2.2612760  
C    -6.0604120   -0.0609220    0.7304880  
H    -6.4344000    0.6071390   -3.7084770  
H    -8.7744560    0.3737140   -2.0979000  
H    -9.7730620   -0.1478360    1.2687740  
H    -7.2482650   -0.4502910    2.9045340  
H    -5.3293950   -0.1821550    1.5261210  
H    -3.9298930    0.5382360   -3.4355850  
C    -2.1950180    1.1922380   -0.6134040  
C    -1.0167690    0.8171880   -0.0147380  
C    -1.1771340   -0.5841000    0.3608890  
C    -2.5325780   -0.9751690   -0.0930880  
N    -3.1062290    0.1603930   -0.6739500  
C    -3.0700140   -2.2098360    0.0507720  
C    -2.2710640   -3.2400830    0.7176160  
O    -2.6696730   -4.3802230    0.8889650  
C    -0.8453310   -2.8423700    1.2413080  
O    -0.1675480   -3.6779420    1.8168980  
C    -0.3801550   -1.4694330    1.0161790  
H    -4.0655030   -2.4651650   -0.2953740  
H     0.5962620   -1.2107000    1.4114830  
H    -2.4616090    2.1527560   -1.0340960  
C     0.1285570    1.6759000    0.1789480  
C     0.1983630    3.0411140    0.2884610  
C     1.5828620    3.4117630    0.4013390  
C     2.3505100    2.1495310    0.3627970  
N     1.4219040    1.1351300    0.2776030  
C     3.7216620    2.0525130    0.3519630  
C     4.4696420    3.3279870    0.5056960  
O     5.6705970    3.3751640    0.6866740  
C     3.6646970    4.6774030    0.5157390  
O     4.2878670    5.7282160    0.5398630  
C     2.2076360    4.6204520    0.4968760  
H    -0.6430260    3.7182390    0.3276930  
H     1.6640080    5.5601730    0.5154490  
H     1.6739440    0.2060780   -0.0353870  
C     4.4171190    0.7868100    0.2176180  
C     4.0429090   -0.4512380    0.6852510  
C     5.0688880   -1.3663900    0.2415180  
C     6.0130110   -0.5014660   -0.5379140  
N     5.6374610    0.7428090   -0.5473220  
C     7.1794710   -1.0510370   -1.1815050  
C     7.4103190   -2.3765360   -1.0355120  
O     8.4565770   -3.0251730   -1.5664200  
C     6.4849080   -3.2698930   -0.2395930  
O     6.7822230   -4.4629030   -0.1691000  
C     5.2930920   -2.6931180    0.3917440  
H     3.2321320   -0.6872400    1.3613880  
H     7.8430180   -0.4051620   -1.7454220  
H     8.3472540   -3.9615380   -1.2844240  
H     4.6452010   -3.3674170    0.9435720  
