62


C     4.8576060   -0.1025370    0.2142240  
C     5.9893700   -0.9256280    0.2711310  
C     7.1316650   -0.1062770    0.0982350  
C     6.6617280    1.2322660   -0.0679010  
N     5.2956610    1.2010620    0.0100300  
C     7.5274120    2.3138280   -0.2707190  
C     8.8859180    2.0442420   -0.3085130  
O     9.7738040    3.0557540   -0.5036530  
C     9.3746760    0.7122370   -0.1454430  
O    10.7505920    0.6221600   -0.2093720  
C     8.5242100   -0.3526920    0.0547030  
H     5.9842580   -2.0009630    0.3622960  
H     4.6425750    1.9575980   -0.1499740  
H     7.1769900    3.3324580   -0.3981310  
H    10.6654930    2.6658260   -0.5005640  
H    11.0219140   -0.3014220   -0.1011390  
H     8.9176780   -1.3597570    0.1768020  
C     2.6163360   -3.6596960    1.7299080  
C     3.5785170   -2.7348890    1.4659890  
C     2.9493190   -1.6313570    0.7783310  
C     1.5366750   -1.9882970    0.6571820  
N     1.3993460   -3.2464250    1.2026340  
C     0.5253880   -1.2106550    0.1127660  
C     0.9195360    0.1486630   -0.2243200  
O     0.1425890    1.0380230   -0.5692690  
C     2.4423840    0.5581540   -0.1366970  
O     2.6985450    1.7202770   -0.4277240  
C     3.4554880   -0.4275850    0.2958260  
H     4.6107080   -2.7961090    1.7703600  
H     2.6879850   -4.6022840    2.2551480  
H     0.4984670   -3.6300950    1.4516310  
C    -0.8374140   -1.6680190   -0.0758580  
C    -1.3853780   -2.9505870   -0.1290770  
C    -2.7845740   -2.8117580   -0.3653350  
C    -3.0541740   -1.4177440   -0.4522690  
N    -1.8648550   -0.7595940   -0.2678970  
C    -4.3404610   -0.8834340   -0.6852070  
C    -5.3666640   -1.8194750   -0.8316800  
O    -6.6377200   -1.3988770   -1.0904740  
C    -5.1153320   -3.2163180   -0.7385450  
O    -6.2492780   -3.9874410   -0.9085990  
C    -3.8516480   -3.7226580   -0.5136740  
H    -0.8375520   -3.8824720   -0.1130340  
H    -1.6884900    0.2355620   -0.3137220  
H    -7.1961200   -2.1930830   -1.1615140  
H    -6.0129620   -4.9259710   -0.8736120  
H    -3.6888030   -4.7966570   -0.4518180  
C    -3.8179990    1.4452320   -1.5208600  
C    -4.5626690    0.5695120   -0.7835470  
C    -5.5596530    1.3778830   -0.0800160  
C    -5.3228280    2.7859920   -0.4858280  
N    -4.2619820    2.7529160   -1.3667600  
C    -6.0380450    3.8506760   -0.0389810  
C    -7.1150970    3.6110800    0.9135090  
O    -7.8152910    4.5018710    1.3724430  
C    -7.3762950    2.1285030    1.3692630  
O    -8.2676870    1.9059710    2.1740090  
C    -6.5355560    1.0647330    0.8096500  
H    -5.8443380    4.8722110   -0.3517600  
H    -6.7383800    0.0464530    1.1195680  
H    -2.9860570    1.2372730   -2.1813560  
H    -3.8296150    3.5634130   -1.7815930  
