64


C     3.0005580    2.1854480   -0.1811460  
C     4.3627300    2.4593030   -0.3126150  
C     5.0595090    1.2378730   -0.1481170  
C     4.0763010    0.2241110    0.0872580  
N     2.8502280    0.8251410    0.0571850  
C     4.4150040   -1.1190120    0.2954120  
C     5.7582070   -1.4479910    0.2705790  
O     6.1449840   -2.7373240    0.4709580  
C     6.7559820   -0.4509280    0.0366110  
O     8.0406080   -0.9531380    0.0442690  
C     6.4264670    0.8693970   -0.1717930  
H     4.7892700    3.4327680   -0.5121060  
H     1.9496040    0.3968360    0.2248970  
H     3.6667340   -1.8852240    0.4632300  
H     7.1155730   -2.7647800    0.4027140  
H     8.6713410   -0.2412030   -0.1399260  
H     7.2011960    1.6122160   -0.3491150  
C     1.8501650    3.0255870   -0.2474260  
C     1.7271250    4.3833420   -0.4069020  
C     0.3216330    4.6563270   -0.3644870  
C    -0.3221070    3.3088760   -0.1862330  
N     0.5720130    2.3715430   -0.1119600  
C    -1.7771940    3.1468290   -0.0966080  
C    -2.4839490    4.3210520   -0.1293960  
O    -3.8337290    4.3842320   -0.0317490  
C    -1.8684370    5.6702150   -0.2953960  
O    -2.6477030    6.6357920   -0.3219840  
C    -0.4239190    5.7905250   -0.4189670  
H     2.5191630    5.1108500   -0.5151290  
H    -4.0278290    5.3516020   -0.0997880  
H    -0.0080700    6.7859000   -0.5376520  
C    -2.3854870    1.8369680    0.0336280  
C    -1.8267800    0.5680770   -0.0747620  
C    -2.8637630   -0.3810270    0.1378400  
C    -4.0605880    0.3561890    0.3729950  
N    -3.7439930    1.6877210    0.3015220  
C    -5.2947010   -0.2569040    0.6215890  
C    -5.3201440   -1.6411890    0.6419060  
O    -6.4856800   -2.2987870    0.8986890  
C    -4.1390640   -2.3988430    0.4018850  
O    -4.3371170   -3.7619580    0.4720600  
C    -2.9055160   -1.8041380    0.1387880  
H    -0.7890030    0.3686540   -0.2781610  
H    -4.3812810    2.4665310    0.3808400  
H    -6.2058140    0.3027670    0.8053440  
H    -6.2804230   -3.2503470    0.9077110  
H    -3.4708910   -4.2044040    0.4464130  
C     1.0717020   -2.2771010    2.2523740  
C    -0.1784000   -1.8583910    1.8763080  
C    -0.5459100   -2.6129590    0.7091020  
C     0.5385590   -3.4827050    0.4202700  
N     1.5152190   -3.2501250    1.3704410  
C     0.5348670   -4.3800170   -0.6548660  
C    -0.5902140   -4.3942660   -1.4619950  
O    -0.6491270   -5.2317100   -2.5374310  
C    -1.6922950   -3.5419700   -1.1866840  
O    -2.7302640   -3.6711750   -2.0864890  
C    -1.7065920   -2.6527260   -0.1093110  
H    -0.7704750   -1.0989170    2.3657910  
H     2.3614830   -3.7884760    1.4761930  
H     1.3678020   -5.0386950   -0.8784860  
H    -1.4907180   -5.0515520   -2.9920000  
H    -3.3636780   -2.9478630   -1.9358880  
H     1.6934800   -1.9637990    3.0791710  
