66


C    -0.1698810    2.4504970   -0.0561360  
C     0.9270690    1.6136190   -0.0519920  
C     2.0976700    2.4255490   -0.1922640  
C     1.6588550    3.7734840   -0.2649000  
N     0.2791800    3.7695700   -0.1450190  
C     2.5339850    4.8546980   -0.3976770  
C     3.8904740    4.5677720   -0.4510190  
O     4.7935920    5.5798160   -0.6010910  
C     4.3581470    3.2339640   -0.3600940  
O     5.7347300    3.1249440   -0.4343710  
C     3.4911330    2.1430880   -0.2282290  
H     0.8931810    0.5444720    0.0961740  
H    -0.3096000    4.5290820   -0.4555120  
H     2.1980340    5.8845360   -0.4611650  
H     5.6720730    5.1649210   -0.6630440  
H     5.9689640    2.1909540   -0.5866520  
C    -1.5784160    2.1489540    0.0505160  
C    -2.2811910    1.0187810   -0.3119860  
C    -3.6585950    1.2347910    0.0196180  
C    -3.7495740    2.5370580    0.5778850  
N    -2.4797290    3.0910200    0.5532170  
C    -4.9537480    3.0954030    1.0167010  
C    -6.0955370    2.3201950    0.8783880  
O    -7.3007810    2.8000610    1.3042110  
C    -6.0320230    1.0272190    0.3008240  
O    -7.2512610    0.3837630    0.2318870  
C    -4.8363620    0.4564560   -0.1348470  
H    -1.8632030    0.1570940   -0.8118680  
H    -2.1959470    3.8583420    1.1453510  
H    -5.0241870    4.0881830    1.4491940  
H    -7.9545050    2.0966660    1.1456320  
H    -7.0794760   -0.5428420   -0.0188480  
C     3.9998930    0.7725000   -0.1773560  
C     3.5065450   -0.3907580   -0.7203630  
C     4.4105100   -1.4568280   -0.3914480  
C     5.4626090   -0.8890600    0.3668410  
N     5.2383070    0.4849230    0.4391910  
C     6.5150160   -1.6471690    0.8862570  
C     6.5112920   -3.0109370    0.6253990  
O     7.5132390   -3.7986270    1.1134330  
C     5.4766110   -3.5944110   -0.1509140  
O     5.6172030   -4.9569690   -0.3335400  
C     4.4359280   -2.8387780   -0.6615680  
H     2.6223310   -0.4621870   -1.3382520  
H     5.5561270    1.0305320    1.2313120  
H     7.3212090   -1.2164180    1.4713830  
H     7.3331990   -4.7081420    0.8191320  
H     4.8781200   -5.2900650   -0.8636000  
H     3.6511520   -3.3091030   -1.2507530  
C    -5.6145600   -1.3895700   -1.7189020  
C    -4.8207800   -0.9101910   -0.6928040  
C    -3.9913120   -2.0212980   -0.2772270  
C    -4.3260770   -3.1301750   -1.0939360  
N    -5.3166080   -2.7155080   -1.9621710  
C    -3.7199110   -4.3856630   -0.9525380  
C    -2.7570340   -4.5207580    0.0345830  
O    -2.1281580   -5.7185220    0.2146190  
C    -2.4144000   -3.4215050    0.8682630  
O    -1.4425870   -3.7179120    1.8054140  
C    -3.0176250   -2.1867860    0.7287040  
H    -5.7430610   -3.2850520   -2.6760040  
H    -3.9747180   -5.2375410   -1.5747740  
H    -1.5104330   -5.6074680    0.9580610  
H    -1.2563260   -2.9302850    2.3378370  
H    -2.7418980   -1.3570760    1.3745170  
H    -6.3291610   -0.8619240   -2.3358140  
