62


C     5.2448690   -1.0101320   -0.1336480  
C     6.0699050   -2.0399450    0.2416900  
C     7.4126770   -1.6211640   -0.0454610  
C     7.3377510   -0.3116980   -0.5885210  
N     6.0011790    0.0470180   -0.6201240  
C     8.4695960    0.4117330   -0.9802180  
C     9.7043370   -0.1990510   -0.8218590  
O    10.8397840    0.4586890   -1.1943610  
C     9.8005820   -1.5056120   -0.2727210  
O    11.0972780   -1.9723970   -0.1729850  
C     8.6798500   -2.2160310    0.1154860  
H     5.7520800   -2.9649050    0.7019070  
H     5.6161340    0.8445930   -1.1032800  
H     8.4158180    1.4124230   -1.3963100  
H    11.5903300   -0.1297540   -1.0029330  
H    11.0929210   -2.8645310    0.2039940  
H     8.7792200   -3.2152840    0.5346630  
C     2.9853360   -1.8964170   -0.6191160  
C     1.6857690   -1.5244170   -0.4141410  
C     1.7149970   -0.2569290    0.2605260  
C     3.0769810    0.0938200    0.4442490  
N     3.8457250   -0.9277290   -0.1100090  
C     3.4819420    1.2755530    1.0753340  
C     2.4867760    2.1345030    1.5193800  
O     2.8209340    3.3013780    2.1324230  
C     1.1132680    1.8108450    1.3628640  
O     0.2427520    2.7231750    1.9194930  
C     0.7244630    0.6224170    0.7478440  
H     0.8122900   -2.0765870   -0.7306690  
H     4.5235850    1.5345920    1.2256520  
H     1.9861340    3.7551710    2.3492520  
H    -0.5663900    2.7963750    1.3821440  
H     3.3999480   -2.7649310   -1.1094740  
C    -1.2449750   -0.8572130    1.1855710  
C    -2.5872600   -0.8742470    0.9725740  
C    -2.9268740    0.3306310    0.2547980  
C    -1.6469570    1.0444050    0.0395990  
N    -0.6559810    0.2867930    0.6424100  
C    -1.5082480    2.2070090   -0.6613350  
C    -2.7030850    2.8013620   -1.2476090  
O    -2.6753690    3.7869910   -1.9671510  
C    -4.0894030    2.1472930   -0.9173690  
O    -5.0967720    2.7753250   -1.1776170  
C    -4.1179850    0.8237710   -0.2291420  
H    -3.2686170   -1.6537950    1.2747060  
H    -0.5426010    2.6461920   -0.8949150  
H    -0.6160590   -1.5734590    1.6963140  
C    -5.3911700    0.1453650   -0.0572260  
C    -5.8394130   -0.5667560    1.0237700  
C    -7.1634300   -1.0288930    0.6683240  
C    -7.3692570   -0.5096150   -0.7221440  
N    -6.3470400    0.1739930   -1.1394530  
C    -8.5819470   -0.7801080   -1.4536940  
C    -9.5431470   -1.5032410   -0.8334450  
O   -10.7226320   -1.8241620   -1.3860540  
C    -9.3688890   -2.0266610    0.5724820  
O   -10.2971180   -2.6777400    1.0521220  
C    -8.1193380   -1.7514740    1.2954170  
H    -5.3497590   -0.6971690    1.9784220  
H    -8.7044760   -0.3973190   -2.4606360  
H   -11.1972280   -2.3434880   -0.6990750  
H    -8.0276970   -2.1532970    2.2999580  
