60


C     1.7539460    2.1499330    2.8541880  
C     1.5117460    3.4747270    3.0815520  
C     1.4584060    4.1243970    1.8010080  
C     1.6775820    3.1281090    0.8171190  
N     1.8659680    1.9156670    1.4825970  
C     1.6526190    3.4030780   -0.5555810  
C     1.4268120    4.7162890   -0.9403080  
O     1.3967410    5.0389150   -2.2658060  
C     1.2216210    5.7308400    0.0313520  
O     1.0106940    6.9859580   -0.5075490  
C     1.2311370    5.4507730    1.3853600  
H     1.3935970    3.9394880    4.0509410  
H     1.7981360    2.6414030   -1.3128960  
H     1.2359550    5.9962460   -2.3259970  
H     0.8947680    7.6290580    0.2072670  
H     1.0594330    6.2419190    2.1127600  
H     1.8891470    1.3291650    3.5439780  
C     1.3339530   -0.4514310    1.0805830  
C     2.0936400    0.6611370    0.8975790  
C     3.2179620    0.2966190    0.0513240  
C     3.0419870   -1.1415300   -0.2541610  
N     1.8969650   -1.5622970    0.4371620  
C     3.8476140   -1.8336880   -1.0955370  
C     4.9958890   -1.1443850   -1.6883620  
O     5.7667240   -1.6963290   -2.4574760  
C     5.2404030    0.3583270   -1.3093590  
O     6.2181710    0.9331320   -1.7593790  
C     4.2639670    1.0130020   -0.4333750  
H     3.7068360   -2.8774910   -1.3411940  
H     4.3995790    2.0669250   -0.2148750  
H     0.4050760   -0.5562290    1.6189790  
C    -2.2495980   -2.7170400   -0.0001680  
C    -2.1322530   -4.0842210    0.0024220  
C    -0.7289830   -4.3646280    0.1847350  
C    -0.0998320   -3.0124830    0.2687240  
N    -0.9754130   -2.0634580    0.1688180  
C     1.3386540   -2.8518730    0.4443480  
C     2.0717760   -3.9927480    0.6105920  
O     3.3916580   -4.0047700    0.8538840  
C     1.4563920   -5.3534180    0.5250860  
O     2.2055510   -6.3203050    0.6830350  
C     0.0100830   -5.4912990    0.2974490  
H    -2.9212910   -4.8168550   -0.0949420  
H     3.6312130   -4.9587300    0.9079890  
H    -0.3917540   -6.4983990    0.2471710  
C    -3.4429560   -1.9219150   -0.1384180  
C    -4.7102450   -2.3584000   -0.4378080  
C    -5.5353790   -1.1740930   -0.4577310  
C    -4.5843310   -0.0600520   -0.1372740  
N    -3.3742950   -0.4958110    0.0467420  
C    -5.0293270    1.3084190   -0.0569850  
C    -6.3401660    1.5589470   -0.2844810  
O    -6.8922220    2.7793970   -0.2445280  
C    -7.3208540    0.4572660   -0.6111110  
O    -8.4925640    0.7793290   -0.8012000  
C    -6.8469920   -0.9337230   -0.6864670  
H    -5.0353640   -3.3703960   -0.6359350  
H    -4.3215650    2.0962220    0.1752520  
H    -7.8440680    2.6442460   -0.4497030  
H    -7.5819260   -1.6975280   -0.9216380  
