60


C    -6.5841900   -2.5918700    1.0420750  
C    -5.4782690   -1.7823360    0.9920210  
C    -5.8316590   -0.6203690    0.2237500  
C    -7.1914570   -0.7851480   -0.1564540  
N    -7.6159760   -2.0001620    0.3416440  
C    -7.9059510    0.1757530   -0.8767580  
C    -7.2366420    1.3469800   -1.1972390  
O    -7.8750100    2.3331700   -1.8820240  
C    -5.8826320    1.5528650   -0.8228160  
O    -5.3724780    2.7597070   -1.2441520  
C    -5.1421170    0.5750260   -0.1467490  
H    -4.5258360   -1.9962120    1.4537980  
H    -8.5523800   -2.3641300    0.2615450  
H    -8.9455050    0.0498760   -1.1618870  
H    -7.2289510    3.0625780   -1.9511560  
H    -4.8549180    3.1277250   -0.4912000  
H    -6.7222260   -3.5507560    1.5212650  
C    -1.6372890   -2.0472140   -0.8112280  
C    -2.8584340   -1.4645910   -0.8254590  
C    -2.7654290   -0.2204820   -0.0967920  
C    -1.3584670   -0.1207010    0.3570280  
N    -0.7020060   -1.2499830   -0.1203400  
C    -0.8670170    0.8843140    1.1373060  
C    -1.7675760    1.9692380    1.4800790  
O    -1.4612950    2.9039590    2.2040680  
C    -3.2047340    1.9635550    0.8437720  
O    -3.8398320    3.0122170    0.9241520  
C    -3.7090370    0.7444210    0.1800970  
H    -3.7459820   -1.8552710   -1.2971960  
H     0.1239250    0.8796030    1.5761090  
H    -1.3100560   -2.9800750   -1.2436870  
C     2.9244810    1.0930650   -0.7022620  
C     3.8622440    0.1678910   -0.3314480  
C     3.1217910   -1.0519340    0.0119210  
C     1.6906950   -0.7275550   -0.1907290  
N     1.6461250    0.5708020   -0.6518740  
C     0.6550040   -1.5894850    0.0511830  
C     0.9912600   -2.9493830    0.5041470  
O     0.1467460   -3.8082470    0.6964210  
C     2.5052960   -3.2978410    0.7331770  
O     2.7841420   -4.4181490    1.1249180  
C     3.5128130   -2.2743620    0.4552020  
H     4.5509570   -2.5468480    0.5955990  
H     3.0811590    2.1070770   -1.0444290  
H     0.7966610    1.1033300   -0.7761870  
C     6.3657850    3.5834520    1.0659600  
C     5.2983270    2.7771830    0.8488200  
C     5.8417180    1.5933040    0.1890990  
C     7.3042050    1.8748330    0.1003040  
N     7.6037940    3.0385150    0.6053700  
C     8.2283470    0.9321100   -0.4762110  
C     7.7282770   -0.2372560   -0.9345800  
O     8.4738120   -1.2121180   -1.4817770  
C     6.2588610   -0.5510280   -0.8745030  
O     5.8969660   -1.6281140   -1.3426350  
C     5.2996990    0.4374250   -0.2859820  
H     4.2703980    2.9488150    1.1341310  
H     9.2857770    1.1670770   -0.5228840  
H     7.8437170   -1.9209460   -1.7341990  
H     6.3778800    4.5553680    1.5446180  
