60


C    -6.9167570   -1.3712380   -2.3401780  
C    -7.9394680   -0.5523550   -1.9419010  
C    -7.3711420    0.4483990   -1.0832540  
C    -5.9797790    0.1749280   -1.0023220  
N    -5.7281090   -0.9301330   -1.7845740  
C    -5.1057750    0.9703410   -0.2368970  
C    -5.6499540    2.0588020    0.4433070  
O    -4.8398240    2.8625640    1.1912720  
C    -7.0348670    2.3453460    0.3505760  
O    -7.4097550    3.4624840    1.0715450  
C    -7.8943040    1.5596270   -0.3941320  
H    -8.9777690   -0.6460180   -2.2278810  
H    -4.8387780   -1.3993080   -1.8609580  
H    -5.4096320    3.5415040    1.5943580  
H    -8.3736230    3.5561300    1.0515610  
H    -8.9529580    1.8032670   -0.4505000  
H    -6.9276480   -2.2411260   -2.9812260  
C    -2.7069500    1.6051000   -0.5350790  
C    -1.4701740    1.0711910   -0.3665590  
C    -1.6443700   -0.2630970    0.1589030  
C    -3.1098330   -0.4638590    0.2835850  
N    -3.7108480    0.7065390   -0.1671540  
C    -3.6990990   -1.5997550    0.7431690  
C    -2.8428340   -2.7152360    1.1267890  
O    -3.2775760   -3.7850280    1.5243720  
C    -1.2885830   -2.5252760    1.0305730  
O    -0.5636860   -3.4082830    1.4536140  
C    -0.7537650   -1.2502430    0.4900700  
H    -0.5316170    1.5547040   -0.5906480  
H    -4.7727900   -1.7154090    0.8404660  
H    -2.9922430    2.5808830   -0.9018910  
C     2.2397290    1.5300370    2.2794450  
C     1.0949180    0.9066350    1.9062850  
C     1.4571160   -0.1637450    0.9978820  
C     2.9318390   -0.1055630    0.8765690  
N     3.3480660    0.9243240    1.6875500  
C     3.6855440   -0.9602040    0.1137440  
C     2.9852460   -2.0412030   -0.5828450  
O     3.5649810   -2.9126430   -1.2123050  
C     1.4177050   -2.0798600   -0.5104880  
O     0.8381400   -2.8707500   -1.2300760  
C     0.7064560   -1.1225990    0.3711900  
H     0.0959740    1.1478580    2.2353580  
H     2.3828210    2.3681530    2.9480160  
H     4.2882690    1.2919330    1.7026780  
C     5.9622090   -1.9781520    0.1645090  
C     7.2558310   -1.6042670    0.0285350  
C     7.2738250   -0.1858060   -0.2520610  
C     5.8526070    0.2467300   -0.2761040  
N     5.0912750   -0.8803980    0.0142090  
C     5.4504940    1.5151860   -0.5650610  
C     6.4693010    2.5282060   -0.8340230  
O     6.1937890    3.6880520   -1.1013870  
C     7.9782220    2.0980080   -0.7679220  
O     8.8428960    2.9387510   -0.9564320  
C     8.2830180    0.6925810   -0.4863780  
H     8.1184020   -2.2499260    0.1070300  
H     4.4107680    1.8083870   -0.6573300  
H     9.3274580    0.3956150   -0.4836380  
H     5.5405450   -2.9521030    0.3600040  
