64


C     3.2857450    0.3408890   -0.0041160  
C     1.9097980    0.3219840   -0.1818620  
C     1.3796900    1.5057630    0.4290470  
C     2.4787650    2.2343120    0.9556970  
N     3.6130880    1.4956510    0.6935120  
C     2.3411390    3.4728570    1.5904610  
C     1.0577440    3.9872090    1.7100390  
O     0.8581090    5.1886920    2.3145990  
C    -0.0692190    3.2683630    1.2300580  
O    -1.2863190    3.8578730    1.5023140  
C     0.0818480    2.0361050    0.5956590  
H     1.3436840   -0.4961960   -0.6058670  
H     4.5622180    1.8061780    0.8391260  
H     3.1851100    4.0357070    1.9748430  
H    -0.1006160    5.3624350    2.2758580  
H    -1.8935320    3.7469300    0.7455350  
C    -1.4179300    0.0322430    0.5969100  
C    -2.6137890   -0.3752080    0.0904690  
C    -3.0893370    0.7233910   -0.7521760  
C    -2.0533330    1.7818650   -0.6895080  
N    -1.0586300    1.3148360    0.1456410  
C    -2.1267770    2.9730180   -1.3549210  
C    -3.3002110    3.2367340   -2.1814930  
O    -3.4422490    4.2577480   -2.8373340  
C    -4.4279610    2.1439430   -2.2234680  
O    -5.4406560    2.3598410   -2.8686490  
C    -4.2181710    0.8916440   -1.4826760  
H    -1.3121640    3.6916620   -1.3750280  
H    -4.9820590    0.1263310   -1.5582620  
H    -0.7412810   -0.4925410    1.2581000  
C    -3.6130510   -2.2477230    3.9583670  
C    -4.1996800   -3.3858990    3.4715000  
C    -4.1522320   -3.3059410    2.0385460  
C    -3.5109030   -2.0831360    1.7124210  
N    -3.1818310   -1.4651910    2.9018780  
C    -3.3000240   -1.6453190    0.3864550  
C    -3.7655060   -2.4944040   -0.6194180  
O    -3.5841430   -2.1560480   -1.9307920  
C    -4.4089220   -3.7200490   -0.3092560  
O    -4.7983160   -4.4345290   -1.4273610  
C    -4.6024290   -4.1364130    0.9936900  
H    -4.6161680   -4.1898030    4.0627170  
H    -2.8092270   -0.5314260    2.9776180  
H    -3.9654560   -2.8737650   -2.4664660  
H    -5.2064810   -5.2689350   -1.1534390  
H    -5.0982740   -5.0821540    1.2028710  
H    -3.4535590   -1.9254900    4.9776820  
C     7.1275480   -1.0882150    1.8750840  
C     5.9211040   -0.4745290    1.6517090  
C     5.4801450   -0.8675210    0.3402400  
C     6.4724800   -1.7379650   -0.1810770  
N     7.4648410   -1.8465690    0.7723640  
C     6.3717590   -2.3486850   -1.4370550  
C     5.2409630   -2.0724640   -2.1879170  
O     5.0952440   -2.6231550   -3.4268870  
C     4.2307900   -1.2084800   -1.6933630  
O     3.1841410   -1.0195120   -2.5679530  
C     4.3237750   -0.5924580   -0.4428840  
H     5.3957260    0.1495810    2.3605340  
H     8.2960140   -2.4095130    0.6830330  
H     7.1334820   -3.0116170   -1.8343740  
H     4.2654360   -2.2730790   -3.7965140  
H     2.6685600   -0.2450650   -2.2745300  
H     7.7769290   -1.0530850    2.7383360  
