60


C     5.4674230    3.3180180    1.0500710  
C     6.6347860    3.2652310    0.3345830  
C     6.6668370    1.9886520   -0.3183460  
C     5.4753660    1.3077690    0.0289080  
N     4.7616970    2.1447130    0.8558790  
C     5.1754440   -0.0194710   -0.3882800  
C     6.1569540   -0.6393710   -1.1966890  
O     5.9564410   -1.8714200   -1.7084830  
C     7.3468480    0.0480680   -1.5562350  
O     8.1830710   -0.6973060   -2.3646860  
C     7.6098100    1.3367370   -1.1376670  
H     7.3864030    4.0405340    0.2812590  
H     3.9287080    1.8683740    1.3530180  
H     6.7385590   -2.0893650   -2.2478370  
H     8.9472050   -0.1643770   -2.6290070  
H     8.5316230    1.8340260   -1.4327190  
H     5.0661410    4.1002960    1.6783690  
C     3.9425460   -0.6719280   -0.0099970  
C     2.7167030   -0.0759900    0.2548070  
C     1.8283910   -1.1346150    0.6075520  
C     2.6874330   -2.3646920    0.5321000  
N     3.9066740   -2.0906880    0.1675080  
C     2.1678540   -3.6710430    0.8204910  
C     0.8542350   -3.7615320    1.1320830  
O     0.2307830   -4.9079400    1.4277300  
C    -0.0519810   -2.5483230    1.2193360  
O    -1.1946860   -2.7677270    1.6209050  
C     0.4825250   -1.2067510    0.9001950  
H     2.4417110    0.9543220    0.0832760  
H     2.8156310   -4.5391310    0.7739730  
H    -0.6921480   -4.6400360    1.6466490  
C    -0.4011350   -0.0561160    0.9394990  
C    -0.1191690    1.2154280    1.3641440  
C    -1.3390010    1.9676720    1.1974100  
C    -2.3021600    0.9804920    0.6034020  
N    -1.7553240   -0.1894190    0.4641040  
C    -3.6617170    1.3536320    0.2414370  
C    -4.0255760    2.6339720    0.5498900  
O    -5.2571690    3.1169970    0.3602330  
C    -3.0844180    3.6343180    1.1709040  
O    -3.5308540    4.7598080    1.3997080  
C    -1.7061320    3.2399790    1.4705620  
H     0.7994340    1.5737360    1.8059260  
H    -5.2134720    4.0589740    0.6417550  
H    -1.0508520    3.9918810    1.8991850  
C    -5.1415940   -2.8065830    1.0054550  
C    -4.4868140   -1.6212720    1.0807920  
C    -4.8931550   -0.8280590   -0.0596900  
C    -5.8599430   -1.6673340   -0.8162780  
N    -5.9672900   -2.8499080   -0.1161980  
C    -6.5055770   -1.2921400   -1.9511170  
C    -6.2267730    0.0269030   -2.4905170  
O    -6.7697740    0.4766680   -3.4889540  
C    -5.1646550    0.9189110   -1.7507990  
O    -4.8285250    1.9643540   -2.2777510  
C    -4.5786540    0.4417910   -0.4681860  
H    -3.7453440   -1.3509500    1.8141030  
H    -7.2280780   -1.9205040   -2.4629700  
H    -5.0879530   -3.6615140    1.6662200  
H    -6.5603610   -3.6207440   -0.3787830  
