64


C    -4.0336760    0.0574080    0.1053510  
C    -4.8566530   -0.3243690    1.1400270  
C    -6.1178100   -0.7238480    0.5840750  
C    -6.0195700   -0.5686070   -0.8199870  
N    -4.7655750   -0.0301470   -1.0991520  
C    -7.0607460   -0.8968850   -1.6921010  
C    -8.2346420   -1.3827350   -1.1325590  
O    -9.2812200   -1.7220940   -1.9387010  
C    -8.3598800   -1.5240070    0.2745860  
O    -9.5896740   -2.0070460    0.6781030  
C    -7.3247730   -1.1996950    1.1329980  
H    -4.6040400   -0.2647090    2.1894120  
H    -4.2945980   -0.2109800   -1.9774570  
H    -6.9878220   -0.7837230   -2.7689560  
H   -10.0015420   -2.0301690   -1.3620190  
H    -9.6070730   -2.0829570    1.6435300  
H    -7.4423890   -1.3201860    2.2080780  
C    -0.4573870   -0.9085980    2.6382470  
C    -1.7035130   -0.8987790    2.0681770  
C    -1.6907330    0.0996860    1.0353740  
C    -0.3879280    0.6571320    1.0173720  
N     0.3425890    0.0234240    2.0015950  
C     0.0137840    1.6882370    0.1388910  
C    -0.9613230    2.1342490   -0.7560190  
O    -0.6508070    3.0942630   -1.6678380  
C    -2.2651710    1.5830790   -0.7654830  
O    -3.0906800    2.1504160   -1.7192580  
C    -2.6654050    0.5722660    0.1141740  
H    -2.5303490   -1.5379880    2.3396640  
H     1.2910750    0.2601580    2.2489240  
H    -1.4771400    3.3242100   -2.1290080  
H    -4.0147120    1.9153240   -1.5171900  
H    -0.0651170   -1.5058590    3.4494340  
C     4.1529270   -0.0098490   -0.1598350  
C     2.7812370    0.1251570   -0.1567290  
C     2.5170860    1.5217780    0.0730040  
C     3.8763380    2.1286620    0.1976970  
N     4.8214580    1.2434240    0.0659080  
C     4.0549490    3.5388960    0.4293910  
C     2.9402150    4.2991100    0.5151210  
O     2.9449770    5.6249930    0.7190230  
C     1.5463430    3.7123250    0.4257630  
O     0.6159620    4.4920940    0.6210990  
C     1.3715370    2.2615300    0.1737990  
H     2.0420720   -0.6189140   -0.4162440  
H     5.0517590    3.9566040    0.5154420  
H     1.9935960    5.8730500    0.7737270  
C     3.1432640   -4.1345300    1.0012000  
C     4.2999380   -4.7351510    0.5790090  
C     5.1229530   -3.7052680    0.0133730  
C     4.4041710   -2.4882360    0.1127440  
N     3.1998840   -2.7834570    0.7135190  
C     4.9227050   -1.2316140   -0.3069990  
C     6.2189100   -1.2635380   -0.8611450  
O     6.7897530   -0.1430330   -1.3600890  
C     6.9371690   -2.4844340   -0.9706070  
O     8.1853080   -2.3351140   -1.5476420  
C     6.4147880   -3.6896670   -0.5481160  
H     4.5406580   -5.7861150    0.6609220  
H     2.5116570   -2.0966920    0.9817720  
H     7.6692210   -0.3954640   -1.6942340  
H     8.6121900   -3.2004300   -1.6285620  
H     6.9924800   -4.6065740   -0.6479940  
H     2.2679740   -4.5553550    1.4753220  
