66


C    -3.1029350    0.7830480    0.3439780  
C    -3.7503170    1.9609860    0.6311960  
C    -2.7638500    3.0053190    0.6879970  
C    -1.5078870    2.4056600    0.4355180  
N    -1.7208940    1.0406810    0.2787450  
C    -0.2919570    3.1248060    0.3605780  
C    -0.4122800    4.5104380    0.5362680  
O     0.7002100    5.3125600    0.4467150  
C    -1.6570750    5.1213760    0.8143920  
O    -1.5722260    6.4918320    0.9807900  
C    -2.8307030    4.3945430    0.9036830  
H    -4.8090380    2.0630280    0.8258810  
H    -1.1096080    0.4785510   -0.3064050  
H     0.4067800    6.2255730    0.6137720  
H    -2.4510860    6.8502920    1.1727600  
H    -3.7762870    4.8903950    1.1113350  
C    -6.6858160   -0.9562200   -1.7464400  
C    -5.7566990   -0.0954540   -1.2217010  
C    -4.7774320   -0.8931170   -0.5394650  
C    -5.1678290   -2.2494430   -0.6969340  
N    -6.3359750   -2.2559460   -1.4323210  
C    -4.4221570   -3.3223600   -0.1913420  
C    -3.2670240   -3.0106770    0.5050780  
O    -2.4766750   -4.0129900    1.0165590  
C    -2.8614070   -1.6667770    0.6948520  
O    -1.7165850   -1.5442730    1.4529250  
C    -3.5855320   -0.5899940    0.1723760  
H    -5.7611090    0.9802510   -1.3186980  
H    -6.8505720   -3.0800770   -1.6995390  
H    -4.7147400   -4.3594640   -0.3208920  
H    -1.8106460   -3.5737770    1.5775510  
H    -1.5283130   -0.5995240    1.6001950  
H    -7.5765090   -0.7525770   -2.3239970  
C     0.9746960    2.4518120    0.0870890  
C     1.2973100    1.1102590    0.2171630  
C     2.6246670    0.9313710   -0.2664620  
C     3.0993350    2.2090620   -0.6616630  
N     2.0805960    3.1086020   -0.4422390  
C     4.3895390    2.4005850   -1.1743060  
C     5.1947070    1.2788520   -1.3034770  
O     6.4546150    1.4014040   -1.8151910  
C     4.7270150   -0.0098560   -0.9254400  
O     5.6380730   -1.0246790   -1.1448040  
C     3.4502950   -0.2143970   -0.4060900  
H     0.6830920    0.3352370    0.6444060  
H     2.1239590    4.1116750   -0.5446730  
H     4.7669160    3.3702900   -1.4818340  
H     6.8246860    0.5033470   -1.8763560  
H     5.1845720   -1.8781630   -1.0348140  
C    -0.1812920   -2.5593450   -1.6610470  
C     0.8319920   -1.6374620   -1.5919320  
C     1.7464000   -2.0926750   -0.5795920  
C     1.2320390   -3.3187850   -0.0836300  
N     0.0663840   -3.5921400   -0.7755060  
C     1.8732730   -4.0598550    0.9175140  
C     3.0512080   -3.5447420    1.4348790  
O     3.7128800   -4.2140960    2.4248920  
C     3.5738700   -2.3118000    0.9651640  
O     4.7286750   -1.9110840    1.6102440  
C     2.9466930   -1.5643090   -0.0333230  
H     0.9346680   -0.7526940   -2.2034960  
H    -0.6410190   -4.2466190   -0.4675110  
H     1.4847460   -4.9995850    1.2969560  
H     4.4652270   -3.6557000    2.6883530  
H     4.8889230   -0.9732120    1.4069400  
H    -1.0622450   -2.5801310   -2.2870190  
