62


C     0.4848070    2.4004740    0.3256030  
C     0.1259960    2.8733650    1.5695040  
C    -1.1470040    2.3075910    1.9078240  
C    -1.5339640    1.4796590    0.8267410  
N    -0.5122440    1.5060100   -0.1118780  
C    -2.7521340    0.7758230    0.7796340  
C    -3.5968970    0.9350550    1.8840490  
O    -4.7711780    0.2530580    1.9353960  
C    -3.2206430    1.7544270    2.9793770  
O    -4.1574390    1.7818860    3.9952380  
C    -2.0145200    2.4309000    3.0104700  
H     0.7208880    3.5405330    2.1736510  
H    -0.7081350    1.3809220   -1.0971320  
H    -5.2502170    0.5593160    2.7253280  
H    -3.9247080    2.4746570    4.6308900  
H    -1.7505810    3.0486370    3.8662550  
C    -0.8109350   -2.8180390   -0.8150340  
C    -1.6705900   -3.0789420   -1.8571310  
C    -2.6849450   -2.0627570   -1.8777230  
C    -2.3663890   -1.1474400   -0.7620620  
N    -1.1753470   -1.6049980   -0.1983570  
C    -3.1214410   -0.0861190   -0.3641960  
C    -4.3281430    0.2026630   -1.1780580  
O    -5.0348090    1.1739750   -0.9823290  
C    -4.6796200   -0.7554290   -2.3764190  
O    -5.6981260   -0.5350470   -3.0164100  
C    -3.7806340   -1.8650500   -2.6669460  
H    -1.5760510   -3.8925430   -2.5624260  
H    -4.0381760   -2.5253010   -3.4893040  
H    -0.9755200   -1.4146000    0.7753780  
C     0.6188260   -4.8831730   -0.6333710  
C     0.3268790   -3.5696220   -0.3586710  
C     1.4436610   -3.1277910    0.5026020  
C     2.3057810   -4.3420160    0.6183170  
N     1.8077770   -5.3516790   -0.0542410  
C     3.5228560   -4.3424910    1.3759070  
C     3.8859340   -3.1906240    1.9936970  
O     4.9930860   -3.0500520    2.7334150  
C     3.0484970   -1.9454270    1.8917030  
O     3.4370810   -0.9423680    2.4834040  
C     1.7988850   -1.9706910    1.0971130  
H     4.1210430   -5.2446460    1.4373140  
H     4.9899460   -2.1176790    3.0440800  
H     1.2516240   -1.0352080    1.0405280  
H     0.0203780   -5.5692350   -1.2215620  
C     2.3867660   -0.1262930   -2.7809460  
C     3.3759160    0.7497110   -3.1394920  
C     3.2265690    1.9161850   -2.3156570  
C     2.1096050    1.6932770   -1.4707930  
N     1.6094990    0.4401840   -1.7863440  
C     1.6647250    2.6291720   -0.5013950  
C     2.4281260    3.8006730   -0.4000750  
O     2.0941320    4.7588740    0.5127740  
C     3.5448760    4.0314850   -1.2410540  
O     4.1670580    5.2455180   -1.0083050  
C     3.9486040    3.1193380   -2.1961330  
H     4.1255940    0.5877020   -3.9017500  
H     0.8903200   -0.0399450   -1.2653950  
H     2.7058140    5.5037770    0.3752360  
H     4.8487020    5.3930380   -1.6800920  
H     4.8113150    3.3222420   -2.8271220  
H     2.1548140   -1.1124020   -3.1579230  
