60


C     2.9459990   -1.0393600   -2.6718760  
C     2.9325020   -0.6353810   -1.3529030  
C     3.7933190   -1.5526880   -0.6356850  
C     4.2901360   -2.4825990   -1.5831710  
N     3.7493000   -2.1485910   -2.8110800  
C     5.1516990   -3.5314100   -1.2383280  
C     5.5177040   -3.6459540    0.0932920  
O     6.3605240   -4.6430360    0.4840940  
C     5.0175710   -2.7333110    1.0614590  
O     5.4591090   -2.9887310    2.3442300  
C     4.1621710   -1.7035310    0.7171860  
H     3.9807070   -2.5902260   -3.6873110  
H     5.5377870   -4.2398520   -1.9640840  
H     6.5146530   -4.5324500    1.4385700  
H     5.2043910   -2.2598290    2.9295080  
H     3.7860000   -1.0261290    1.4796540  
H     2.4616070   -0.5932930   -3.5291610  
C     0.8545670    0.7635800   -1.0888300  
C     2.1596860    0.4851930   -0.8219940  
C     2.6356530    1.5620730    0.0418560  
C     1.4948590    2.4863620    0.2449760  
N     0.4249990    1.9633010   -0.4990550  
C     1.5404080    3.5697620    1.0555610  
C     2.8008270    3.8883200    1.7301520  
O     2.9218990    4.8434210    2.4804840  
C     4.0375210    2.9595970    1.4715100  
O     5.1006480    3.2170190    2.0138140  
C     3.8514700    1.7977260    0.5986170  
H     0.7046940    4.2391470    1.2146910  
H     4.7004800    1.1417200    0.4384380  
H     0.1553550    0.2037690   -1.6938070  
C    -3.5312920    0.0054160   -0.0466010  
C    -2.1679000    0.2068770   -0.0732650  
C    -1.9833270    1.5912570   -0.4218600  
C    -3.3659680    2.1077950   -0.6165290  
N    -4.2624290    1.1916490   -0.3941170  
C    -3.6276340    3.4766060   -0.9866130  
C    -2.5685060    4.3042760   -1.1260660  
O    -2.6645830    5.6052610   -1.4451530  
C    -1.1512710    3.8297210   -0.9465150  
O    -0.2520590    4.6368060   -1.1728950  
C    -0.9005340    2.4168900   -0.5555080  
H    -1.3991960   -0.4893160    0.2283500  
H    -4.6487230    3.8146740   -1.1211810  
H    -1.7409850    5.9316400   -1.5134160  
C    -2.6597940   -4.3141790   -0.6912090  
C    -2.5958130   -2.9529560   -0.6615430  
C    -3.7922200   -2.4738940   -0.0144250  
C    -4.5802860   -3.6812190    0.3193940  
N    -3.8254940   -4.7631230   -0.0966560  
C    -5.8158580   -3.6832800    0.8845940  
C    -6.4262600   -2.3986530    1.1962490  
O    -7.5631680   -2.2854310    1.6264990  
C    -5.5635230   -1.1036140    0.9925910  
O    -5.9601330   -0.0734030    1.4998610  
C    -4.2600330   -1.2043820    0.2695020  
H    -1.7991440   -2.3507870   -1.0674580  
H    -6.3816160   -4.5886460    1.0822910  
H    -1.9510740   -5.0236150   -1.0974590  
H    -4.1227100   -5.7249370   -0.0428490  
