62


C     4.7626670   -0.8167390    0.1489210  
C     5.4357400   -1.9853830   -0.1352100  
C     6.8397220   -1.6962470   -0.1260760  
C     6.9761020   -0.3146110    0.1710400  
N     5.7003990    0.2073740    0.2972370  
C     8.2199420    0.3170200    0.2767820  
C     9.3518650   -0.4581610    0.0711730  
O    10.5911280    0.1081780    0.1666070  
C     9.2354870   -1.8377950   -0.2425530  
O    10.4508470   -2.4719110   -0.4271560  
C     8.0043020   -2.4592170   -0.3453850  
H     4.9689430   -2.9312090   -0.3749520  
H     5.4886790    1.0847730    0.7487090  
H     8.3290080    1.3717020    0.5088920  
H    11.2408130   -0.5933740   -0.0118880  
H    10.2986940   -3.4059940   -0.6327600  
H     7.9416790   -3.5190310   -0.5851560  
C     2.4037250   -1.4002990    0.8371600  
C     3.3399530   -0.5519070    0.2877950  
C     2.6161530    0.6308800   -0.1279380  
C     1.2531260    0.4312360    0.2055280  
N     1.1542270   -0.8181900    0.7774270  
C     0.2394390    1.3679530   -0.1100010  
C     0.6578910    2.5430050   -0.7479190  
O    -0.2417400    3.5292890   -0.9957400  
C     2.0175840    2.7486310   -1.0886040  
O     2.2520290    3.9568520   -1.7137080  
C     2.9910280    1.8117120   -0.7969240  
H     0.3099350   -1.2141870    1.1616420  
H     0.2140420    4.2150190   -1.5156110  
H     3.1582860    3.9792710   -2.0553110  
H     4.0243870    1.9809000   -1.0904320  
H     2.5401500   -2.3726480    1.2877710  
C    -2.1233750    0.2706900    3.5363930  
C    -1.0895740    0.5943370    2.7215120  
C    -1.6797760    0.7652110    1.3969890  
C    -3.1238040    0.5002100    1.6182300  
N    -3.3792340    0.2149140    2.8646790  
C    -4.0973700    0.5861310    0.5394290  
C    -3.6283910    0.9696080   -0.6820080  
O    -4.4090370    1.1326820   -1.7635440  
C    -2.1719440    1.1885070   -0.9425510  
O    -1.8462500    1.3914430   -2.1084350  
C    -1.1789310    1.1264810    0.1843690  
H    -0.0493370    0.7258130    2.9831210  
H    -3.7873600    1.3348950   -2.4989360  
H    -2.0990150    0.0714880    4.6008680  
C    -6.1668860    0.7325970    1.9093660  
C    -7.4387730    0.2683970    1.9006290  
C    -7.5905250   -0.5729150    0.7357750  
C    -6.2782130   -0.5600830    0.0427100  
N    -5.4452320    0.2778920    0.7924690  
C    -6.0022770   -1.2919580   -1.0643260  
C    -7.0671770   -2.1134850   -1.6407290  
O    -6.9009580   -2.8028770   -2.6353240  
C    -8.4753540   -2.1060310   -0.9459670  
O    -9.3773950   -2.7753500   -1.4260870  
C    -8.6371630   -1.3005700    0.2644710  
H    -8.1999410    0.4817870    2.6371460  
H    -5.0405700   -1.2936330   -1.5598500  
H    -9.6016240   -1.3256010    0.7626700  
H    -5.6680340    1.3664380    2.6260130  
