64


C     3.2858220   -0.2192810    1.9095290  
C     4.6412070   -0.2821770    2.0621320  
C     5.1525140   -1.0930640    0.9911730  
C     4.0423170   -1.5106510    0.2152400  
N     2.8949890   -0.9604400    0.7910590  
C     4.1840660   -2.2897070   -0.9385570  
C     5.4665760   -2.6700450   -1.3013890  
O     5.6578550   -3.4366900   -2.4149870  
C     6.5882510   -2.2704810   -0.5288820  
O     7.7987900   -2.7254120   -1.0189580  
C     6.4461620   -1.4903570    0.6036890  
H     5.2121380    0.1764200    2.8584550  
H     3.3419070   -2.6234120   -1.5320480  
H     6.6104770   -3.6224510   -2.4755040  
H     8.5044540   -2.4920950   -0.3980910  
H     7.3198190   -1.1850450    1.1765850  
H     2.5297280    0.2471190    2.5244520  
C    -0.1462350    2.0981590   -0.0515200  
C     1.0283780    1.4265080    0.2221930  
C     0.7670150    0.0174560    0.1507210  
C    -0.6613940   -0.1134470   -0.1915260  
N    -1.1578030    1.1633060   -0.2808830  
C    -1.3147640   -1.2964600   -0.4053350  
C    -0.5312270   -2.5299280   -0.2836590  
O    -0.9736480   -3.6365690   -0.5396580  
C     0.9667690   -2.4212610    0.1973980  
O     1.5639680   -3.4540130    0.4472060  
C     1.5659830   -1.0834990    0.3444580  
H     2.0060140    1.8636420    0.3492040  
H    -2.0826500    1.4107180   -0.6045980  
C     1.9999040    5.4833110    1.8149790  
C     1.2428200    6.4912970    1.2828940  
C     0.2282200    5.8725850    0.4784400  
C     0.4328190    4.4698390    0.5504360  
N     1.5261170    4.2644010    1.3620930  
C    -0.4040240    3.5294950   -0.1064090  
C    -1.4903530    4.0768230   -0.8102300  
O    -2.3744080    3.2593010   -1.4605080  
C    -1.6960640    5.4738040   -0.8933810  
O    -2.8005750    5.8199400   -1.6471500  
C    -0.8515020    6.3731810   -0.2718580  
H     1.3846660    7.5506980    1.4445710  
H     1.8169290    3.3641780    1.7105090  
H    -3.0456370    3.8301530   -1.8762330  
H    -2.9024540    6.7829290   -1.6611160  
H    -1.0298180    7.4434130   -0.3506360  
H     2.8527200    5.5235160    2.4774870  
C    -3.1576590   -0.6826700   -1.9610370  
C    -4.5036510   -0.8957240   -2.0658500  
C    -4.8923120   -1.7189370   -0.9548460  
C    -3.7216630   -1.9825740   -0.2000990  
N    -2.6595430   -1.3342630   -0.8292720  
C    -3.7393130   -2.7374000    0.9782720  
C    -4.9594710   -3.2474740    1.3924810  
O    -5.0319820   -3.9960150    2.5322290  
C    -6.1410520   -3.0005250    0.6447140  
O    -7.2779020   -3.5729160    1.1868720  
C    -6.1213230   -2.2470330   -0.5138150  
H    -5.1438390   -0.5254430   -2.8553440  
H    -2.8462410   -2.9550830    1.5514970  
H    -5.9548740   -4.2883270    2.6248580  
H    -8.0196360   -3.4530200    0.5758870  
H    -7.0399890   -2.0630150   -1.0678460  
H    -2.4777110   -0.1554920   -2.6155780  
