62


C     3.2212750    0.7503520    1.9148540  
C     4.4955250    1.2167740    2.0580460  
C     5.3048250    0.5581540    1.0685570  
C     4.4570700   -0.3212910    0.3506850  
N     3.1697520   -0.1913620    0.8811450  
C     4.9147330   -1.0936340   -0.7224140  
C     6.2556480   -0.9926270   -1.0591890  
O     6.7520080   -1.7320480   -2.0933340  
C     7.1213370   -0.1266010   -0.3415550  
O     8.4259760   -0.1345290   -0.7965080  
C     6.6626900    0.6459850    0.7096760  
H     4.8299050    1.9309600    2.7986120  
H     4.2790550   -1.7766000   -1.2717490  
H     7.7049540   -1.5461310   -2.1493940  
H     8.9729880    0.4171170   -0.2181680  
H     7.3388960    1.3135000    1.2403040  
H     2.3288560    0.9540920    2.4886350  
C    -0.7522900    1.4276850   -0.2366820  
C     0.5737100    1.2611450    0.1056060  
C     0.8452360   -0.1445210    0.1888710  
C    -0.4250200   -0.8241530   -0.1297030  
N    -1.3422780    0.1632560   -0.3629800  
C    -0.5880070   -2.1862010   -0.1814590  
C     0.5952620   -3.0160720    0.0347950  
O     0.5958950   -4.2306570   -0.0988820  
C     1.9491790   -2.3150610    0.4366280  
O     2.8952030   -3.0294920    0.7155260  
C     1.9970440   -0.8433540    0.4645910  
H     1.3237000    2.0323740    0.1755180  
H    -2.2944410    0.0324060   -0.6751020  
C    -0.0154390    5.5665260    1.1394210  
C    -1.0914400    6.1508100    0.5300120  
C    -1.8008530    5.1085050   -0.1554230  
C    -1.0891510    3.9003300    0.0643420  
N     0.0013370    4.2134660    0.8447730  
C    -1.5167030    2.6451150   -0.4465010  
C    -2.7322390    2.6659480   -1.1551950  
O    -3.2592060    1.5103620   -1.6628890  
C    -3.4394990    3.8679290   -1.3875440  
O    -4.5878840    3.6906160   -2.1338730  
C    -2.9867540    5.0831120   -0.9110670  
H    -1.3551310    7.1985280    0.5647820  
H     0.5932990    3.5345990    1.2973350  
H    -4.1149710    1.7399980   -2.0702670  
H    -5.1362420    4.4880930   -2.0948170  
H    -3.5459810    5.9953030   -1.1061510  
H     0.7586190    5.9978890    1.7578900  
C    -1.9787230   -3.8425200   -1.4190000  
C    -3.2647290   -4.2627260   -1.4835630  
C    -4.0223510   -3.4968960   -0.5200630  
C    -3.0511970   -2.5816550    0.1333130  
N    -1.8197270   -2.8113890   -0.4758510  
C    -3.3733700   -1.7297710    1.1430030  
C    -4.7629680   -1.6726150    1.5915550  
O    -5.1396150   -0.9309310    2.4867960  
C    -5.8124430   -2.6014860    0.8813090  
O    -6.9837460   -2.5404670    1.2225170  
C    -5.3339230   -3.5072520   -0.1642260  
H    -3.6521540   -5.0353820   -2.1316710  
H    -2.6514530   -1.1005380    1.6500880  
H    -6.0579000   -4.1733280   -0.6239310  
H    -1.1132380   -4.1831080   -1.9664180  
