60


C    -4.6776120    0.3705910    0.0703960  
C    -3.8055310   -0.6991260    0.2836920  
C    -4.5694230   -1.8910560    0.2648960  
C    -5.9275890   -1.5137320    0.0386010  
N    -5.9615890   -0.1483640   -0.0741140  
C    -6.9649770   -2.4497270   -0.0390320  
C    -6.6280380   -3.7859150    0.1128560  
O    -7.5934200   -4.7391690    0.0465840  
C    -5.2737480   -4.1829760    0.3376640  
O    -5.1188650   -5.5480300    0.4620980  
C    -4.2532840   -3.2621590    0.4147670  
H    -2.7470990   -0.5985420    0.4543830  
H    -6.7793660    0.4290960   -0.2052600  
H    -7.9996960   -2.1727850   -0.2104560  
H    -7.1612850   -5.6024210    0.1723100  
H    -4.1830690   -5.7597720    0.5964980  
H    -3.2269880   -3.5820710    0.5813950  
C    -0.8669400    2.6096810    0.0307060  
C    -1.3407500    3.8982650    0.0392190  
C    -2.7727230    3.7944860    0.0196670  
C    -3.0466300    2.3212590    0.0187480  
N    -1.9390780    1.6440840    0.0109300  
C    -4.4175340    1.7894390    0.0093560  
C    -5.4042700    2.7450750   -0.0693280  
O    -6.7258460    2.4444910   -0.1151200  
C    -5.1554740    4.2035020   -0.0881080  
O    -6.1427670    4.9519070   -0.1433130  
C    -3.7783200    4.6989510   -0.0350100  
H    -0.7670380    4.8145710    0.0276020  
H    -7.1710990    3.3249680   -0.1542640  
H    -3.6307260    5.7743640   -0.0517500  
C     1.6452370    2.8618650    0.2094520  
C     0.4876290    2.1428330    0.0361330  
C     0.9582230    0.7529860   -0.1494950  
C     2.4346930    0.8449140   -0.0502340  
N     2.8091780    2.0844920    0.1565890  
C     3.3001480   -0.3260900   -0.1818640  
C     2.6426340   -1.5125540   -0.4105900  
O     3.2584270   -2.7052780   -0.5572990  
C     1.1621910   -1.6211270   -0.5226420  
O     0.6895570   -2.7455580   -0.7210460  
C     0.3319590   -0.4136960   -0.3920010  
H     2.5243180   -3.3483280   -0.7053300  
H    -0.7421290   -0.5076400   -0.4930250  
H     1.7401460    3.9257990    0.3892020  
C     4.7460220   -0.2192820   -0.0754200  
C     5.5246090    0.8931920    0.1530180  
C     6.8988700    0.4741850    0.1706940  
C     6.8920350   -0.9907380   -0.0665830  
N     5.5717940   -1.3457430   -0.2063430  
C     8.0085270   -1.7629410   -0.1216650  
C     9.3059660   -1.1230420    0.0630850  
O    10.3641190   -1.7339510    0.0306070  
C     9.3376490    0.4299250    0.3160140  
O    10.4156440    0.9834960    0.4727410  
C     8.0655360    1.1546440    0.3534180  
H     5.1474720    1.8930700    0.2903520  
H     7.9848760   -2.8341640   -0.2963560  
H     8.0984570    2.2257640    0.5284170  
H     5.2217920   -2.2762650   -0.3776380  
