62


C    -2.8900130   -0.8010370    0.0979500  
C    -3.5383270    0.2626190   -0.5471350  
C    -4.9294750    0.0332380   -0.4677870  
C    -5.1092670   -1.1974860    0.2396400  
N    -3.8700060   -1.6709140    0.5644150  
C    -6.3757400   -1.7378040    0.4970710  
C    -7.4736050   -1.0326550    0.0337220  
O    -8.7261020   -1.5084500    0.2512830  
C    -7.3133360    0.1986760   -0.6784530  
O    -8.5107060    0.7632310   -1.0635480  
C    -6.0710350    0.7321000   -0.9313940  
H    -3.0483030    1.0716590   -1.0672440  
H    -3.6260810   -2.5541750    0.9957750  
H    -6.5206840   -2.6707880    1.0307800  
H    -9.3526880   -0.8843900   -0.1557210  
H    -8.3441290    1.5697090   -1.5739240  
H    -5.9690850    1.6690020   -1.4746630  
C     0.8616200    1.6694570   -0.1057220  
C    -0.4633310    1.2943410   -0.0554660  
C    -0.4777580   -0.1317180    0.0907780  
C     0.9512450   -0.5152940    0.1095360  
N     1.7214390    0.5361730   -0.0087580  
C     1.3992540   -1.9015270    0.2649820  
C     0.4105130   -2.7727110    0.6491590  
O     0.6490780   -4.0401490    1.0315780  
C    -1.0280350   -2.4180480    0.6755190  
O    -1.8127470   -3.3039970    1.0599870  
C    -1.4876930   -1.0596630    0.2596800  
H    -1.3199820    1.9464570   -0.1172450  
H    -0.2349990   -4.4209420    1.2219520  
C     5.4058760   -0.2487170    1.4304330  
C     6.1591800   -1.3198170    1.0256570  
C     5.2553100   -2.2555840    0.4217740  
C     3.9519340   -1.6963680    0.5190210  
N     4.0719570   -0.4853770    1.1648400  
C     2.7866210   -2.3573890    0.0497510  
C     3.0235210   -3.5587500   -0.6496600  
O     2.0046000   -4.2014520   -1.2806330  
C     4.3215920   -4.1155650   -0.7547540  
O     4.3558040   -5.3201260   -1.4432500  
C     5.4290580   -3.5015120   -0.2074180  
H     7.2293170   -1.4311740    1.1356270  
H     3.3632560    0.2317430    1.0083780  
H     2.3919980   -4.9888780   -1.7027900  
H     5.2717080   -5.5252960   -1.6807900  
H     6.4132300   -3.9588930   -0.2894710  
H     5.7116740    0.6798250    1.8922620  
C    -0.4832200    5.6044930    1.4693900  
C    -0.3642780    4.2804030    1.1789500  
C     0.8170530    4.1160640    0.3618820  
C     1.3952610    5.4669090    0.2128970  
N     0.5431970    6.3278360    0.8782830  
C     2.5597820    5.7623280   -0.4275950  
C     3.3104500    4.6677680   -1.0132000  
O     4.4035880    4.8057770   -1.5436270  
C     2.6747670    3.2289620   -0.9755310  
O     3.2084620    2.3589890   -1.6357670  
C     1.4180880    3.0034480   -0.1963350  
H    -1.0185410    3.4960560    1.5249460  
H     2.9682240    6.7663810   -0.4900030  
H    -1.2302740    6.1128660    2.0642610  
H     0.7173720    7.3112620    1.0141680  
