62


C     3.5510780   -0.1162520    0.5245930  
C     2.2024740    0.1490080    0.4771900  
C     2.0554690    1.5728130    0.3957050  
C     3.3683810    2.1213430    0.3690580  
N     4.2615240    1.0690220    0.4533990  
C     3.6238690    3.4842080    0.2378160  
C     2.5237270    4.3230950    0.1012440  
O     2.7070910    5.6620980   -0.0339460  
C     1.2032820    3.8119720    0.0912810  
O     0.2351370    4.7840610   -0.0331030  
C     0.9327260    2.4469110    0.2713150  
H     1.4218450   -0.5961360    0.4758490  
H     5.2577400    1.1474880    0.5905420  
H     4.6262650    3.8990990    0.2168140  
H     1.8141400    6.0409530   -0.1477570  
H    -0.4057640    4.4671250   -0.7048530  
C    -1.1891870   -0.3010080    3.0594370  
C    -0.2670400    0.5279810    2.5204920  
C    -0.8706850    1.0281620    1.2929180  
C    -2.2075030    0.3684860    1.2442860  
N    -2.3764880   -0.4118200    2.2737040  
C    -3.1673390    0.5928050    0.1551890  
C    -2.7740950    1.5388810   -0.7677840  
O    -3.5120810    1.9600600   -1.7961960  
C    -1.4560780    2.2546180   -0.6806800  
O    -1.2770350    3.1460010   -1.5264220  
C    -0.4364830    1.9028510    0.3410060  
H     0.7031790    0.7979600    2.9089500  
H    -2.9686600    2.6513670   -2.2381490  
H    -1.1326430   -0.8580490    3.9867140  
C    -4.4220660   -0.1272740    0.0981640  
C    -4.9453230   -0.9931620    1.0277430  
C    -6.2038300   -1.4417270    0.4828000  
C    -6.3086450   -0.7389690   -0.8351530  
N    -5.2809210    0.0195390   -1.0585660  
C    -7.4440850   -0.9318210   -1.7037110  
C    -8.4195870   -1.7706050   -1.2842810  
O    -9.5326890   -2.0461980   -1.9812390  
C    -8.3418680   -2.4916780    0.0415200  
O    -9.2805310   -3.2346010    0.3323830  
C    -7.1759420   -2.2830950    0.9079060  
H    -4.4967350   -1.2754000    1.9661560  
H    -7.4964390   -0.4123090   -2.6539920  
H   -10.0350830   -2.6786790   -1.4196210  
H    -7.1526870   -2.8200400    1.8512660  
C     3.7839110   -2.3669040    1.5102320  
C     4.6457390   -3.4213980    1.4232830  
C     5.6741160   -3.0586790    0.4865100  
C     5.3768860   -1.7528220    0.0228110  
N     4.2110600   -1.3347180    0.6714250  
C     6.1566390   -1.1014890   -0.9421780  
C     7.2730700   -1.7708470   -1.4225060  
O     8.0657350   -1.1761830   -2.3601660  
C     7.5972980   -3.0699600   -0.9528710  
O     8.7385650   -3.6004570   -1.5216800  
C     6.8120950   -3.7173110   -0.0162640  
H     4.5664090   -4.3499210    1.9718770  
H     5.9123390   -0.1244510   -1.3431990  
H     8.7739190   -1.8055540   -2.5808070  
H     8.8768530   -4.5011030   -1.1932090  
H     7.0694240   -4.7198020    0.3198870  
H     2.9001060   -2.2237600    2.1143250  
