60


C     5.4471910   -1.0170420   -2.1247050  
C     6.6845110   -1.5854650   -2.1695080  
C     7.4082250   -1.1370020   -1.0098900  
C     6.5505090   -0.2709810   -0.2889210  
N     5.3407050   -0.1985400   -0.9944680  
C     6.9190900    0.2984560    0.9337450  
C     8.1879140    0.0123690    1.4201520  
O     8.5926330    0.5537950    2.6066770  
C     9.0653070   -0.8354220    0.7012870  
O    10.2907860   -1.0242690    1.3103060  
C     8.6884870   -1.4127550   -0.4998110  
H     7.0445680   -2.2537760   -2.9398090  
H     6.2718500    0.9536180    1.5014760  
H     9.4999880    0.2439870    2.7698540  
H    10.8411740   -1.5993870    0.7586260  
H     9.3687620   -2.0767270   -1.0295970  
H     4.6088870   -1.1083440   -2.7964180  
C     1.2530580   -1.4756680   -0.8602300  
C     0.5822240   -0.3537320   -0.4284510  
C     1.6561720    0.6618200   -0.2938450  
C     2.8931170   -0.0706840   -0.6777540  
N     2.6327150   -1.3089730   -1.0177990  
C     4.2059210    0.5508010   -0.6555730  
C     4.2579280    1.8650470   -0.2737850  
O     5.3880380    2.5886890   -0.2434390  
C     3.0400630    2.6071960    0.1442010  
O     3.1707120    3.7856640    0.4794440  
C     1.7163930    1.9422580    0.1130600  
H     5.1149620    3.4786440    0.0739890  
H     0.8593860    2.5418870    0.3913180  
H     0.8141710   -2.4290050   -1.1275150  
C    -2.3392850   -3.2825630    1.1618000  
C    -1.2045940   -2.6285850    0.8063450  
C    -1.5905500   -1.3286420    0.3019610  
C    -3.0568440   -1.2799190    0.3883570  
N    -3.4548560   -2.4971210    0.8734060  
C    -3.8635780   -0.1959120    0.0683030  
C    -3.1440780    1.0382530   -0.2346100  
O    -3.6715680    2.1407250   -0.3400270  
C    -1.5852440    0.9897890   -0.4416120  
O    -1.0528370    2.0106880   -0.8369540  
C    -0.8371290   -0.2634080   -0.1642580  
H    -0.1973970   -2.9976530    0.9194490  
H    -2.4677940   -4.2612260    1.6030080  
H    -4.3902850   -2.6719280    1.2135980  
C    -5.3103110   -0.2370130    0.0947940  
C    -6.1749570   -1.3188510    0.0504090  
C    -7.5188480   -0.8141050    0.0721980  
C    -7.4005630    0.6642450    0.1359130  
N    -6.0511770    0.9406370    0.1584020  
C    -8.4578130    1.5147610    0.1645730  
C    -9.8046690    0.9510200    0.1321860  
O   -10.8147470    1.6381550    0.1551590  
C    -9.9538070   -0.6135710    0.0642950  
O   -11.0750090   -1.1007720    0.0377470  
C    -8.7381580   -1.4243910    0.0368620  
H    -5.9072780   -2.3530140   -0.1087320  
H    -8.3527910    2.5942220    0.2092770  
H    -8.8535350   -2.5031130   -0.0128470  
H    -5.6045380    1.8465530    0.0812880  
