64


C    -5.5811560    3.5978300   -1.1792910  
C    -6.8560800    3.4997880   -0.6845610  
C    -6.9917190    2.1813780   -0.1357510  
C    -5.7462770    1.5212990   -0.3240470  
N    -4.9149320    2.4070780   -0.9763610  
C    -5.5009930    0.1843960    0.0706130  
C    -6.5908560   -0.4625430    0.6511310  
O    -6.4742870   -1.7867570    1.0435990  
C    -7.8381640    0.1735250    0.8502670  
O    -8.7861990   -0.6410600    1.4475610  
C    -8.0531290    1.4838380    0.4720200  
H    -7.6138190    4.2704740   -0.7161680  
H    -3.9398730    2.2357010   -1.1722480  
H    -7.3329050   -2.0419910    1.4278610  
H    -9.6120810   -0.1479810    1.5592970  
H    -9.0210820    1.9553440    0.6286960  
H    -5.0849330    4.4235160   -1.6696770  
C    -1.2909980    1.4731180    0.9455750  
C    -2.6521570    1.3690660    0.9000680  
C    -2.9696860    0.1518940    0.1968240  
C    -1.7325560   -0.4502490   -0.1519100  
N    -0.7088160    0.3718590    0.3228840  
C    -1.6508930   -1.6602900   -0.8548840  
C    -2.8491810   -2.2901160   -1.1586890  
O    -2.8461130   -3.4839450   -1.8145530  
C    -4.0988490   -1.7155090   -0.8095800  
O    -5.1856880   -2.4596290   -1.2160450  
C    -4.1917890   -0.4769260   -0.1680440  
H    -3.3515660    2.0665810    1.3374470  
H    -0.7135390   -2.0995530   -1.1759880  
H    -3.7867510   -3.7298830   -1.9067440  
H    -5.8356140   -2.4641900   -0.4796340  
H    -0.6610280    2.2384420    1.3711820  
C     1.6362350   -3.0914990    1.4809770  
C     2.8635460   -2.6674940    1.0858110  
C     2.7120230   -1.3386360    0.5235150  
C     1.2750900   -1.0249070    0.6352100  
N     0.6781130   -2.1142010    1.2253760  
C     0.6811400    0.1437390    0.2261580  
C     1.5592760    1.1894660   -0.2762480  
O     1.1809390    2.3096040   -0.5879310  
C     3.1055370    0.8784610   -0.3926850  
O     3.8098800    1.7804300   -0.8126060  
C     3.6308500   -0.4537420   -0.0017220  
H     3.7928240   -3.2007740    1.2107110  
H     1.3449280   -4.0177940    1.9572330  
H    -0.3214760   -2.2335600    1.3039960  
C     5.4455820   -2.0476440   -0.6819280  
C     5.0285120   -0.8006380   -0.2380140  
C     6.2391850   -0.0117440   -0.0732420  
C     7.3302100   -0.8487200   -0.4148460  
N     6.8107780   -2.0777200   -0.7857680  
C     8.6665970   -0.4382470   -0.3466820  
C     8.9124190    0.8570430    0.0792810  
O    10.1923900    1.3206610    0.1573600  
C     7.8352550    1.7114520    0.4328720  
O     8.2337230    2.9719940    0.8367260  
C     6.5192160    1.2969880    0.3669060  
H     7.3487190   -2.8512940   -1.1448200  
H     9.4958500   -1.0852290   -0.6139530  
H    10.1412930    2.2494590    0.4433200  
H     7.4550230    3.5428330    0.9181420  
H     5.7160940    1.9826000    0.6134390  
H     4.8496260   -2.8984720   -0.9785220  
