62


C     4.0790720    0.2967390    2.3031250  
C     3.5998650   -0.1176450    1.0742640  
C     4.5839010    0.3011680    0.0987540  
C     5.6213180    0.9621520    0.8027780  
N     5.2861700    0.9431710    2.1427550  
C     6.7388270    1.5183970    0.1667960  
C     6.8098960    1.4022530   -1.2118060  
O     7.8788260    1.9175070   -1.8868990  
C     5.7778730    0.7459870   -1.9345270  
O     5.9912380    0.7099020   -3.3015670  
C     4.6755330    0.2040800   -1.3035930  
H     5.8612140    1.2943500    2.8921990  
H     7.5342590    2.0225050    0.7062420  
H     7.7473550    1.7096640   -2.8281700  
H     5.3105770    0.1586670   -3.7151090  
H     3.9103360   -0.3144390   -1.8733360  
H     3.6730490    0.1268250    3.2907910  
C    -0.3570560    0.7214720    2.7637810  
C    -1.0517980   -0.3091980    2.1754860  
C    -0.1297120   -1.0218030    1.3291250  
C     1.1283090   -0.3838560    1.4794790  
N     0.9540620    0.6731990    2.3513950  
C     2.3191920   -0.8071080    0.8510660  
C     2.1791510   -1.9414700    0.0483680  
O     3.2604000   -2.4701360   -0.5914620  
C     0.9320860   -2.5976820   -0.1338780  
O     1.0065230   -3.6785620   -0.9801660  
C    -0.2519050   -2.1491780    0.4609690  
H    -2.0873480   -0.5557550    2.3616540  
H     1.6668000    1.3595400    2.5492300  
H     2.9273870   -3.2843270   -1.0188910  
H     0.4390120   -4.3881350   -0.5906200  
H    -0.6945780    1.4932770    3.4408030  
C    -4.0262380   -0.2568360   -0.7498700  
C    -4.8288830   -1.3680300   -0.8104590  
C    -4.0335840   -2.5119040   -0.4552630  
C    -2.6732790   -1.9970710   -0.1699720  
N    -2.7419810   -0.6343260   -0.3484660  
C    -1.5725670   -2.7530560    0.1673270  
C    -1.8075500   -4.2002180    0.1659310  
O    -0.9073510   -5.0371430    0.2536170  
C    -3.2714980   -4.7627480    0.0212870  
O    -3.4427060   -5.9615400    0.1868490  
C    -4.3309060   -3.8380150   -0.3412610  
H    -5.8862190   -1.3748530   -1.0331100  
H    -5.3272000   -4.2371320   -0.5016590  
H    -1.9402810   -0.0245920   -0.2828600  
C    -5.2796500    1.5432380   -1.9529040  
C    -4.3459570    1.1256370   -1.0410590  
C    -3.7847000    2.3368900   -0.4394900  
C    -4.4747830    3.4771330   -1.0906350  
N    -5.3716120    2.9180500   -1.9876200  
C    -4.2392970    4.7832460   -0.8156540  
C    -3.2433790    5.1084570    0.2053620  
O    -2.9556300    6.2536750    0.5126720  
C    -2.5297400    3.9170800    0.9386180  
O    -1.7249320    4.1598780    1.8236450  
C    -2.8643700    2.5448530    0.5370460  
H    -4.7580180    5.6010690   -1.3062280  
H    -2.3574920    1.7434260    1.0659070  
H    -5.8899740    0.9394130   -2.6113180  
H    -5.9553280    3.4434110   -2.6206370  
