62


C    -4.7840390    1.0538900   -2.4024860  
C    -4.2174230    0.6341910   -1.2217600  
C    -5.2581760    0.5878460   -0.2281810  
C    -6.4491060    0.9940060   -0.8804680  
N    -6.1273100    1.2770950   -2.1948080  
C    -7.6804770    1.0728790   -0.2170940  
C    -7.7049070    0.7374450    1.1268750  
O    -8.8773220    0.7941100    1.8198280  
C    -6.5163490    0.3336340    1.7961300  
O    -6.7059200    0.0390700    3.1312770  
C    -5.3026960    0.2560150    1.1407260  
H    -6.7755540    1.5991650   -2.8962730  
H    -8.5964910    1.3818840   -0.7099880  
H    -8.6858710    0.5262090    2.7352740  
H    -5.8658240   -0.2376490    3.5262680  
H    -4.4043550   -0.0527420    1.6698920  
H    -4.3278540    1.2054810   -3.3698910  
C    -1.8020380    1.2333390   -1.2154750  
C    -0.6009640    0.6137570   -0.9749140  
C    -0.8951230   -0.7374900   -0.6058290  
C    -2.3074760   -0.8800320   -0.6621920  
N    -2.8470410    0.3463300   -1.0270730  
C    -2.9631040   -2.0905580   -0.4241330  
C    -2.1845140   -3.1958940   -0.1085850  
O    -2.7860660   -4.3912390    0.1545350  
C    -0.7765180   -3.0952950   -0.0427040  
O    -0.1579130   -4.2754680    0.3077930  
C    -0.1030930   -1.8812400   -0.2827960  
H     0.3642260    1.0856320   -1.0822520  
H    -4.0419660   -2.1864600   -0.4736860  
H    -2.0837350   -5.0224520    0.3891580  
H     0.7754610   -4.1052490    0.5310420  
H    -2.0108940    2.2541910   -1.5012650  
C     1.3382630   -1.7954140   -0.1769540  
C     2.1366760   -0.7597600    0.2458410  
C     3.5077720   -1.1644840    0.1587100  
C     3.4940950   -2.5518040   -0.3449990  
N     2.1492290   -2.9266740   -0.4656180  
C     4.5887380   -3.3026410   -0.6080300  
C     5.8999140   -2.7216830   -0.3406500  
O     6.9478360   -3.3199420   -0.5190770  
C     5.9621540   -1.2635450    0.2379240  
O     7.0558310   -0.7852640    0.5016610  
C     4.7002250   -0.5327730    0.4361330  
H     1.7719690    0.1773330    0.6341240  
H     4.5420730   -4.3209950   -0.9805730  
H     1.8809010   -3.5385030   -1.2299140  
C     5.6005250    1.2368050    1.9407990  
C     5.4895530    2.5717010    2.1425170  
C     4.5683090    3.0869890    1.1561130  
C     4.1492050    1.9203970    0.3377920  
N     4.7836460    0.8038180    0.8808340  
C     3.3313100    2.0124000   -0.7427280  
C     2.7353340    3.3062800   -1.0587040  
O     1.8954200    3.4477460   -1.9374120  
C     3.1689950    4.5534900   -0.2086970  
O     2.7139140    5.6507330   -0.4928260  
C     4.1059270    4.3382400    0.8949010  
H     5.9995170    3.1464620    2.9019670  
H     3.0616900    1.1658040   -1.3617900  
H     4.4150170    5.2061680    1.4694580  
H     6.1998020    0.5096490    2.4663780  
