64


C     1.8797060   -0.5635850    0.2748830  
C     3.1695010   -0.0995760    0.1348060  
C     3.0573450    1.3212460   -0.1129970  
C     1.6773750    1.6435870   -0.1024760  
N     0.9662910    0.4739360    0.1351880  
C     1.2024580    2.9515800   -0.2995400  
C     2.1451160    3.9438810   -0.5366150  
O     1.7416720    5.2325950   -0.7245060  
C     3.5282580    3.6312560   -0.5705990  
O     4.3411410    4.7220790   -0.8191940  
C     3.9898370    2.3458850   -0.3560130  
H     0.1544930    3.2185330   -0.2051610  
H     2.5449070    5.7693280   -0.8408080  
H     5.2685880    4.4547700   -0.7375000  
H     5.0548470    2.1341390   -0.3486780  
H     1.5217250   -1.5598910    0.4920500  
C    -1.8387310   -1.0738730    3.1907800  
C    -0.7090690   -0.6658190    2.5334030  
C    -1.1277050   -0.2277490    1.2317840  
C    -2.5330810   -0.4144550    1.1567150  
N    -2.9360910   -0.9648400    2.3554980  
C    -3.3051910   -0.0888570    0.0153400  
C    -2.5988690    0.5376410   -1.0238530  
O    -3.2538340    1.0004470   -2.1209040  
C    -1.1922140    0.7146630   -0.9794150  
O    -0.6576110    1.2475520   -2.1364950  
C    -0.4458380    0.3205200    0.1252890  
H     0.2991020   -0.6680910    2.9222210  
H    -3.8909710   -0.8325990    2.6760670  
H    -2.5713010    1.3877600   -2.7002100  
H     0.1427040    1.7645860   -1.9312080  
H    -1.9575330   -1.4460040    4.1988930  
C     4.0296340   -3.9126100   -1.8772420  
C     5.2884630   -4.1220040   -1.3760670  
C     5.5912660   -3.0106430   -0.5188370  
C     4.4606020   -2.1533100   -0.5356390  
N     3.5220980   -2.7344900   -1.3642070  
C     4.3836990   -0.9348750    0.1762510  
C     5.5194360   -0.6015740    0.9172670  
O     5.5459650    0.5533020    1.6547890  
C     6.6601870   -1.4446510    0.9427650  
O     7.6923730   -0.9559850    1.7301090  
C     6.7125000   -2.6371210    0.2477630  
H     5.9261460   -4.9686740   -1.5909190  
H     2.6514930   -2.2976250   -1.6257050  
H     6.3859250    0.5484040    2.1464540  
H     8.3663700   -1.6435340    1.8335270  
H     7.6031300   -3.2613600    0.2857510  
H     3.4403220   -4.5124770   -2.5565310  
C    -6.8139440    0.4817920    2.6996740  
C    -7.8420920    0.1765820    1.8780300  
C    -7.2187470   -0.2501510    0.6310260  
C    -5.7436260   -0.0967120    0.8763490  
N    -5.5270240    0.3073390    2.0986080  
C    -4.7452790   -0.3937250   -0.1426290  
C    -5.2396600   -0.9823450   -1.2782090  
O    -4.4722110   -1.4388060   -2.2747500  
C    -6.7061300   -1.1780700   -1.5346230  
O    -7.0364150   -1.7026630   -2.5985800  
C    -7.6895640   -0.7622510   -0.5198600  
H    -8.9022760    0.2160160    2.0853700  
H    -5.1008140   -1.7799390   -2.9497200  
H    -8.7398580   -0.9219920   -0.7434750  
H    -6.8564140    0.8288180    3.7251640  
