64


C    -0.5369390    0.6673090   -0.5244050  
C     0.0438300   -0.4706680   -1.0674560  
C    -0.9387110   -1.5074140   -1.0570400  
C    -2.1181890   -0.9531870   -0.4937950  
N    -1.8446020    0.3575100   -0.1783540  
C    -3.3161640   -1.6784210   -0.3137340  
C    -3.2897640   -3.0085100   -0.7339290  
O    -4.4087780   -3.7768700   -0.6357680  
C    -2.1135660   -3.5806600   -1.2939020  
O    -2.2659720   -4.9072960   -1.6566910  
C    -0.9500720   -2.8578430   -1.4623870  
H     1.0328250   -0.5398790   -1.4983760  
H    -2.5037180    1.0280090    0.1884860  
H    -4.1707440   -4.6680810   -0.9447770  
H    -1.4205880   -5.2506280   -1.9812010  
H    -0.0670290   -3.3227520   -1.8962730  
C     3.6468110    1.9297230    0.0873350  
C     3.4075120    3.3015540    0.1633320  
C     2.0122410    3.4956450    0.0263390  
C     1.4210950    2.2039120   -0.1480720  
N     2.4323670    1.2881440   -0.1109400  
C     0.0270590    1.9973000   -0.3053840  
C    -0.7513360    3.1565130   -0.2279210  
O    -2.1117140    3.0723380   -0.3344380  
C    -0.1763620    4.4489420   -0.0525270  
O    -1.1175100    5.4576950   -0.0223840  
C     1.1810920    4.6392380    0.0617060  
H     4.1597090    4.0648750    0.3072580  
H     2.3487630    0.2809490   -0.1023350  
H    -2.4703480    3.9734430   -0.2471060  
H    -0.6786660    6.3106970    0.1120780  
H     1.5987070    5.6346910    0.1913950  
C    -5.6741330    1.7718440   -1.7224740  
C    -6.6040530    1.7990500   -0.7151120  
C    -6.2855360    0.7246400    0.1830110  
C    -5.1367710    0.0749640   -0.3387740  
N    -4.7874670    0.7353920   -1.5001370  
C    -4.5271800   -1.0455980    0.2663410  
C    -5.1187210   -1.4990240    1.4457290  
O    -4.5764590   -2.5517460    2.1201540  
C    -6.2721550   -0.8638150    1.9783550  
O    -6.7275760   -1.4392720    3.1530860  
C    -6.8573670    0.2306700    1.3720860  
H    -7.4236290    2.4990420   -0.6248650  
H    -4.0124270    0.4833130   -2.0935730  
H    -5.1506520   -2.7241020    2.8860980  
H    -7.5349300   -0.9871460    3.4383150  
H    -7.7399810    0.6960730    1.8070900  
H    -5.5655130    2.4073820   -2.5901250  
C     4.8385000    1.1537510    0.1793030  
C     6.1488920    1.5334510    0.3653220  
C     6.9058710    0.3205370    0.3779410  
C     5.8788780   -0.7639750    0.1813720  
N     4.6787540   -0.2736700    0.0657660  
C     6.2488650   -2.1530810    0.1363150  
C     7.5622980   -2.4504660    0.2765130  
O     8.0635380   -3.6896010    0.2563920  
C     8.6240070   -1.3799520    0.4754530  
O     9.7861370   -1.7848010    0.5899910  
C     8.2271690    0.0148920    0.5188000  
H     6.5342120    2.5369340    0.4789070  
H     5.4930920   -2.9177580   -0.0041370  
H     9.0344200   -3.5638960    0.3832190  
H     9.0072030    0.7557350    0.6627900  
