62


C    -6.0449600    3.2455330   -1.1762540  
C    -4.9418350    2.4435850   -1.0335110  
C    -5.2893690    1.4048870   -0.1043880  
C    -6.6370530    1.6316530    0.2797610  
N    -7.0673290    2.7620700   -0.3838690  
C    -7.3270670    0.7956040    1.1644520  
C    -6.6414430   -0.2940180    1.6751820  
O    -7.2634820   -1.1345130    2.5498830  
C    -5.2914590   -0.5418890    1.3128250  
O    -4.7585660   -1.6478550    1.9452770  
C    -4.5960630    0.2834690    0.4281200  
H    -4.0001620    2.5725250   -1.5477900  
H    -7.9903900    3.1608630   -0.3141770  
H    -8.3573340    0.9670780    1.4587510  
H    -6.6213730   -1.8215400    2.7992570  
H    -3.8301270   -1.7674050    1.6948210  
H    -6.1902400    4.1280570   -1.7829800  
C    -2.1777980    0.9419040    0.1117860  
C    -3.1871050    0.0303410    0.0778680  
C    -2.5927620   -1.2199690   -0.3991620  
C    -1.1525170   -0.9543130   -0.6256880  
N    -0.9457300    0.3905860   -0.2799680  
C    -0.2818890   -1.8637840   -1.1273390  
C    -0.7803640   -3.2022320   -1.4568940  
O    -0.0661340   -4.0644850   -1.9417570  
C    -2.2918430   -3.5166830   -1.1904480  
O    -2.7215660   -4.6318100   -1.4322470  
C    -3.1383900   -2.4360990   -0.6676580  
H     0.7625820   -1.6575260   -1.3282370  
H    -4.1957220   -2.6436600   -0.5381680  
H    -2.2103450    1.9751290    0.4273580  
C     0.2208370    1.1304430   -0.3992210  
C     0.3680400    2.4525480   -0.7155610  
C     1.7783510    2.7494790   -0.6670300  
C     2.4527760    1.4883200   -0.2930380  
N     1.4547960    0.5176160   -0.1900390  
C     3.7866190    1.3308790   -0.0683990  
C     4.6318990    2.5258410   -0.3308760  
O     5.8471950    2.4855910   -0.3104060  
C     3.9316220    3.8826800   -0.7120480  
O     4.6292140    4.8773080   -0.8470660  
C     2.4840900    3.8946940   -0.8829400  
H    -0.4184210    3.1298440   -1.0147320  
H     2.0112610    4.8352060   -1.1479070  
H     1.5769010   -0.3131410    0.3742660  
C     3.6619000   -2.7548020   -1.8389530  
C     4.4111650   -3.3831280   -0.8828130  
C     4.7868850   -2.3898720    0.0854310  
C     4.2201260   -1.1602230   -0.3377190  
N     3.5190690   -1.4140840   -1.5042020  
C     4.3906170    0.0541420    0.3646210  
C     5.1628170   -0.0126430    1.5292170  
O     5.3202070    1.0998970    2.2954820  
C     5.7379890   -1.2348600    1.9604390  
O     6.4557660   -1.1232290    3.1366770  
C     5.5575760   -2.4144630    1.2631070  
H     4.6591690   -4.4353050   -0.8612170  
H     3.1830460   -0.6977540   -2.1299450  
H     5.9597430    0.8813590    2.9957220  
H     6.9453870   -1.9436010    3.2958980  
H     6.0028450   -3.3403860    1.6213610  
H     3.1781250   -3.1524130   -2.7196910  
