62


C     2.6271470   -0.3129760   -1.9231370  
C     1.3528720   -0.1020010   -1.4708130  
C     1.4300420    0.7892310   -0.3380610  
C     2.7992140    1.1014650   -0.1544450  
N     3.5093060    0.4061110   -1.1275250  
C     3.2705400    1.9912350    0.8124350  
C     2.3122640    2.6068370    1.6018370  
O     2.6821270    3.5052530    2.5492620  
C     0.9257850    2.3221570    1.4495850  
O     0.1277930    3.0041040    2.3315720  
C     0.4560020    1.3877300    0.5193630  
H     0.4573150   -0.5030980   -1.9234030  
H     4.3221930    2.2236220    0.9350910  
H     1.8500400    3.8313000    2.9441420  
H    -0.6729870    3.2974670    1.8335850  
H     3.0060190   -0.9011830   -2.7459820  
C    -1.3740000   -2.5799250    0.3622550  
C    -2.6820830   -2.2515420    0.1933070  
C    -2.7664360   -0.8087400    0.2117840  
C    -1.3781060   -0.3174260    0.3915870  
N    -0.5928380   -1.4416280    0.4995950  
C    -0.9708690    0.9983120    0.4336010  
C    -2.0605270    1.9709880    0.4179250  
O    -1.9088080    3.1744110    0.6298850  
C    -3.5376810    1.4963360    0.1594280  
O    -4.4070620    2.3475690    0.1252000  
C    -3.8227840    0.0516890    0.0567150  
H    -3.5075610   -2.9378470    0.0849510  
H    -0.9121450   -3.5571960    0.4089660  
H     0.4167080   -1.4161620    0.5098910  
C    -6.8157210   -2.5797660    2.1320450  
C    -5.6637360   -1.9256320    1.8456470  
C    -5.9297600   -1.2157770    0.5992310  
C    -7.3484260   -1.5694110    0.2813600  
N    -7.8579840   -2.3663660    1.1782880  
C    -8.0238200   -1.0414910   -0.8752560  
C    -7.3302930   -0.2060430   -1.6817320  
O    -7.8280940    0.3511040   -2.7970160  
C    -5.8910390    0.1453760   -1.4143470  
O    -5.3091670    0.8123570   -2.2631250  
C    -5.2092190   -0.3716760   -0.1845210  
H    -4.7445340   -1.9130520    2.4131470  
H    -9.0538330   -1.3154720   -1.0744420  
H    -7.0897510    0.8711820   -3.1833640  
H    -7.0224780   -3.2169530    2.9839760  
C     5.5444400    1.3847420   -2.0851260  
C     6.8836020    1.1250140   -2.0200080  
C     7.0645540   -0.0169450   -1.1621990  
C     5.7818300   -0.4221520   -0.7207660  
N     4.8667060    0.4505470   -1.3010670  
C     5.5705930   -1.5091250    0.1318880  
C     6.6914340   -2.2089180    0.5525850  
O     6.5502440   -3.2800270    1.3857050  
C     7.9896980   -1.8226520    0.1240920  
O     9.0004460   -2.6188090    0.6278790  
C     8.1867770   -0.7452440   -0.7200570  
H     7.6598890    1.6832870   -2.5252150  
H     4.5845530   -1.8087630    0.4685120  
H     7.4427070   -3.6196220    1.5717240  
H     9.8578890   -2.2852220    0.3252410  
H     9.1910190   -0.4686250   -1.0350720  
H     4.9850320    2.1459750   -2.6088740  
