64


C     0.6434630   -2.4356230   -2.1849800  
C     0.9034660   -3.6128130   -1.5321430  
C     1.9666930   -3.3525190   -0.6048490  
C     2.3090710   -1.9790180   -0.7377860  
N     1.4915790   -1.4530680   -1.7160570  
C     3.3437590   -1.3520480   -0.0021430  
C     4.0292750   -2.1957240    0.8716690  
O     5.0813830   -1.6985880    1.6220490  
C     3.7057940   -3.5647370    1.0229740  
O     4.5027150   -4.2223270    1.9446470  
C     2.6840160   -4.1533710    0.3050400  
H     0.4036000   -4.5568650   -1.6990000  
H     1.4822440   -0.4810900   -1.9864730  
H     5.4144040   -2.4351540    2.1666640  
H     4.2546990   -5.1576750    1.9801460  
H     2.4557170   -5.2099990    0.4290570  
H    -0.0808590   -2.2110440   -2.9552010  
C     0.8130990    2.4031040   -0.0485160  
C     1.2833250    1.0910020    0.0777610  
C     2.6796360    1.0945000   -0.1918960  
C     3.0348180    2.4489650   -0.4713390  
N     1.8952490    3.2021230   -0.3915060  
C     4.3471100    2.8514860   -0.7406850  
C     5.3187900    1.8667370   -0.6972460  
O     6.6203930    2.1766910   -0.9220900  
C     4.9943800    0.5028360   -0.4202200  
O     6.0875300   -0.3343310   -0.4483770  
C     3.6876290    0.0799970   -0.1922090  
H     0.7073130    0.2438970    0.4130440  
H     1.8076970    4.2105610   -0.4347420  
H     4.6184850    3.8809690   -0.9476680  
H     7.1112650    1.3387820   -0.8131520  
H     6.0214560   -0.9379450    0.3243640  
C    -3.2864590    0.5862500    0.2139520  
C    -1.9456050    0.8152760    0.0356300  
C    -1.6729440    2.2127720    0.2301240  
C    -2.9669370    2.8315660    0.5430660  
N    -3.9374830    1.8256380    0.4657200  
C    -3.1742810    4.1386280    0.8507340  
C    -2.0341900    5.0286260    0.7967910  
O    -2.0802040    6.2210750    1.0611960  
C    -0.6558950    4.4301360    0.3304550  
O     0.2470820    5.2346150    0.1270310  
C    -0.5042280    2.9624540    0.1594720  
H    -1.2438670    0.0709080   -0.3039000  
H    -4.1459450    4.5469720    1.1097200  
H    -4.7152320    1.8508210    1.1173080  
C    -2.3227540   -3.7167060    1.0528890  
C    -2.2552720   -2.3515200    0.9324860  
C    -3.5140410   -1.9096910    0.4082590  
C    -4.3179360   -3.0677430    0.2400710  
N    -3.5628100   -4.1528260    0.6339860  
C    -5.6342360   -3.0241050   -0.2308340  
C    -6.1600550   -1.7800540   -0.5431670  
O    -7.4319040   -1.6844440   -1.0245580  
C    -5.3891680   -0.6027110   -0.3834280  
O    -6.0568240    0.5401700   -0.7670250  
C    -4.0659000   -0.6333860    0.0900140  
H    -1.4058270   -1.7420940    1.2003640  
H    -3.8783010   -5.1100360    0.6360830  
H    -6.2432260   -3.9123020   -0.3650270  
H    -7.5914680   -0.7455150   -1.2255610  
H    -5.4270650    1.2840180   -0.8148360  
H    -1.5787570   -4.4185710    1.4011370  
