62


C     5.5527140   -1.7794820   -1.1910380  
C     6.8340030   -1.7448350   -0.7141780  
C     6.9635870   -0.5518430    0.0749650  
C     5.7112600    0.1109390    0.0403180  
N     4.8519240   -0.6547700   -0.7462570  
C     5.4674570    1.3029450    0.7319150  
C     6.5153530    1.8434690    1.4601390  
O     6.3341310    3.0079440    2.1473060  
C     7.7812740    1.1991970    1.4993990  
O     8.7198690    1.8619420    2.2667360  
C     8.0141560    0.0172110    0.8223980  
H     7.6054220   -2.4748410   -0.9193430  
H     4.5126320    1.8142140    0.7036170  
H     7.1806930    3.2268770    2.5734200  
H     9.5690030    1.3993420    2.2117490  
H     8.9893170   -0.4634510    0.8709000  
H     5.0702800   -2.4782880   -1.8603290  
C     1.5147340   -3.1554790    0.3711660  
C     0.4933750   -2.3691800   -0.1454480  
C     1.1274320   -1.2041040   -0.7349610  
C     2.5162380   -1.3594320   -0.5302200  
N     2.7159150   -2.5520530    0.1416680  
C     3.4740640   -0.4288920   -0.9700420  
C     2.9996170    0.6972320   -1.6406650  
O     3.8696110    1.6304270   -2.0976030  
C     1.6041510    0.8630280   -1.8597190  
O     1.3028560    2.0123040   -2.5518610  
C     0.6721470   -0.0661290   -1.4320230  
H     3.6192160   -2.8893070    0.4442390  
H     3.3500540    2.3302280   -2.5318240  
H     0.3484840    2.0750170   -2.7064960  
H    -0.3799180    0.0752300   -1.6647390  
H     1.4511050   -4.0843540    0.9192850  
C    -0.9064230   -2.6893370   -0.0552700  
C    -1.5460900   -3.8974760    0.0525100  
C    -2.9532710   -3.6543480    0.1827040  
C    -3.1250630   -2.1841600    0.1323620  
N    -1.8733430   -1.6574810   -0.0629810  
C    -4.3235570   -1.5163590    0.2832050  
C    -5.4953090   -2.3658370    0.5800960  
O    -6.5933670   -1.9175900    0.8884770  
C    -5.3510050   -3.9271020    0.5039380  
O    -6.3624820   -4.6020460    0.6221050  
C    -4.0231250   -4.4892550    0.3251540  
H    -1.0751530   -4.8685850    0.0030950  
H    -3.9250460   -5.5701540    0.3331340  
H    -1.6490650   -0.7045190    0.1938210  
C    -4.4487220   -0.0724130    0.1958870  
C    -3.5882690    0.8716520   -0.3376740  
C    -4.1986970    2.1629240   -0.1949120  
C    -5.5030980    1.9256500    0.4734530  
N    -5.5817580    0.5683420    0.6908710  
C    -6.3930090    2.9039780    0.7793310  
C    -6.0567240    4.2827800    0.4346880  
O    -6.7950890    5.2272070    0.6714670  
C    -4.6788270    4.5573650   -0.2739040  
O    -4.3840350    5.7069730   -0.5700170  
C    -3.8057410    3.4199780   -0.5491150  
H    -2.6732170    0.6789280   -0.8757000  
H    -7.3435980    2.7126200    1.2671780  
H    -2.8571790    3.6234810   -1.0376680  
H    -6.3819530    0.0359060    1.0129090  
