62


C    -4.1836820   -2.0439330    1.7761440  
C    -5.1444150   -2.9780320    2.0129700  
C    -6.2570570   -2.6872470    1.1462470  
C    -5.9134310   -1.5429690    0.3875170  
N    -4.6283310   -1.1450660    0.7952720  
C    -6.7539380   -1.0224920   -0.6042640  
C    -7.9804270   -1.6449890   -0.7972590  
O    -8.8324940   -1.1671770   -1.7458570  
C    -8.3508790   -2.7752950   -0.0248310  
O    -9.5969200   -3.2772210   -0.3329400  
C    -7.5024250   -3.3036320    0.9322220  
H    -5.0800300   -3.7800130    2.7355360  
H    -6.4833240   -0.1879030   -1.2395020  
H    -9.6205550   -1.7377930   -1.7456380  
H    -9.7772270   -4.0631170    0.2040590  
H    -7.7928070   -4.1840240    1.5015280  
H    -3.2222160   -1.8865020    2.2411140  
C    -3.8844250   -0.0711190    0.3472220  
C    -2.5260430    0.0742530    0.2808510  
C    -2.2502600    1.4148270   -0.1674750  
C    -3.5688660    2.0578220   -0.3567260  
N    -4.5298870    1.0866750   -0.0986430  
C    -3.7698830    3.3548350   -0.6974960  
C    -2.5957050    4.1836940   -0.9084520  
O    -2.6500880    5.3725350   -1.1849690  
C    -1.1747310    3.5156600   -0.7724130  
O    -0.2031540    4.2291610   -0.9741830  
C    -1.0684200    2.0857690   -0.4059400  
H    -1.7989890   -0.6914450    0.4987070  
H    -4.7528000    3.7993210   -0.8176300  
H    -5.4716530    1.3177980    0.1865690  
C     0.4889710    0.1466760   -0.8070590  
C     0.2385330    1.4276030   -0.3451700  
C     1.5018450    1.9061940    0.1862620  
C     2.4443010    0.8636950    0.0398400  
N     1.7970290   -0.1929580   -0.5661990  
C     3.8092880    0.9622400    0.4213760  
C     4.1931460    2.1961610    0.9833330  
O     5.4511300    2.3952530    1.4321480  
C     3.2462810    3.2408120    1.1508150  
O     3.7783600    4.3733550    1.7383180  
C     1.9253900    3.1137040    0.7758600  
H     2.2718290   -1.0068950   -0.9289040  
H     5.4979110    3.3182830    1.7425030  
H     3.1620670    5.1132320    1.6303750  
H     1.2381720    3.9435550    0.8956590  
H    -0.1693040   -0.5338100   -1.3273270  
C     4.7298850   -0.1419850    0.2283270  
C     4.4545310   -1.4913210    0.2678090  
C     5.6930770   -2.1592580   -0.0337540  
C     6.6621280   -1.0367970   -0.2664550  
N     6.1068140    0.1268870   -0.1052110  
C     8.0347130   -1.2905380   -0.6249630  
C     8.4289310   -2.5816560   -0.7178610  
O     9.6717540   -2.9741500   -1.0320110  
C     7.4787340   -3.7345150   -0.4686220  
O     7.9446230   -4.8712980   -0.5817580  
C     6.0875030   -3.4546320   -0.1231200  
H     3.5359690   -1.9675770    0.5823990  
H     8.7129820   -0.4626860   -0.7986920  
H     9.6356010   -3.9582210   -1.0159820  
H     5.4332760   -4.3058340    0.0391090  
