60


C    -5.0590590   -0.1515440    0.0984320  
C    -5.7267410   -1.3594950    0.3498870  
C    -7.0730120   -1.2026890   -0.0520270  
C    -7.2048140    0.1295190   -0.5536870  
N    -5.9818730    0.7310000   -0.4510480  
C    -8.4165780    0.6325070   -1.0435000  
C    -9.5089600   -0.2185850   -1.0318590  
O   -10.7096200    0.2129730   -1.4958340  
C    -9.3957520   -1.5562760   -0.5370030  
O   -10.5787430   -2.2614470   -0.5998650  
C    -8.2061870   -2.0518120   -0.0542690  
H    -5.2730780   -2.2673110    0.7169010  
H    -5.7048290    1.6509800   -0.7716790  
H    -8.5236560    1.6420170   -1.4252450  
H   -11.3413370   -0.5222260   -1.4068390  
H   -10.4452610   -3.1576680   -0.2570970  
H    -8.1409530   -3.0718200    0.3183370  
C    -1.7415320   -1.8582670    2.5515700  
C    -2.9571660   -1.5690610    2.0161890  
C    -2.7763730   -0.4885460    1.0732920  
C    -1.3461780   -0.1600840    1.1037920  
N    -0.7658060   -1.0468160    1.9847160  
C    -0.7241790    0.8588040    0.4097910  
C    -1.5910230    1.6766020   -0.4346310  
O    -1.1831250    2.5221360   -1.2143710  
C    -3.1387960    1.4252010   -0.3923840  
O    -3.8461340    2.2643170   -0.9329160  
C    -3.6779160    0.2092450    0.2776410  
H    -3.8916580   -2.0259840    2.2982150  
H    -1.4725510   -2.5825870    3.3081090  
H     0.1914580   -0.9821490    2.2953710  
C     2.9272100   -1.5949190   -0.2834050  
C     1.6573290   -1.1527650   -0.1529070  
C     1.7069080    0.2471110    0.2260240  
C     3.1367920    0.6042020    0.3039550  
N     3.8512350   -0.5627700   -0.0268910  
C     3.6099800    1.8335810    0.6388990  
C     2.6436590    2.8965090    0.8933390  
O     2.9735150    4.0469920    1.1338680  
C     1.1205610    2.5357080    0.8740540  
O     0.3238450    3.3575000    1.2816690  
C     0.7077610    1.1582770    0.4601780  
H     0.7643150   -1.7302300   -0.3393000  
H     4.6613600    2.0761420    0.7312160  
H     3.3000220   -2.5615910   -0.5902770  
C     5.2215460   -0.7409890   -0.1103140  
C     5.9457400   -1.8791360    0.1145040  
C     7.3221250   -1.5783380   -0.1836360  
C     7.3523000   -0.1567530   -0.6042020  
N     6.0470870    0.3209670   -0.4885500  
C     8.4612130    0.4990990   -1.0153730  
C     9.7335750   -0.2289400   -1.0205190  
O    10.7830750    0.2833400   -1.3732110  
C     9.7340890   -1.7250050   -0.5381900  
O    10.7901990   -2.3396530   -0.5287090  
C     8.4623450   -2.3209990   -0.1340990  
H     5.5648940   -2.8107190    0.5064330  
H     8.4635100    1.5389320   -1.3275790  
H     8.4709550   -3.3601970    0.1800080  
H     5.7050240    1.1055210   -1.0264850  
