60


C     5.8191980    0.0132950    2.7982020  
C     5.3147370    0.3521390    1.5631220  
C     6.4264520    0.6598680    0.7015930  
C     7.5930930    0.4879230    1.4865280  
N     7.1902060    0.1057050    2.7538500  
C     8.8808450    0.7000990    0.9778660  
C     8.9870990    1.0902000   -0.3471100  
O    10.2148390    1.3052300   -0.8939020  
C     7.8236330    1.2686950   -1.1478540  
O     8.0992970    1.6624820   -2.4397800  
C     6.5543740    1.0619900   -0.6430500  
H     7.8089470   -0.0992470    3.5231500  
H     9.7788010    0.5669930    1.5722010  
H    10.0809420    1.5472500   -1.8268400  
H     7.2830390    1.6782900   -2.9613470  
H     5.6785410    1.2038210   -1.2716470  
H     5.3010230   -0.2890730    3.6967660  
C     3.0208170    1.3249700    1.7332970  
C     1.7710580    1.1153760    1.2354180  
C     1.8584120   -0.0098910    0.3383400  
C     3.2738650   -0.4463510    0.3567300  
N     3.9413380    0.4125670    1.2268850  
C     3.7720190   -1.5026830   -0.3348760  
C     2.8597120   -2.2621300   -1.1806480  
O     3.1941870   -3.2504540   -1.8137980  
C     1.3636450   -1.7842690   -1.2880860  
O     0.6195030   -2.3394440   -2.0763620  
C     0.9312600   -0.6545890   -0.4375540  
H     0.8824600    1.6769480    1.4816580  
H     4.8111220   -1.8073130   -0.2808330  
H     3.3647570    2.0717650    2.4365810  
C    -0.7663860    1.1026950   -0.9214780  
C    -2.1158840    1.2444140   -0.9547250  
C    -2.6992470   -0.0192650   -0.5683600  
C    -1.5616700   -0.9221370   -0.2932970  
N    -0.3977550   -0.1912820   -0.5436810  
C    -1.6711150   -2.1917860    0.1750780  
C    -3.0037220   -2.7117280    0.4223460  
O    -3.2209200   -3.8237310    0.8792120  
C    -4.2387150   -1.7886570    0.1093260  
O    -5.3510480   -2.2446400    0.3165280  
C    -4.0128800   -0.4174970   -0.4172310  
H    -2.6491280    2.1468500   -1.2097510  
H    -0.8214940   -2.8338390    0.3734680  
H     0.0078230    1.8218570   -1.1515560  
C    -5.1889330    1.2977080   -1.8491560  
C    -5.1383680    0.4241250   -0.7936640  
C    -6.4642200    0.5886570   -0.1438650  
C    -7.1431030    1.6299170   -0.9667990  
N    -6.3924330    2.0232260   -1.9632150  
C    -8.4655070    2.1058120   -0.6631120  
C    -9.0904630    1.5891760    0.4218460  
O   -10.3192730    1.9429750    0.8306120  
C    -8.4297190    0.5498680    1.2821290  
O    -9.0522420    0.1372650    2.2590320  
C    -7.0755620    0.0636280    0.9347970  
H    -8.9251780    2.8597650   -1.2924510  
H   -10.4908480    1.4019410    1.6329840  
H    -6.6575410   -0.7170630    1.5577110  
H    -4.4258590    1.4446580   -2.6038010  
