64


C     5.6258820   -0.1960880   -2.3601760  
C     6.5988640   -1.1341080   -2.5752320  
C     7.0552060   -1.5740300   -1.2868520  
C     6.3115990   -0.8574330   -0.3143590  
N     5.4371740   -0.0118860   -0.9907420  
C     6.4802660   -1.0540140    1.0613240  
C     7.4262830   -1.9835820    1.4622360  
O     7.6369270   -2.2112960    2.7935870  
C     8.1856450   -2.7056950    0.5038900  
O     9.0885090   -3.5958900    1.0595050  
C     8.0113810   -2.5142470   -0.8537570  
H     6.9615810   -1.4614700   -3.5403620  
H     5.9155490   -0.5029100    1.8038910  
H     8.3406670   -2.8790530    2.8606720  
H     9.5994080   -4.0162510    0.3523660  
H     8.6009620   -3.0829160   -1.5707260  
H     5.0585710    0.4019460   -3.0596920  
C     1.1475880   -0.3000130   -1.3621370  
C     0.7919920    0.8184690   -0.6192280  
C     2.0427390    1.4080170   -0.1626120  
C     3.0840910    0.6000210   -0.6773860  
N     2.5074370   -0.4184850   -1.4102960  
C     4.4465880    0.8272330   -0.4200360  
C     4.7682340    1.9040690    0.4038190  
O     6.0684680    2.1893210    0.6839020  
C     3.7334650    2.7018820    0.9538780  
O     4.2012530    3.7227150    1.7603440  
C     2.3958660    2.4750600    0.6876640  
H     3.0218080   -1.1579810   -1.8655950  
H     6.0684820    2.9668160    1.2695370  
H     3.4569960    4.2751320    2.0416570  
H     1.6362800    3.1226270    1.1095980  
H     0.5068730   -1.0197010   -1.8444620  
C    -2.8227900   -1.6237560   -0.3829800  
C    -3.8100430   -0.6995260   -0.1871200  
C    -3.0846580    0.5930870   -0.1431650  
C    -1.6601160    0.2318430   -0.3549360  
N    -1.5308100   -1.0650100   -0.4716750  
C    -0.5878010    1.2301410   -0.3803220  
C    -0.9985070    2.5258240   -0.1763690  
O    -0.1650180    3.5972100   -0.2253580  
C    -2.3982780    2.9030250    0.0863030  
O    -2.6714840    4.1017460    0.2447280  
C    -3.4460610    1.8603440    0.1202190  
H    -0.7576310    4.3661620   -0.0663900  
H    -4.4545580    2.1848460    0.3582260  
H    -2.9371810   -2.6955320   -0.4878340  
C    -5.2235150   -0.9107050   -0.0222180  
C    -5.9102120   -2.0263700    0.4327680  
C    -7.3036430   -1.7328950    0.3857340  
C    -7.4330920   -0.4066010   -0.1147190  
N    -6.1587870    0.0828130   -0.3197600  
C    -8.6734240    0.2074760   -0.3149510  
C    -9.8070560   -0.5244060    0.0057350  
O   -11.0409300    0.0239220   -0.1703360  
C    -9.6980510   -1.8464350    0.5237460  
O   -10.9172810   -2.4331340    0.7984530  
C    -8.4728970   -2.4512370    0.7183810  
H    -5.4477640   -2.9299030    0.8059400  
H    -5.9478560    0.8966830   -0.8775100  
H    -8.7782230    1.2166410   -0.6996710  
H   -11.6955490   -0.6370600    0.1150290  
H   -10.7773280   -3.3254030    1.1485430  
H    -8.4129890   -3.4635400    1.1126450  
