60


C     5.3578450   -2.6534460   -2.1456060  
C     6.4697880   -2.9704910   -1.4111720  
C     6.6183690   -1.9510400   -0.4118190  
C     5.5505400   -1.0334150   -0.5896340  
N     4.8031050   -1.4846650   -1.6557350  
C     5.4029200    0.1382760    0.1921340  
C     6.3588080    0.3339500    1.1978160  
O     6.2346280    1.3881600    2.0463570  
C     7.4197880   -0.5850990    1.3930850  
O     8.2591930   -0.2429720    2.4354820  
C     7.5633310   -1.7106600    0.6047650  
H     7.1127930   -3.8259070   -1.5653100  
H     3.9648350   -1.0440790   -2.0021990  
H     7.0137170    1.3852110    2.6299070  
H     8.9914160   -0.8748540    2.4862760  
H     8.3894170   -2.3987570    0.7726220  
H     4.9043570   -3.1631830   -2.9837850  
C     0.9172920   -0.0565590   -0.1068040  
C     2.2391130   -0.4091230    0.0562950  
C     2.9941030    0.8073660   -0.1128260  
C     1.9533390    1.8430450   -0.3750140  
N     0.7518080    1.3408290   -0.3737910  
C     2.2930070    3.2288380   -0.5736370  
C     3.6007660    3.5657320   -0.5141520  
O     4.0646100    4.8133690   -0.6845030  
C     4.6861130    2.5417020   -0.2894090  
O     5.8437770    2.9357410   -0.3838410  
C     4.3257460    1.1107990   -0.0330410  
H     2.6384890   -1.3841260    0.2971010  
H     1.5130350    3.9587340   -0.7589060  
H     5.0433070    4.7342850   -0.6399090  
C    -0.2336150   -0.9168770   -0.0259020  
C    -0.2733810   -2.2724160    0.1833090  
C    -1.6663290   -2.6352650    0.1569520  
C    -2.3866510   -1.3413420   -0.0781270  
N    -1.5516050   -0.3561800   -0.1794080  
C    -3.8537810   -1.2566870   -0.1636480  
C    -4.4960160   -2.4648100   -0.0605500  
O    -5.8306080   -2.6216250   -0.1739650  
C    -3.7960900   -3.7652330    0.1679990  
O    -4.4976560   -4.7810230    0.2381030  
C    -2.3360170   -3.8019280    0.2839000  
H     0.5587620   -2.9463000    0.3335770  
H    -5.9721650   -3.5918150   -0.0654600  
H    -1.8686750   -4.7667630    0.4546080  
C    -3.9158990    1.1554590   -0.9105260  
C    -4.4988360    0.0320590   -0.3739840  
C    -5.8737150    0.4781990   -0.0345300  
C    -5.9107440    1.9020550   -0.4860600  
N    -4.7699730    2.2757120   -0.9998750  
C    -7.0770980    2.7294280   -0.3365300  
C    -8.1606940    2.1930940    0.2730490  
O    -9.3123360    2.8465170    0.4932080  
C    -8.1465380    0.7788990    0.7779360  
O    -9.1618350    0.3615530    1.3337980  
C    -6.9401080   -0.0548750    0.5941080  
H    -7.0582000    3.7530360   -0.6937990  
H    -9.8918820    2.1995630    0.9533420  
H    -6.9907060   -1.0725980    0.9566430  
H    -2.8921850    1.2521110   -1.2404030  
