62


C    -3.7484250    4.1665900   -2.0516050  
C    -3.0224220    3.0543790   -1.7122060  
C    -1.9734470    3.4841120   -0.8325210  
C    -2.1131530    4.8959280   -0.6905020  
N    -3.2070110    5.2761070   -1.4357360  
C    -1.2388250    5.6854060    0.0566640  
C    -0.1874450    5.0369410    0.6943380  
O     0.6920740    5.7551070    1.4425180  
C    -0.0317310    3.6386830    0.5851980  
O     1.0767830    3.1197950    1.2742170  
C    -0.8967650    2.8315450   -0.1696770  
H    -3.2072810    2.0549630   -2.0736200  
H    -3.5502350    6.2198960   -1.5244010  
H    -1.3495870    6.7603380    0.1544420  
H     1.3619250    5.1221960    1.7605310  
H     0.7625390    2.6046160    2.0375420  
H    -4.6160480    4.2600470   -2.6891250  
C    -0.7057290    1.3890090   -0.2670520  
C    -1.6330710    0.3877000   -0.4724660  
C    -0.9462310   -0.8658660   -0.4626800  
C     0.4790230   -0.5562600   -0.2725720  
N     0.5596440    0.8135120   -0.1604760  
C     1.5132920   -1.4696440   -0.2405430  
C     1.0904160   -2.8836150   -0.2786050  
O     1.8537260   -3.8250400   -0.1024640  
C    -0.4150490   -3.2456800   -0.5574010  
O    -0.6909610   -4.4253720   -0.7359150  
C    -1.3915970   -2.1691320   -0.5854880  
H    -2.6979670    0.5252280   -0.5569900  
H     1.3788200    1.3267530    0.1310430  
C    -3.2372790   -3.3895050   -1.7263440  
C    -4.5717780   -3.5923620   -1.6026910  
C    -5.0210030   -2.8356560   -0.4571390  
C    -3.8146620   -2.1624770    0.0896510  
N    -2.7535810   -2.5070710   -0.7481270  
C    -3.8175270   -1.4040130    1.2162650  
C    -5.0826480   -1.1960990    1.9164940  
O    -5.1730990   -0.5258500    2.9347580  
C    -6.3780680   -1.8604420    1.3251060  
O    -7.4483120   -1.6708570    1.8833250  
C    -6.2398900   -2.6883510    0.1269260  
H    -5.1852830   -4.2141500   -2.2384290  
H    -2.9276080   -0.9430010    1.6276400  
H    -7.1319620   -3.1765710   -0.2539060  
H    -2.5439410   -3.7969840   -2.4465750  
C     2.9145830   -1.1160250   -0.1472090  
C     3.5744840    0.0900550   -0.3996430  
C     4.9627900   -0.1229670   -0.1815550  
C     5.1166500   -1.4853740    0.2087220  
N     3.8683490   -2.0521010    0.2265610  
C     6.3648770   -2.0488500    0.5015070  
C     7.4756080   -1.2275510    0.3962580  
O     8.7146240   -1.7220040    0.6668840  
C     7.3411550    0.1377740    0.0057480  
O     8.5430630    0.8152350   -0.0485190  
C     6.1121440    0.6933930   -0.2805750  
H     3.1322740    0.9948410   -0.7914150  
H     3.6259210   -3.0267430    0.3555280  
H     6.4874830   -3.0850640    0.7980280  
H     9.3524260   -1.0000310    0.5299570  
H     8.3905580    1.7250120   -0.3439530  
H     6.0333130    1.7375280   -0.5766820  
