62


C     7.0796090   -0.8159620   -1.8147270  
C     7.1214160   -2.1743890   -1.6435020  
C     5.8711500   -2.5657640   -1.0560700  
C     5.1070550   -1.3793210   -0.8958080  
N     5.8604700   -0.3314170   -1.3755840  
C     3.8113430   -1.3897420   -0.3472900  
C     3.2852890   -2.6237410    0.0344700  
O     2.0289510   -2.6989530    0.5795590  
C     4.0350750   -3.8123020   -0.1412490  
O     3.3644190   -4.9474030    0.2749190  
C     5.3109600   -3.7998940   -0.6735330  
H     7.9443440   -2.8237970   -1.9074750  
H     5.6003020    0.6416540   -1.3233170  
H     1.8841080   -3.6358360    0.8037380  
H     3.9639820   -5.7077610    0.2516970  
H     5.8635180   -4.7281900   -0.8002630  
H     7.8202870   -0.1404880   -2.2184300  
C     1.7315840   -0.0661080   -0.6724530  
C     1.1579630    1.1009600   -0.2717420  
C     2.1683130    1.7970920    0.5228120  
C     3.3582190    0.9110200    0.5605020  
N     3.0431170   -0.2068640   -0.2041050  
C     4.4992690    1.1881700    1.2466270  
C     4.5791770    2.4457640    1.9829940  
O     5.5633250    2.7800090    2.6264430  
C     3.3368550    3.4066570    1.9395890  
O     3.3882040    4.4681600    2.5408450  
C     2.1555110    2.9839730    1.1796350  
H     5.3429260    0.5087910    1.2982360  
H     1.3013280    3.6506930    1.1582860  
H     1.3166520   -0.8469540   -1.2942120  
C    -2.4773680   -1.2094790    0.4112790  
C    -3.4172510   -0.2927260   -0.0366290  
C    -2.6594360    0.8661490   -0.4784200  
C    -1.2918400    0.5776240   -0.2576300  
N    -1.2150480   -0.6982600    0.2732170  
C    -0.2408050    1.4851250   -0.5177380  
C    -0.6219450    2.7301290   -1.0163070  
O     0.3269950    3.6624160   -1.3210080  
C    -1.9883880    3.0401340   -1.2360110  
O    -2.1898970    4.3114470   -1.7390550  
C    -3.0008320    2.1376190   -0.9788180  
H    -0.3567510   -1.1682980    0.5257770  
H    -0.1420440    4.4378950   -1.6773860  
H    -3.1151100    4.4071950   -2.0105420  
H    -4.0329460    2.3940750   -1.1899280  
H    -2.6277060   -2.2174310    0.7698790  
C    -6.0783420   -2.2850490    2.9066780  
C    -5.0260720   -1.6983960    2.2819450  
C    -5.4968640   -1.1969480    1.0043100  
C    -6.9356360   -1.5348770    0.9441440  
N    -7.2178540   -2.2193630    2.1082370  
C    -7.7838270   -1.2077460   -0.0707050  
C    -7.2456210   -0.4526190   -1.1795990  
O    -7.9078340   -0.0676380   -2.1341350  
C    -5.7101490   -0.0875580   -1.1569850  
O    -5.2714570    0.5475590   -2.1012400  
C    -4.8588360   -0.5251260   -0.0151530  
H    -4.0287080   -1.5930010    2.6794420  
H    -8.8362020   -1.4735370   -0.0793640  
H    -6.1278920   -2.7561530    3.8792170  
H    -8.1399740   -2.5183340    2.3839730  
