60


C     5.8019380    1.7829220    1.6035110  
C     5.2986950    0.8436090    0.7103570  
C     6.4504310    0.1189980    0.2022230  
C     7.5979540    0.6787860    0.8155500  
N     7.1678890    1.6838770    1.6642460  
C     8.9020970    0.2486240    0.5431290  
C     9.0525140   -0.7794910   -0.3729880  
O    10.2941910   -1.2503630   -0.6724620  
C     7.9149050   -1.3534810   -1.0029340  
O     8.2242270   -2.3674880   -1.8867440  
C     6.6323230   -0.9187030   -0.7339390  
H     7.7598820    2.2070380    2.2911100  
H     9.7766860    0.6799260    1.0190000  
H    10.1795860   -1.9827590   -1.3032570  
H     7.4099760   -2.8110660   -2.1684090  
H     5.7806100   -1.3965310   -1.2053300  
H     5.2701170    2.4579230    2.2595550  
C     2.1890120    3.8471600    0.1569870  
C     1.1064630    3.0405620   -0.0368980  
C     1.5641370    1.6744870    0.0084470  
C     3.0111680    1.7442400    0.2690000  
N     3.3248020    3.0910570    0.3650570  
C     3.8824950    0.6869120    0.3893420  
C     3.2616570   -0.6379760    0.2209660  
O     3.8855250   -1.6853230    0.2549310  
C     1.6995600   -0.7498380    0.0052150  
O     1.2462590   -1.8815510   -0.0689330  
C     0.8848190    0.4705760   -0.1274310  
H     0.0887480    3.3723170   -0.1679650  
H     2.2428420    4.9275190    0.1812190  
H     4.2755300    3.4314500    0.3638770  
C    -1.2456920    1.2634150   -1.2356460  
C    -0.5272880    0.3921460   -0.4554520  
C    -1.5484740   -0.5900570    0.0030360  
C    -2.8093420   -0.1075910   -0.6069460  
N    -2.6151860    0.9596460   -1.3366490  
C    -4.0790050   -0.7801310   -0.3933270  
C    -4.0709420   -1.8952160    0.3961700  
O    -5.1589310   -2.6419270    0.6537550  
C    -2.8226840   -2.3751960    1.0464720  
O    -2.8980840   -3.3849140    1.7502820  
C    -1.5435250   -1.6708280    0.8056920  
H    -4.8387080   -3.3564380    1.2500230  
H    -0.6565220   -2.0913050    1.2616100  
H    -0.8634120    2.1059360   -1.7968340  
C    -5.3423720    0.1578800   -2.3177710  
C    -6.5775050    0.6345610   -2.6027170  
C    -7.3614980    0.5696190   -1.3907180  
C    -6.4693410   -0.0022890   -0.3515110  
N    -5.2464130   -0.2590500   -0.9805210  
C    -6.8269740   -0.1623990    0.9460850  
C    -8.1828390    0.2141410    1.3469350  
O    -8.5840530    0.1054270    2.4955990  
C    -9.1543890    0.7841620    0.2525250  
O   -10.2935630    1.0893570    0.5714130  
C    -8.6391340    0.9371250   -1.1078440  
H    -6.9132070    1.0033030   -3.5611960  
H    -6.1707830   -0.5687080    1.7044310  
H    -9.3030430    1.3618230   -1.8547790  
H    -4.4754970    0.0647390   -2.9538430  
