64


C     5.6050470   -2.1969150   -0.1839120  
C     4.9296800   -0.9911410   -0.1719700  
C     5.9478640    0.0369170   -0.1325890  
C     7.2066710   -0.6142480   -0.1202270  
N     6.9662530   -1.9742970   -0.1517330  
C     8.4221430    0.0803740   -0.0644550  
C     8.3630640    1.4638230   -0.0198620  
O     9.5150240    2.1961580    0.0300200  
C     7.1103120    2.1330750   -0.0267910  
O     7.2152110    3.5125420    0.0213470  
C     5.9147390    1.4439750   -0.0783970  
H     7.6736320   -2.6898140   -0.2072840  
H     9.3864480   -0.4176700   -0.0560750  
H     9.2544740    3.1333470    0.0421310  
H     6.3299520    3.9002840   -0.0430210  
H     4.9683240    1.9755360   -0.1058910  
H     5.2129410   -3.2011960   -0.2663780  
C     1.9149280   -3.0758760    2.2304700  
C     0.7947440   -2.4756610    1.7200010  
C     1.2288460   -1.5200000    0.7408790  
C     2.6443450   -1.6064290    0.6892760  
N     3.0333190   -2.5647270    1.6015800  
C     3.4659350   -0.8371430   -0.1630930  
C     2.7772270    0.0412470   -1.0017690  
O     3.4576190    0.8294280   -1.8859440  
C     1.3628370    0.1343460   -0.9957140  
O     0.8682640    1.0654080   -1.8914330  
C     0.5562430   -0.6124180   -0.1268270  
H    -0.2211810   -2.6754000    2.0231760  
H     3.9944010   -2.7431850    1.8488290  
H     2.7620900    1.3013620   -2.3845650  
H     0.1554480    0.6324910   -2.4092140  
H     2.0118030   -3.8358330    2.9930900  
C    -2.3048440    0.0932630    3.1591570  
C    -3.4916590    0.1284560    2.5078570  
C    -3.1580760   -0.0597790    1.0978830  
C    -1.6764890   -0.2275610    1.0952350  
N    -1.1888010   -0.1238840    2.2987570  
C    -0.9112720   -0.4572310   -0.1344780  
C    -1.6648340   -0.4468910   -1.2704810  
O    -1.1296720   -0.5961050   -2.5195730  
C    -3.1360660   -0.2497470   -1.3114850  
O    -3.6636060   -0.1879510   -2.4232040  
C    -3.9055890   -0.0922930   -0.0355870  
H    -4.4815780    0.2565700    2.9221470  
H    -1.9059370   -0.5211350   -3.1238450  
H    -2.1214690    0.1961110    4.2221110  
C    -6.4582420    3.2345180    1.4125540  
C    -7.6564500    2.7531870    0.9556320  
C    -7.3908910    1.4888840    0.3296120  
C    -5.9956200    1.2532020    0.4428960  
N    -5.4532720    2.3369170    1.0993850  
C    -5.3617190    0.1126580   -0.1035770  
C    -6.1933230   -0.8122830   -0.7431010  
O    -5.6659130   -1.9706140   -1.2236050  
C    -7.5896220   -0.5935620   -0.8486090  
O    -8.2597990   -1.6120950   -1.4998150  
C    -8.1916150    0.5375170   -0.3315700  
H    -8.6165600    3.2416570    1.0486040  
H    -4.4837400    2.4280990    1.3613720  
H    -6.3804060   -2.4454050   -1.6830590  
H    -9.1947860   -1.3776190   -1.5931580  
H    -9.2655300    0.6833860   -0.4301230  
H    -6.2277280    4.1485990    1.9411290  
