60


C     4.8948440   -2.1145830   -1.2421200  
C     4.6742270   -0.9151780   -0.5684050  
C     5.9914250   -0.3741490   -0.2743660  
C     6.9395120   -1.2960670   -0.7808970  
N     6.2378540   -2.3365280   -1.3677670  
C     8.3228660   -1.1274860   -0.6537830  
C     8.7650570    0.0094570    0.0029710  
O    10.0977840    0.2366610    0.1494580  
C     7.8317270    0.9466600    0.5238380  
O     8.4218910    2.0255530    1.1472410  
C     6.4678480    0.7684220    0.3993620  
H     6.6534510   -3.0996870   -1.8803570  
H     9.0421440   -1.8379740   -1.0475110  
H    10.1977260    1.0914610    0.6043580  
H     7.7486850    2.6913400    1.3541060  
H     5.7812780    1.5166170    0.7790040  
H     4.1803140   -2.7764690   -1.7111560  
C     1.0569030   -2.9669750    0.7142060  
C     0.1697470   -1.9246160    0.6826190  
C     0.8908610   -0.7500620    0.2847390  
C     2.2785050   -1.1816700    0.0803600  
N     2.3026570   -2.5528050    0.3106730  
C     3.3513460   -0.3903250   -0.2601100  
C     3.0433110    1.0535620   -0.3338800  
O     3.8766770    1.9050320   -0.5865660  
C     1.5682650    1.5519090   -0.0861670  
O     1.4183330    2.7706380   -0.0658730  
C     0.4916400    0.5786450    0.1138680  
H    -0.8704180   -1.9832370    0.9576210  
H     0.8893290   -3.9973250    0.9989810  
H     3.1623870   -3.0704850    0.4250340  
C    -0.8861720    1.0153470    0.1491910  
C    -2.0606060    0.2844620    0.0378230  
C    -3.1621050    1.1968800    0.0668840  
C    -2.5692970    2.5491340    0.1950490  
N    -1.2072960    2.3669870    0.2670230  
C    -3.2799030    3.7064950    0.2086620  
C    -4.7293930    3.6277680    0.0934890  
O    -5.4527910    4.6119780    0.0604890  
C    -5.3945020    2.2058550    0.0305140  
O    -6.6094830    2.1289790    0.0977250  
C    -4.5241350    1.0078510   -0.0316310  
H    -2.1370210   -0.7730960   -0.1517280  
H    -2.8188110    4.6867140    0.2778120  
H    -0.4876730    3.0795860    0.2381320  
C    -4.3457730   -2.5536880    2.5584450  
C    -5.1899290   -3.3721450    1.8779360  
C    -5.6369760   -2.6509620    0.7036900  
C    -4.9702900   -1.3297840    0.7541730  
N    -4.1770070   -1.3469450    1.8902800  
C    -5.1605410   -0.3113180   -0.1377150  
C    -6.0559730   -0.6058150   -1.2844710  
O    -6.1914110    0.1573500   -2.2226130  
C    -6.7989670   -1.9915950   -1.3331740  
O    -7.5879030   -2.2000280   -2.2421220  
C    -6.5061510   -2.9736940   -0.2931080  
H    -5.4845110   -4.3718320    2.1624760  
H    -7.0202980   -3.9289350   -0.3377020  
H    -3.8241490   -2.7278190    3.4906790  
H    -3.6948870   -0.5371380    2.2489050  
