62


C    -3.2321350   -0.1670690   -1.6585180  
C    -2.6982850   -1.0072200   -0.6991910  
C    -3.8118590   -1.7464990   -0.1439020  
C    -4.9812630   -1.3037180   -0.8109400  
N    -4.5946510   -0.3457210   -1.7282910  
C    -6.2596170   -1.7933450   -0.5139700  
C    -6.3592370   -2.7514850    0.4812620  
O    -7.5776970   -3.2683010    0.8112020  
C    -5.1987810   -3.2039480    1.1653710  
O    -5.4603970   -4.1585880    2.1305660  
C    -3.9407510   -2.7160740    0.8704410  
H    -5.2105030    0.1328670   -2.3667830  
H    -7.1542510   -1.4543530   -1.0261590  
H    -7.4304780   -3.9243030    1.5143340  
H    -4.6261180   -4.4593740    2.5199010  
H    -3.0673110   -3.0906640    1.3959270  
H    -2.7328720    0.5187670   -2.3288660  
C     0.1371520    2.2655580    0.0760900  
C     1.2668440    1.4749620    0.3128870  
C     0.8712440    0.1205090    0.2082330  
C    -0.5179520    0.1085160   -0.1129310  
N    -0.9254780    1.4113140   -0.1832410  
C    -1.2761910   -1.0649520   -0.3265260  
C    -0.5621350   -2.2565040   -0.1829210  
O    -1.1783640   -3.4500070   -0.3811420  
C     0.8207660   -2.2828940    0.1756420  
O     1.3278800   -3.5522850    0.3378600  
C     1.5457600   -1.1165210    0.3659550  
H     2.2681560    1.8425660    0.4735810  
H    -1.8533050    1.7372250   -0.4175410  
H    -0.4925330   -4.1374850   -0.2839030  
H     2.2632920   -3.5873980    0.0626360  
C     2.6236000    5.7381610    1.4752040  
C     2.1688800    4.4678840    1.3151090  
C     0.9315890    4.5917450    0.5552200  
C     0.7918820    6.0506560    0.3542280  
N     1.7859340    6.7193560    0.8801060  
C    -0.3312830    6.6302290   -0.3385450  
C    -1.2957720    5.7968920   -0.7864590  
O    -2.4154420    6.2092730   -1.4159560  
C    -1.2033390    4.3186960   -0.5936320  
O    -2.1652250    3.6510000   -0.9906170  
C     0.0114470    3.7037600    0.0509810  
H     2.6057010    3.5644450    1.7126680  
H    -0.3932800    7.7054110   -0.4652620  
H    -2.9311950    5.3961970   -1.5975440  
H     3.5148330    6.0639400    1.9982080  
C     3.4296980   -0.6081220    1.9343220  
C     4.7450510   -0.8920010    2.0835730  
C     5.1466280   -1.6854580    0.9396500  
C     3.9338030   -1.8297660    0.0948340  
N     2.9143930   -1.1564040    0.7455470  
C     3.8990490   -2.5085550   -1.0883280  
C     5.1295050   -3.1379050   -1.5659720  
O     5.1995820   -3.7439790   -2.6232780  
C     6.4161350   -3.0170500   -0.6720140  
O     7.4451100   -3.5624190   -1.0349610  
C     6.3288030   -2.2424940    0.5724920  
H     5.3778950   -0.5917500    2.9060750  
H     3.0286370   -2.5285230   -1.7379770  
H     7.2324220   -2.1451010    1.1668030  
H     2.7605450   -0.0557730    2.5798120  
