62


C     1.5619430   -0.3085200    0.0581090  
C     0.9597610    0.9292390   -0.0716760  
C     2.0179220    1.8682140   -0.3884870  
C     3.2234570    1.1277890   -0.4323960  
N     2.9171990   -0.2057850   -0.1437100  
C     4.4563280    1.7050470   -0.7605830  
C     4.4727360    3.0644350   -1.0392260  
O     5.6471130    3.6755360   -1.3613390  
C     3.2735160    3.8222260   -1.0065110  
O     3.4470570    5.1545400   -1.3187570  
C     2.0558270    3.2424400   -0.6944700  
H     5.3724700    1.1302590   -0.8320590  
H     5.4440340    4.6046330   -1.5670740  
H     2.5843450    5.5866090   -1.4068210  
H     1.1460340    3.8371130   -0.7216890  
H     1.1226040   -1.2605340    0.3145050  
C    -0.4460620    1.1866390    0.1083250  
C    -1.5287920    0.3564450   -0.0486220  
C    -2.7127460    1.0756320    0.3145140  
C    -2.2584430    2.4320800    0.7053600  
N    -0.8868570    2.4643920    0.5006170  
C    -3.0652700    3.4221000    1.1569320  
C    -4.4964390    3.1589780    1.2356780  
O    -5.3059510    3.9936530    1.6106160  
C    -5.0171600    1.7398550    0.8062200  
O    -6.2100820    1.5091590    0.9271660  
C    -4.0460620    0.7397540    0.3178900  
H    -1.4899570   -0.6585230   -0.4117790  
H    -2.7053480    4.4081450    1.4353220  
H    -0.2850150    3.0989260    1.0064300  
C    -3.1998750   -3.3277600    1.8244890  
C    -4.0543610   -4.0858750    1.1007320  
C    -4.7390250   -3.1456130    0.2194120  
C    -4.1395060   -1.8124200    0.5666680  
N    -3.2432850   -1.9322040    1.5038190  
C    -4.5617590   -0.5823190   -0.0867460  
C    -5.5249300   -0.7160570   -1.0450980  
O    -5.9891590    0.3081560   -1.7730660  
C    -6.1378120   -2.0380830   -1.4106090  
O    -6.9916800   -2.0483810   -2.2965390  
C    -5.6981190   -3.2629970   -0.7168710  
H    -4.2173160   -5.1533670    1.1539940  
H    -6.6821630   -0.0753260   -2.3543950  
H    -6.1734310   -4.1961890   -1.0036950  
H    -2.5120350   -3.6526970    2.5965240  
C     6.4597070   -0.6792420    2.3938940  
C     6.8197190   -1.9230130    1.9470810  
C     5.8608290   -2.3090390    0.9503360  
C     4.9340350   -1.2395660    0.8395510  
N     5.3142130   -0.2659820    1.7365820  
C     3.8432530   -1.2807390   -0.0496880  
C     3.6878930   -2.4259400   -0.8294020  
O     2.6455060   -2.5200270   -1.7023080  
C     4.6044930   -3.5021000   -0.7115250  
O     4.3074080   -4.5635230   -1.5446540  
C     5.6788740   -3.4583230    0.1565080  
H     7.6660640   -2.5018960    2.2897020  
H     4.8818180    0.6409260    1.8230280  
H     2.7381300   -3.3722080   -2.1639040  
H     5.0104540   -5.2274730   -1.4900410  
H     6.3632800   -4.3008730    0.2279410  
H     6.9218600   -0.0429850    3.1351720  
