64


C     3.9519470   -1.3194920   -2.5514100  
C     3.8616420   -0.8146560   -1.2716890  
C     4.9773580   -1.3689950   -0.5346250  
C     5.6974620   -2.1983700   -1.4310400  
N     5.0444790   -2.1525620   -2.6480970  
C     6.8427350   -2.9102940   -1.0528690  
C     7.2687830   -2.7852460    0.2596600  
O     8.3824390   -3.4502900    0.6804170  
C     6.5522570   -1.9705810    1.1775110  
O     7.0916550   -1.9603970    2.4489870  
C     5.4194910   -1.2735790    0.8011540  
H     5.3516970   -2.6119630   -3.4910340  
H     7.3972800   -3.5419550   -1.7393000  
H     8.5197060   -3.2186750    1.6153770  
H     6.6245140   -1.3115340    2.9959870  
H     4.8834080   -0.6668170    1.5268660  
H     3.3256840   -1.1233490   -3.4103680  
C     1.4703750   -0.0567360   -0.9783240  
C     2.8104070    0.0779870   -0.7849980  
C     2.9851860    1.3263860   -0.0435300  
C     1.6266300    1.8801610    0.1818550  
N     0.7410870    1.0115630   -0.4205680  
C     1.3726060    3.0351150    0.8662000  
C     2.5000700    3.7896870    1.4044980  
O     2.3696780    4.8134150    2.0584670  
C     3.9477970    3.2465810    1.1270000  
O     4.9088000    3.8788460    1.5343820  
C     4.0899460    1.9810740    0.3946280  
H     0.3685780    3.3731330    1.1067670  
H     5.0938630    1.6042310    0.2279210  
H     0.9308710   -0.8457820   -1.4836110  
C    -2.6271010   -1.6348590    0.7135710  
C    -1.3769280   -1.1023770    0.5469220  
C    -1.5474550    0.1657490   -0.1023690  
C    -2.9419400    0.3546040   -0.2933800  
N    -3.5893170   -0.7680670    0.2091520  
C    -3.4846740    1.5180410   -0.8597370  
C    -2.5944480    2.5046860   -1.2611570  
O    -3.0595880    3.6552260   -1.8157520  
C    -1.1919640    2.3323250   -1.1191800  
O    -0.4349540    3.3579140   -1.6432070  
C    -0.6657830    1.1775790   -0.5411360  
H    -0.4471340   -1.5582540    0.8561360  
H    -4.5526110    1.6852370   -0.9480270  
H    -2.2800410    4.2111920   -1.9996540  
H     0.3551620    3.5157850   -1.0929780  
H    -2.9360730   -2.5757450    1.1450800  
C    -6.4854190   -1.5578680    3.4840650  
C    -5.3439820   -1.2664640    2.7833590  
C    -5.7012230   -1.2491600    1.3930890  
C    -7.0892590   -1.5372990    1.3112390  
N    -7.5377780   -1.7240860    2.6026820  
C    -7.7899980   -1.5782810    0.0997470  
C    -7.0732130   -1.3303130   -1.0600920  
O    -7.7027540   -1.3565680   -2.2692230  
C    -5.6794320   -1.0622820   -1.0164340  
O    -5.0999660   -0.8878070   -2.2540460  
C    -4.9920520   -1.0185790    0.1932180  
H    -4.3673960   -1.0789550    3.2058800  
H    -8.4893550   -1.9302260    2.8628210  
H    -8.8536810   -1.7838770    0.0395200  
H    -7.0361510   -1.1317110   -2.9421110  
H    -4.2381860   -0.4485640   -2.1608580  
H    -6.6408670   -1.6600860    4.5487360  
