64


C    -4.7918620   -0.0924680    2.1758980  
C    -4.1516380    0.0081330    0.9554610  
C    -5.0266710   -0.6248870   -0.0081490  
C    -6.1685800   -1.0846420    0.6943560  
N    -5.9970100   -0.7474400    2.0229780  
C    -7.2217940   -1.7665140    0.0707060  
C    -7.1174640   -1.9882870   -1.2929120  
O    -8.1154910   -2.6427350   -1.9576600  
C    -5.9781070   -1.5388460   -2.0120020  
O    -6.0195680   -1.8348220   -3.3638080  
C    -4.9408200   -0.8702500   -1.3924080  
H    -6.6755230   -0.8939100    2.7534220  
H    -8.0974620   -2.1173240    0.6075250  
H    -7.8556750   -2.6778660   -2.8944770  
H    -5.2472230   -1.4431670   -3.7977320  
H    -4.0890540   -0.5146140   -1.9643250  
H    -4.4981030    0.3030090    3.1384300  
C    -0.4320650   -0.5215530    3.2096800  
C     0.3675140    0.3283470    2.4926750  
C    -0.4320540    0.8774780    1.4343670  
C    -1.7315820    0.3238120    1.5782640  
N    -1.7043220   -0.5168110    2.6706660  
C    -2.8272130    0.6123770    0.7364930  
C    -2.5547650    1.5263000   -0.2827290  
O    -3.5355170    1.9000160   -1.1569180  
C    -1.2779450    2.1223980   -0.4371320  
O    -1.2065160    2.9996650   -1.5060030  
C    -0.1884600    1.8129410    0.3877430  
H     1.4151660    0.5075680    2.6736440  
H    -2.4691580   -1.1205020    2.9297150  
H    -3.1151800    2.5736470   -1.7269700  
H    -0.8260990    3.8417470   -1.1764800  
H    -0.2035430   -1.1302940    4.0734360  
C     3.8962560    0.1077710    0.0074330  
C     4.6298560    1.2416860   -0.2290170  
C     3.6945300    2.3385590   -0.1864550  
C     2.3717810    1.6849380    0.0895700  
N     2.4942520    0.3995350    0.2002620  
C     1.1244510    2.4557480    0.1727870  
C     1.2797270    3.7962120   -0.0251090  
O     0.2403620    4.6792890   -0.0103470  
C     2.5838630    4.4757140   -0.2740840  
O     2.5613650    5.7061930   -0.4124750  
C     3.8049890    3.6772730   -0.3461560  
H     5.7029080    1.3251190   -0.3370350  
H     0.6726130    5.5552080   -0.1616300  
H     4.7366620    4.1979360   -0.5448050  
C     6.9039120   -1.8960390   -2.5013160  
C     6.7896080   -3.1506850   -1.9623290  
C     5.8074590   -3.0711390   -0.9190390  
C     5.3648620   -1.7266410   -0.8637110  
N     6.0570700   -1.0321270   -1.8307720  
C     4.3470310   -1.2731570    0.0145350  
C     3.8008320   -2.2457390    0.8718770  
O     2.8869930   -1.8963540    1.8069640  
C     4.2471110   -3.5928010    0.8287870  
O     3.6156350   -4.4097980    1.7483050  
C     5.2326170   -4.0129980   -0.0423040  
H     7.3377110   -4.0298440   -2.2718940  
H     5.8546950   -0.0797670   -2.0950400  
H     2.5802890   -2.7146760    2.2361040  
H     3.8906620   -5.3278710    1.6093390  
H     5.5564770   -5.0519470   -0.0473400  
H     7.5295150   -1.5344230   -3.3049760  
