60


C     5.0688840   -0.3456300    1.9315400  
C     5.9220040   -1.3175630    1.4704010  
C     5.1531330   -2.1656750    0.6111850  
C     3.8190720   -1.6652090    0.6115440  
N     3.7981500   -0.5696690    1.4499150  
C     2.7684620   -2.2905570   -0.1082000  
C     3.1579770   -3.3611800   -0.9372980  
O     2.2604420   -3.9314820   -1.7837540  
C     4.4873180   -3.8540270   -0.9471640  
O     4.6704800   -4.9292990   -1.8004720  
C     5.4762450   -3.2928610   -0.1687200  
H     6.9728980   -1.4147710    1.7060520  
H     3.1006010    0.1654730    1.3663420  
H     2.7225750   -4.6580610   -2.2386270  
H     5.6063200   -5.1777020   -1.8095280  
H     6.4875090   -3.6948840   -0.1804180  
H     5.2603790    0.5134630    2.5586950  
C     0.7594670    1.6287880   -0.1347170  
C    -0.5684390    1.2491600   -0.2015780  
C    -0.5824020   -0.1753600   -0.1036220  
C     0.8691910   -0.5530310   -0.0584840  
N     1.6299390    0.5046770   -0.0528810  
C     1.3390140   -1.9254360   -0.0182600  
C     0.3452220   -2.8606700    0.1240150  
O     0.5828080   -4.1667270    0.2979430  
C    -1.1090240   -2.5327290    0.0800500  
O    -1.8860380   -3.5018240    0.1248050  
C    -1.5767720   -1.1259790    0.0118410  
H    -1.4202390    1.9069370   -0.2462180  
H    -0.3029280   -4.5919040    0.3195990  
C    -0.4582630    5.4517220   -2.0586890  
C    -0.3772180    4.1492830   -1.6565500  
C     0.7639940    4.0334730   -0.7890720  
C     1.3638630    5.3828960   -0.7266380  
N     0.5589430    6.2007310   -1.4989800  
C     2.5024380    5.7062910   -0.0590140  
C     3.2015820    4.6458540    0.6517900  
O     4.2669860    4.8127650    1.2234100  
C     2.5407730    3.2216740    0.6995140  
O     3.0252350    2.4110330    1.4699150  
C     1.3249660    2.9560420   -0.1203710  
H    -1.0348000    3.3526890   -1.9662990  
H     2.9325920    6.7029840   -0.0552080  
H    -1.1764410    5.9196090   -2.7188840  
H     0.7419610    7.1740250   -1.6887310  
C    -2.9954900   -0.8367860    0.0951240  
C    -3.6330160    0.3554010    0.3883810  
C    -5.0466440    0.1206870    0.3809080  
C    -5.2235320   -1.3183080    0.0652140  
N    -3.9587030   -1.8294680   -0.1100860  
C    -6.4292440   -1.9378100   -0.0181090  
C    -7.6353230   -1.1476810    0.2068450  
O    -8.7621200   -1.6175500    0.1505560  
C    -7.4709960    0.3823920    0.5343500  
O    -8.4709050    1.0612210    0.7193110  
C    -6.1186420    0.9350510    0.6044860  
H    -3.1581660    1.2871560    0.6482740  
H    -6.5417710   -2.9929210   -0.2468420  
H    -6.0157320    1.9907180    0.8375490  
H    -3.6997800   -2.8051180   -0.1794440  
