60


C     4.6823330   -0.0354930   -0.0097390  
C     3.8100040    1.0563710    0.0497360  
C     4.5963320    2.2240360    0.1871400  
C     5.9646120    1.8123410    0.2093610  
N     5.9852050    0.4487470    0.0894210  
C     7.0214700    2.7211800    0.3345400  
C     6.6954570    4.0644740    0.4383380  
O     7.6794280    4.9927370    0.5614290  
C     5.3327660    4.4961900    0.4179320  
O     5.1927590    5.8642060    0.5320220  
C     4.2934090    3.6027990    0.2951490  
H     2.7358630    0.9821850   -0.0124070  
H     6.7996370   -0.1470990    0.0513210  
H     8.0629140    2.4181400    0.3518510  
H     7.2518890    5.8655740    0.6179550  
H     4.2532590    6.0993560    0.5071790  
H     3.2620290    3.9481970    0.2811350  
C     0.8373880   -2.1726290   -0.1924850  
C     1.2692250   -3.4572150   -0.3756140  
C     2.7143400   -3.3854400   -0.3980550  
C     3.0186680   -1.9387090   -0.2087220  
N     1.9292430   -1.2433640   -0.0883680  
C     4.4025380   -1.4402930   -0.1599870  
C     5.3734520   -2.4110040   -0.2778120  
O     6.7056980   -2.1337880   -0.2492850  
C     5.0946170   -3.8406830   -0.4654730  
O     6.0557570   -4.6196600   -0.5698420  
C     3.6966460   -4.3020360   -0.5229610  
H     0.6675240   -4.3423110   -0.5258890  
H     7.1367690   -3.0126090   -0.3649070  
H     3.5287210   -5.3671900   -0.6529500  
C    -2.8911530   -3.8005500    1.5931240  
C    -1.5956640   -3.6500870    1.2249470  
C    -1.5486220   -2.3907180    0.5049340  
C    -2.9579740   -1.8849990    0.5493890  
N    -3.7278820   -2.7260490    1.1826120  
C    -3.3655530   -0.6061450   -0.0352670  
C    -2.3425110    0.1087740   -0.6237150  
O    -2.4710710    1.2913390   -1.2166660  
C    -0.9146740   -0.3948960   -0.6955730  
O    -0.1249570    0.3182240   -1.3085470  
C    -0.5351140   -1.7004800   -0.0914470  
H    -0.7623540   -4.3015900    1.4406600  
H    -1.5673970    1.5009430   -1.5553680  
H    -3.3352390   -4.6139210    2.1545830  
C    -4.7445670   -0.1595500    0.0238500  
C    -5.8237670   -0.8061880    0.5726570  
C    -6.9537300    0.0672030    0.3638200  
C    -6.3800370    1.2510370   -0.3518360  
N    -5.1052110    1.1215140   -0.5490120  
C    -7.2053400    2.3671230   -0.7454550  
C    -8.5232170    2.3089840   -0.4452900  
O    -9.4123940    3.2681500   -0.7465970  
C    -9.1300420    1.1269520    0.2757340  
O   -10.3403110    1.1701150    0.5024430  
C    -8.2719830    0.0031710    0.6665690  
H    -5.8177370   -1.7669360    1.0604590  
H    -6.7660820    3.2127480   -1.2628420  
H   -10.2717520    2.9349960   -0.4022680  
H    -8.7426530   -0.8281170    1.1825190  
