60


C     4.7255660    0.0115080    0.0967050  
C     4.6898770   -1.3083610   -0.3686830  
C     6.0129000   -1.8138980   -0.3416680  
C     6.8474230   -0.7667960    0.1546980  
N     6.0463560    0.3132730    0.4064330  
C     8.2299120   -0.9202090    0.3192490  
C     8.7788540   -2.1462950   -0.0177220  
O    10.1152430   -2.3538710    0.1227690  
C     7.9595120   -3.2064670   -0.5136750  
O     8.6668130   -4.3564420   -0.7997970  
C     6.6002680   -3.0567240   -0.6770040  
H     3.8022020   -1.8636060   -0.6303480  
H     6.2969960    1.1916930    0.8434620  
H     8.8689620   -0.1291010    0.6964460  
H    10.3002800   -3.2669610   -0.1585680  
H     8.0606290   -5.0411620   -1.1192480  
H     5.9947830   -3.8770890   -1.0568200  
C     0.5406890    0.2919600   -1.4105540  
C     1.8453030   -0.0361610   -1.2272710  
C     2.3995090    0.8713900   -0.2536820  
C     1.3059790    1.7859220    0.1156440  
N     0.1826550    1.3910920   -0.6226560  
C     1.3883060    2.7663230    1.0562550  
C     2.6747060    3.0044570    1.6730550  
O     2.8762370    3.8464090    2.5366790  
C     3.8964030    2.1416310    1.1937790  
O     5.0055740    2.4855030    1.5800860  
C     3.6628770    0.9659210    0.3085150  
H     2.3793710   -0.7970000   -1.7737140  
H     0.5541730    3.3905080    1.3500990  
H    -0.1942730   -0.1349140   -2.0782720  
C    -3.8576020   -0.3556070   -0.1279820  
C    -2.4785420   -0.2163080   -0.1931520  
C    -2.2383220    1.1642790   -0.4386520  
C    -3.6024440    1.7771110   -0.5160030  
N    -4.5385980    0.8895310   -0.3311900  
C    -3.7970550    3.1830840   -0.7471880  
C    -2.6923090    3.9475940   -0.9025060  
O    -2.7144160    5.2672220   -1.1157360  
C    -1.2895170    3.3719260   -0.8644780  
O    -0.3690630    4.1542380   -1.1013620  
C    -1.1116410    1.9391870   -0.5836100  
H    -1.7366480   -0.9891090   -0.0517940  
H    -4.7977820    3.5977330   -0.7878090  
H    -1.7718680    5.5294510   -1.2277580  
C    -4.2095820   -2.8217790    0.3317640  
C    -4.6339300   -1.5235150    0.1130940  
C    -6.1077360   -1.6202610    0.1868120  
C    -6.3623180   -3.0584550    0.4555780  
N    -5.2357290   -3.7404710    0.5357680  
C    -7.6846840   -3.5841750    0.6001810  
C    -8.7216680   -2.7138160    0.4832950  
O   -10.0091580   -3.0603820    0.5940210  
C    -8.4981260   -1.2482210    0.2112230  
O    -9.4918820   -0.5309790    0.1191130  
C    -7.1176470   -0.7375130    0.0671850  
H    -7.8351720   -4.6398980    0.7960060  
H   -10.5180330   -2.2286460    0.4646330  
H    -6.9665530    0.3177860   -0.1275890  
H    -3.1844280   -3.1736310    0.3573950  
