62


C    -3.9206120   -0.6558820    2.0390450  
C    -4.6744810   -1.7106950    2.4496070  
C    -5.8410110   -1.7633250    1.6067730  
C    -5.7566920   -0.6822230    0.6975960  
N    -4.5602490    0.0075750    0.9783500  
C    -6.7007860   -0.4909500   -0.3156050  
C    -7.7660110   -1.3779110   -0.3810700  
O    -8.7153970   -1.2172660   -1.3461580  
C    -7.8778430   -2.4483690    0.5414600  
O    -8.9891560   -3.2412720    0.3494870  
C    -6.9272750   -2.6508200    1.5269820  
H    -4.4418700   -2.3698150    3.2749970  
H    -6.6536460    0.3221010   -1.0275060  
H    -9.3751400   -1.9217930   -1.2260640  
H    -9.0138750   -3.9381000    1.0219680  
H    -7.0132600   -3.4896600    2.2144510  
H    -3.0004890   -0.2529470    2.4340060  
C    -0.4671130    0.9648820   -0.4209160  
C    -1.5386780    0.2743470    0.0883710  
C    -2.6645580    1.1773000   -0.0016510  
C    -2.0976540    2.4018920   -0.6144160  
N    -0.8218740    2.2833400   -0.8535870  
C    -2.9095670    3.5533680   -0.9247870  
C    -4.2260240    3.4950670   -0.6266740  
O    -5.0981140    4.4915790   -0.8628320  
C    -4.8431320    2.2912980    0.0246930  
O    -6.0294290    2.3599690    0.3323680  
C    -3.9936660    1.0886280    0.3079530  
H    -1.5372960   -0.7247800    0.4977580  
H    -2.4573320    4.4273290   -1.3796180  
H    -5.9571140    4.1847200   -0.5010080  
C     1.3663250   -2.9159390   -1.5780990  
C     0.4528390   -1.9505870   -1.3133870  
C     1.2316880   -0.7879940   -0.9193120  
C     2.6522740   -1.2443890   -1.0176810  
N     2.7123130   -2.4927500   -1.3945050  
C     3.7915460   -0.3695690   -0.7265070  
C     3.4455350    0.9208010   -0.4176170  
O     4.3492450    1.8982850   -0.1754740  
C     2.0451330    1.4041720   -0.2853410  
O     1.8856250    2.5698940    0.0809620  
C     0.8974770    0.4833770   -0.5635950  
H    -0.6221860   -2.0087260   -1.3978220  
H     3.7993750    2.6890220    0.0297270  
H     1.1856670   -3.9316600   -1.9099500  
C     5.5476020   -1.9227450   -1.6274490  
C     5.1573970   -0.8791280   -0.7987710  
C     6.3546880   -0.4780040   -0.0717640  
C     7.4097700   -1.3112590   -0.5223260  
N     6.8833450   -2.1652610   -1.4763660  
C     8.7148290   -1.2448310   -0.0242990  
C     8.9713850   -0.3155100    0.9714210  
O    10.2265730   -0.2018740    1.4963990  
C     7.9302280    0.5170720    1.4517470  
O     8.3275610    1.3885970    2.4505770  
C     6.6417190    0.4445290    0.9544880  
H     7.3984270   -2.8828570   -1.9624580  
H     9.5130120   -1.8880910   -0.3807570  
H    10.1922690    0.5052210    2.1636280  
H     7.5858680    1.9671220    2.6815090  
H     5.8728280    1.1072870    1.3343990  
H     4.9427490   -2.5076210   -2.3003750  
