62


C    -3.5286430    1.7949450   -0.0732250  
C    -3.3017540    3.1523800   -0.1202730  
C    -1.8953600    3.3611590    0.0444810  
C    -1.2974190    2.0855260    0.2117650  
N    -2.3119130    1.1485870    0.1715980  
C     0.0987030    1.8991010    0.3639470  
C     0.8754290    3.0716210    0.3127050  
O     2.2368670    2.9993750    0.4225340  
C     0.2854940    4.3480240    0.1722210  
O     1.2035370    5.3783030    0.1745010  
C    -1.0821960    4.5091430    0.0490820  
H    -4.0625560    3.9129290   -0.2257270  
H    -2.1513460    0.1807710   -0.0729780  
H     2.5879640    3.9057220    0.3550840  
H     0.7542940    6.2232580    0.0250020  
H    -1.5136690    5.5013280   -0.0622700  
C     0.6829760    0.5793150    0.5588300  
C     0.1010360   -0.5822400    1.0162710  
C     1.0999720   -1.6150090    1.0202700  
C     2.3457620   -0.9810470    0.5238600  
N     2.0262900    0.3252050    0.2557730  
C     3.5364750   -1.6371580    0.3499650  
C     3.5822770   -3.0585280    0.7523610  
O     4.6177410   -3.7023590    0.7608750  
C     2.2614940   -3.7492020    1.2419770  
O     2.2886790   -4.9416860    1.5075690  
C     1.0589720   -2.9334080    1.3637850  
H    -0.9035210   -0.6879590    1.3954920  
H     0.1535840   -3.4189360    1.7153210  
H     2.6804550    1.0579210    0.0170930  
C     6.0395270    1.9691780    1.3382400  
C     5.0507240    1.0419250    1.3831200  
C     5.3400320    0.1249420    0.2846140  
C     6.5883760    0.6780410   -0.3217780  
N     6.9892300    1.7555460    0.2961060  
C     7.2437060    0.0392970   -1.4332660  
C     6.6864110   -1.0899010   -1.9262470  
O     7.1811630   -1.7847340   -2.9628790  
C     5.4011760   -1.6497990   -1.3747090  
O     4.8960340   -2.5869890   -1.9813550  
C     4.7550970   -1.0120990   -0.1790110  
H     4.2346420    0.9742450    2.0879780  
H     8.1533170    0.4631600   -1.8439760  
H     6.5425170   -2.5154060   -3.1165390  
H     6.1836990    2.8158990    1.9996110  
C    -4.7512980    1.0376460   -0.2106350  
C    -5.9055060    1.3285100   -0.9070350  
C    -6.8120810    0.2372020   -0.7198670  
C    -6.1559910   -0.7109760    0.1085310  
N    -4.8860380   -0.2254180    0.3728940  
C    -6.7613200   -1.9033950    0.5189190  
C    -8.0516830   -2.1506700    0.0747570  
O    -8.6894920   -3.2962900    0.4467210  
C    -8.7179710   -1.2222340   -0.7711860  
O    -9.9908810   -1.6174800   -1.1333560  
C    -8.1178120   -0.0442150   -1.1725830  
H    -6.0582890    2.2032080   -1.5243590  
H    -4.3297200   -0.5271740    1.1600000  
H    -6.2659140   -2.6293610    1.1554130  
H    -9.5689970   -3.2862490    0.0309860  
H   -10.3878990   -0.9471230   -1.7087880  
H    -8.6483630    0.6527700   -1.8181440  
