62


C     1.7671230   -1.2703980   -1.2407650  
C     1.9329080   -2.5665360   -0.8467730  
C     3.1268540   -2.6147690   -0.0506260  
C     3.6430190   -1.2932970    0.0150000  
N     2.8007490   -0.4750490   -0.7407940  
C     4.7799370   -0.9669350    0.7713270  
C     5.4240350   -2.0001370    1.4402850  
O     6.5340540   -1.7326750    2.1901670  
C     4.9363530   -3.3282010    1.3618130  
O     5.6873700   -4.2459050    2.0749400  
C     3.8002380   -3.6410360    0.6364530  
H     1.2536650   -3.3808360   -1.0585900  
H     5.1419810    0.0481860    0.8921020  
H     6.8093300   -2.5708100    2.5999840  
H     5.2405660   -5.1050830    2.0601160  
H     3.4291200   -4.6637270    0.6078460  
H     0.9977560   -0.8179430   -1.8480170  
C    -0.2414250    2.6809160   -0.0487480  
C     0.4322270    1.4643760   -0.1601530  
C     1.7505830    1.7487810   -0.5874430  
C     1.8603510    3.1645630   -0.7262470  
N     0.6430740    3.7010720   -0.3887240  
C     3.0444730    3.7918440   -1.1269680  
C     4.1281400    2.9723270   -1.4084390  
O     5.3025740    3.5208400   -1.8164690  
C     4.0433870    1.5526520   -1.2994550  
O     5.1970820    0.9000790   -1.6696570  
C     2.8769560    0.9329620   -0.8758990  
H    -0.0028430    0.5005260    0.0483040  
H     0.4090800    4.6809420   -0.3209040  
H     3.1437190    4.8675780   -1.2223770  
H     5.9322710    2.7880590   -1.9420710  
H     5.1514580   -0.0359550   -1.4093390  
C    -3.5828980   -0.1179780    0.3978200  
C    -4.5352800    0.7076110    0.9400810  
C    -3.9339410    2.0209650    1.0061730  
C    -2.5572240    1.8229340    0.4725690  
N    -2.3659250    0.5957170    0.1049350  
C    -1.5990210    2.9316510    0.3624320  
C    -2.1012260    4.1703980    0.6802730  
O    -1.3625150    5.3103180    0.5985130  
C    -3.4635060    4.3963240    1.1905000  
O    -3.7943790    5.5587310    1.4762440  
C    -4.3761440    3.2518210    1.3485960  
H    -5.5209640    0.4442630    1.2953640  
H    -1.9757220    6.0145480    0.9132620  
H    -5.3772690    3.4640990    1.7123590  
C    -6.9277780   -2.7825770   -0.8624300  
C    -6.1813270   -1.7163780   -0.4633670  
C    -4.8176770   -2.1685570   -0.3157690  
C    -4.8259220   -3.6005890   -0.6893150  
N    -6.1397160   -3.9174450   -0.9764240  
C    -3.7288310   -4.4007330   -0.7765900  
C    -2.4360270   -3.8105880   -0.4819070  
O    -1.3742790   -4.3957530   -0.6480520  
C    -2.4092130   -2.3521740    0.0984240  
O    -1.3790610   -1.9791050    0.6263510  
C    -3.6518310   -1.5233110    0.0482180  
H    -6.5470420   -0.7136980   -0.3122030  
H    -3.7687480   -5.4345430   -1.1057460  
H    -7.9860100   -2.8348160   -1.0812960  
H    -6.4482690   -4.8086720   -1.3324500  
