62


C     2.6978420   -1.3054970   -1.3301880  
C     1.4535910   -0.9527750   -0.8880500  
C     1.5616570    0.3468540   -0.2784940  
C     2.9152080    0.7484090   -0.3842220  
N     3.5903480   -0.2811870   -1.0293770  
C     3.3964470    1.9744180    0.0797740  
C     2.4763440    2.8225230    0.6757810  
O     2.8837080    4.0284890    1.1613860  
C     1.1133990    2.4467640    0.8019380  
O     0.3418440    3.3985580    1.4399580  
C     0.6289430    1.2256230    0.3337810  
H     0.5572240   -1.5463100   -0.9992100  
H     4.4366900    2.2673280   -0.0050780  
H     2.1078160    4.4577790    1.5616880  
H    -0.5406360    3.0405930    1.6207200  
H     3.0529570   -2.1905220   -1.8373320  
C    -1.2630730   -0.3134790    1.0286970  
C    -0.7891930    0.8463950    0.4875990  
C    -1.9663620    1.6015360    0.0545910  
C    -3.1442460    0.7696970    0.3971150  
N    -2.6546100   -0.3615530    1.0077870  
C    -4.4392090    1.1218420    0.1234380  
C    -4.6753860    2.4376540   -0.4936320  
O    -5.7947730    2.8690560   -0.7163190  
C    -3.4287260    3.3247340   -0.8582990  
O    -3.6298670    4.4079690   -1.3806610  
C    -2.0946440    2.8189100   -0.5418810  
H    -1.2421540    3.4353930   -0.8054530  
H    -0.7034540   -1.1325310    1.4600700  
H    -3.2056600   -1.1845430    1.2059540  
C    -6.7201770    0.7472290    1.0568000  
C    -7.6081160   -0.2603150    1.2199090  
C    -7.0305810   -1.4518520    0.6378160  
C    -5.7049770   -1.0480890    0.1031240  
N    -5.5477390    0.3005720    0.4135960  
C    -4.8762890   -1.8841310   -0.5800850  
C    -5.2864950   -3.2758650   -0.7685680  
O    -4.6008380   -4.0898870   -1.3671470  
C    -6.6630100   -3.7313270   -0.1665400  
O    -7.0050290   -4.8967980   -0.2837480  
C    -7.4864550   -2.7245910    0.5097070  
H    -8.5773940   -0.1866130    1.6912840  
H    -3.9485750   -1.5659710   -1.0423430  
H    -8.4567270   -3.0373840    0.8834980  
H    -6.7941320    1.7858440    1.3401670  
C     5.4939080    0.2063590   -2.4957130  
C     6.8475120    0.0336920   -2.4395320  
C     7.1538800   -0.5965850   -1.1820010  
C     5.9305670   -0.7895730   -0.4957600  
N     4.9276270   -0.2910670   -1.3218550  
C     5.8422570   -1.3809130    0.7675440  
C     7.0292320   -1.7900370    1.3565550  
O     7.0099700   -2.3739610    2.5893370  
C     8.2700870   -1.6081010    0.6889350  
O     9.3590670   -2.0680710    1.4048470  
C     8.3450850   -1.0219200   -0.5611930  
H     7.5529750    0.3218110   -3.2069270  
H     4.9002730   -1.5217070    1.2856040  
H     7.9309870   -2.5803340    2.8246990  
H    10.1705230   -1.9018070    0.9029390  
H     9.3074600   -0.8935560   -1.0528330  
H     4.8556940    0.6368170   -3.2534240  
