62


C    -6.3510730    3.5074610   -0.1731340  
C    -7.5637600    2.8709030   -0.1465430  
C    -7.2993990    1.4608730   -0.0819580  
C    -5.8889650    1.3025470   -0.0657930  
N    -5.3380930    2.5664440   -0.1193630  
C    -5.2517660    0.0418010   -0.0421500  
C    -6.0943790   -1.0725530   -0.0192390  
O    -5.5555980   -2.3207460    0.0604260  
C    -7.5047790   -0.9290230   -0.0253430  
O    -8.1847710   -2.1334550    0.0174250  
C    -8.1128680    0.3113360   -0.0571600  
H    -8.5337040    3.3481660   -0.1740110  
H    -4.3506830    2.7636750   -0.1613080  
H    -6.2856190   -2.9555850   -0.0448010  
H    -9.1240210   -1.9786290   -0.1608450  
H    -9.1980140    0.3930450   -0.0616480  
H    -6.1158940    4.5612660   -0.2229160  
C    -1.9833340    1.5723240    2.5591210  
C    -3.1881990    1.2660400    2.0135960  
C    -2.9381150    0.4519910    0.8370430  
C    -1.4685080    0.3000090    0.7521400  
N    -0.9494250    0.9935310    1.8293430  
C    -0.7858180   -0.4072300   -0.1985940  
C    -1.6036290   -1.0836990   -1.2163000  
O    -1.1380340   -1.8310040   -2.0597520  
C    -3.1605300   -0.8553300   -1.2078100  
O    -3.7992870   -1.2622110   -2.1596720  
C    -3.7853100   -0.1166150   -0.0768590  
H    -4.1572570    1.5579580    2.3888010  
H    -1.7562290    2.1590100    3.4394980  
H     0.0367810    1.1362060    1.9856090  
C     1.9395030   -2.2436520    2.7615730  
C     3.1218940   -2.0084530    2.1086370  
C     2.7952700   -1.3296980    0.8866140  
C     1.3863860   -1.1709560    0.8571740  
N     0.8930660   -1.7255920    2.0219390  
C     0.6866000   -0.5486370   -0.1980130  
C     1.4641530   -0.0836110   -1.2597460  
O     0.8674460    0.5584860   -2.2975650  
C     2.8737590   -0.2427100   -1.2671310  
O     3.4937070    0.2614590   -2.3843530  
C     3.5438560   -0.8501570   -0.2107060  
H     4.1073650   -2.2769910    2.4618250  
H    -0.0871500   -1.8636990    2.2163230  
H     1.5485640    0.7324090   -2.9703170  
H     4.4416730    0.0558140   -2.3510800  
H     1.7530130   -2.7311300    3.7079510  
C     5.6301510   -2.2368110   -0.2177290  
C     6.9723860   -2.0748870   -0.1156430  
C     7.2349370   -0.6517530   -0.0752530  
C     5.9098500    0.0125880   -0.1559200  
N     4.9606140   -1.0047430   -0.2677320  
C     5.7220680    1.3568750   -0.1277940  
C     6.8979630    2.2179450   -0.0123440  
O     6.8264840    3.4362320    0.0343700  
C     8.3139510    1.5363830    0.0536090  
O     9.3070780    2.2419540    0.1349780  
C     8.3809730    0.0728740    0.0189590  
H     7.7120570   -2.8617320   -0.0814670  
H     4.7433240    1.8221380   -0.1736040  
H     9.3625310   -0.3877230    0.0781230  
H     5.0443240   -3.1444440   -0.2761490  
