62


C     4.7864600    1.8656410    2.3346120  
C     6.0474050    1.5867040    1.8751720  
C     5.9219070    0.5113820    0.9338840  
C     4.5410190    0.1825100    0.8576190  
N     3.8791090    1.0184720    1.7312940  
C     4.0280380   -0.8594270    0.0471980  
C     4.9900310   -1.5677730   -0.6737790  
O     4.6040630   -2.6242570   -1.4795170  
C     6.3681820   -1.2544270   -0.6173550  
O     7.1519300   -2.0686930   -1.4157490  
C     6.8464460   -0.2249050    0.1686220  
H     6.9606190    2.0792560    2.1791470  
H     2.8779600    1.0413440    1.8516840  
H     5.4128240   -2.9725710   -1.8980260  
H     8.0831980   -1.8205330   -1.3207860  
H     7.9105730   -0.0014180    0.2032290  
H     4.4524900    2.6015790    3.0524370  
C     0.3817490    1.7058470   -0.5976780  
C     1.6717390    1.2264290   -0.4968970  
C     1.5964180   -0.1667860   -0.1646020  
C     0.2218250   -0.4910490   -0.0707370  
N    -0.4916770    0.6642260   -0.3039130  
C    -0.2733360   -1.8044770    0.1346340  
C     0.7187310   -2.7981880    0.2417310  
O     0.3929850   -4.0825660    0.4807010  
C     2.1066610   -2.4826910    0.1784800  
O     2.9209630   -3.5779870    0.3663710  
C     2.5816790   -1.1834810    0.0108280  
H     2.5691340    1.8122630   -0.6343730  
H    -1.4836880    0.6704230   -0.4970330  
H     1.2438950   -4.5660350    0.5012130  
H     3.6316460   -3.5418370   -0.3116380  
C    -1.6958890   -2.0826840    0.1875730  
C    -2.7029990   -1.2613970    0.6423130  
C    -3.9306850   -1.9862300    0.4364110  
C    -3.4895490   -3.2708090   -0.2007380  
N    -2.1984260   -3.3282840   -0.3371710  
C    -4.4396100   -4.2808000   -0.5937980  
C    -5.7473500   -4.0408010   -0.3428590  
O    -6.7442530   -4.8860460   -0.6413480  
C    -6.2198450   -2.7615500    0.3163880  
O    -7.4343430   -2.6473120    0.4964650  
C    -5.2404670   -1.7428280    0.6913800  
H    -2.6034890   -0.3190000    1.1632730  
H    -4.0969620   -5.1970820   -1.0613620  
H    -7.5611420   -4.4281730   -0.3361650  
H    -5.6158620   -0.8339880    1.1517290  
C     0.4800090    3.8857980   -1.8475590  
C    -0.1006330    3.0293390   -0.9549220  
C    -1.2734790    3.7231330   -0.4248910  
C    -1.3157590    5.0474910   -1.0955360  
N    -0.2113250    5.0882200   -1.9229520  
C    -2.2730500    5.9861460   -0.8852270  
C    -3.3337810    5.6956890    0.0753050  
O    -4.2397510    6.4753420    0.3254690  
C    -3.2913670    4.3138170    0.8233330  
O    -4.1571800    4.0547220    1.6434910  
C    -2.2051060    3.3809290    0.5027840  
H    -2.2860480    6.9481290   -1.3884050  
H    -2.1817860    2.4396110    1.0422780  
H     1.3579080    3.7251080   -2.4588030  
H    -0.0027050    5.8355630   -2.5664320  
