64


C     0.7814280   -1.0433430    0.6396450  
C     2.1296430   -1.2002140    0.5397350  
C     2.6727920    0.0264110    0.0065040  
C     1.5863620    0.9121280   -0.1960400  
N     0.4205150    0.2407610    0.2097910  
C     1.7524520    2.1911920   -0.7387450  
C     3.0494030    2.5903830   -1.0326660  
O     3.2666140    3.8273910   -1.5547260  
C     4.1528240    1.7267610   -0.8161900  
O     5.3566420    2.2715450   -1.1870140  
C     3.9940790    0.4335100   -0.3135710  
H     2.6876800   -2.0770750    0.8355630  
H     0.9309790    2.8604870   -0.9620520  
H     4.2263100    3.9149990   -1.6951030  
H     6.0814770    1.6957890   -0.8838280  
H     0.0206350   -1.7072620    1.0214310  
C    -0.8811020    0.7070660    0.2139030  
C    -2.0468400    0.0041700    0.0847780  
C    -3.1339160    0.9405330    0.2291550  
C    -2.5106540    2.2652730    0.4478390  
N    -1.1335440    2.0713370    0.3837670  
C    -3.1871650    3.4209600    0.6486980  
C    -4.6450620    3.3701080    0.6209500  
O    -5.3461800    4.3610880    0.7537770  
C    -5.3394930    1.9746170    0.4083960  
O    -6.5534920    1.9218410    0.4965670  
C    -4.4949260    0.7792050    0.1692940  
H    -2.1365450   -1.0424710   -0.1617670  
H    -2.7041750    4.3824180    0.7934110  
H    -0.4695020    2.6967320    0.8181450  
C    -4.2991530   -2.9812310    2.5114340  
C    -5.1494960   -3.7254860    1.7367550  
C    -5.5761030   -2.8873390    0.6510070  
C    -4.9375950   -1.6315700    0.8199190  
N    -4.1593610   -1.7208290    1.9569920  
C    -5.1407710   -0.5330850   -0.0435700  
C    -6.0170520   -0.7458950   -1.1097630  
O    -6.2281690    0.2478220   -2.0158640  
C    -6.6580430   -1.9977560   -1.2960440  
O    -7.4793620   -2.0395880   -2.4091920  
C    -6.4513130   -3.0615590   -0.4389650  
H    -5.4423530   -4.7505860    1.9183530  
H    -3.6442490   -0.9541770    2.3597140  
H    -6.9334830   -0.0534180   -2.6144870  
H    -8.0013580   -2.8550770   -2.3919530  
H    -6.9563050   -4.0108820   -0.6066870  
H    -3.7710500   -3.2420750    3.4178670  
C     7.8832190    0.8114410    1.9393770  
C     6.6261890    1.0258760    1.4333170  
C     6.3041240   -0.1083090    0.6054720  
C     7.4201700   -0.9853920    0.6581010  
N     8.3636560   -0.3969730    1.4752470  
C     7.4551950   -2.2117040   -0.0158310  
C     6.3394330   -2.5567500   -0.7603130  
O     6.3187920   -3.7352720   -1.4447460  
C     5.2135360   -1.6932320   -0.8356240  
O     4.2097260   -2.1770690   -1.6450070  
C     5.1656320   -0.4706150   -0.1675080  
H     5.9939540    1.8758510    1.6481830  
H     9.2622300   -0.7930350    1.7031010  
H     8.3053190   -2.8848880    0.0234990  
H     5.4656840   -3.7812640   -1.9109190  
H     3.4633830   -1.5545740   -1.6433440  
H     8.4791850    1.4214920    2.6032280  
