62


C     4.9998600   -0.9147330   -0.0587010  
C     5.8365340   -1.9870480    0.1637640  
C     7.1804820   -1.5543000   -0.0862220  
C     7.1116720   -0.1868220   -0.4620900  
N     5.7812640    0.1894240   -0.4034950  
C     8.2443600    0.5638550   -0.7952290  
C     9.4750370   -0.0741860   -0.7420750  
O    10.6124360    0.6122640   -1.0621370  
C     9.5657850   -1.4361020   -0.3536880  
O    10.8591580   -1.9280220   -0.3398950  
C     8.4438770   -2.1756650   -0.0254810  
H     5.5225620   -2.9602090    0.5164780  
H     5.4029080    1.0141090   -0.8451590  
H     8.1954020    1.6077010   -1.0887520  
H    11.3563070   -0.0067510   -0.9650090  
H    10.8443040   -2.8628240   -0.0874070  
H     8.5404470   -3.2195490    0.2674970  
C     2.6454170   -1.7830150   -0.3340880  
C     3.5515480   -0.8079290    0.0207070  
C     2.7713410    0.3184690    0.4898780  
C     1.4067540   -0.0481930    0.3960900  
N     1.3611660   -1.3414040   -0.0863610  
C     0.3444430    0.8075480    0.7584050  
C     0.7093990    2.0701610    1.2305010  
O    -0.2566670    2.9533220    1.6171500  
C     2.0723420    2.4460980    1.3462530  
O     2.2496690    3.7197580    1.8508360  
C     3.1002030    1.5924310    0.9929440  
H     0.5185800   -1.8070720   -0.3866780  
H     0.1967480    3.7546820    1.9334400  
H     3.1933760    3.8878110    1.9902820  
H     4.1372380    1.8958390    1.1155930  
H     2.8239980   -2.7616290   -0.7558760  
C    -1.6031630   -0.7525990    1.1969930  
C    -1.0629550    0.3806850    0.6656000  
C    -2.1540470    1.0561700   -0.0382180  
C    -3.3607450    0.2158280    0.1426010  
N    -2.9556010   -0.8707790    0.8820370  
C    -4.5957390    0.4897400   -0.3885380  
C    -4.7306680    1.7553570   -1.1383670  
O    -5.8051510    2.1780820   -1.5285940  
C    -3.4449600    2.6160460   -1.3952990  
O    -3.5344460    3.6103530   -2.0961460  
C    -2.1858850    2.1945220   -0.7755580  
H    -1.3107230    2.8156450   -0.9282320  
H    -1.1267070   -1.5072930    1.8092010  
H    -3.5841830   -1.5593800    1.2691370  
C    -6.7277620   -1.5295050    3.0200640  
C    -5.8444060   -0.7612910    2.3313910  
C    -6.2333180   -0.8992140    0.9314340  
C    -7.4157550   -1.8108410    0.9789840  
N    -7.6934540   -2.1793820    2.2006880  
C    -8.1376340   -2.1852530   -0.2083410  
C    -7.7032670   -1.6897710   -1.3895770  
O    -8.2727550   -1.9593670   -2.5739500  
C    -6.4765330   -0.8193660   -1.4856600  
O    -6.0672690   -0.5564060   -2.6099720  
C    -5.7644400   -0.3834250   -0.2375040  
H    -5.0599370   -0.1332820    2.7299240  
H    -8.9987010   -2.8402770   -0.1366950  
H    -7.7129290   -1.5100060   -3.2446180  
H    -6.7787840   -1.6783090    4.0925970  
