60


C     5.1736450   -0.3833660   -2.3244980  
C     6.3234720   -1.0673420   -2.5795780  
C     6.9439420   -1.3567200   -1.3140540  
C     6.1189250   -0.8021740   -0.3053520  
N     5.0287450   -0.1936770   -0.9449000  
C     6.3961510   -0.9590070    1.0561170  
C     7.5439870   -1.6595720    1.4025640  
O     7.8578540   -1.8289560    2.7208950  
C     8.3906150   -2.2017760    0.4055130  
O     9.4923970   -2.8696570    0.9037870  
C     8.1009200   -2.0616720   -0.9416610  
H     6.6904930   -1.3419660   -3.5591330  
H     5.7708070   -0.5512020    1.8388740  
H     8.6884720   -2.3336480    2.7564040  
H    10.0307980   -3.1988170    0.1690370  
H     8.7521290   -2.5019890   -1.6942440  
H     4.4228530    0.0008110   -2.9959650  
C     0.8026650   -0.5927130   -1.6960540  
C     0.2605170    0.2979260   -0.8176540  
C     1.4283550    0.8824570   -0.1288540  
C     2.5966240    0.2030020   -0.7580060  
N     2.2175920   -0.6537730   -1.6645340  
C     3.9638160    0.4893960   -0.3441990  
C     4.1265860    1.4196720    0.6471080  
O     5.3270660    1.8232490    1.0996150  
C     2.9707810    2.0699450    1.3170180  
O     3.2022060    2.8940110    2.2035230  
C     1.5898430    1.7506470    0.8844760  
H     5.1292130    2.4789070    1.8047810  
H     0.7818340    2.2536520    1.4058170  
H     0.2721150   -1.2170790   -2.4055190  
C    -2.1128820   -0.4109130   -0.4747320  
C    -1.1507690    0.5472220   -0.5702010  
C    -1.8295270    1.8331720   -0.4184600  
C    -3.2666630    1.5374170   -0.2168060  
N    -3.3891770    0.1259800   -0.2659070  
C    -4.2110880    2.4909400   -0.0454300  
C    -3.7942210    3.9001970   -0.0636470  
O    -4.5848440    4.8142900    0.0984550  
C    -2.2852340    4.2308790   -0.3099910  
O    -1.9225480    5.3943930   -0.3554800  
C    -1.3607610    3.1043410   -0.4799130  
H    -5.2560690    2.2563550    0.0996970  
H    -0.3170130    3.3360470   -0.6633400  
H    -1.9868620   -1.4823890   -0.5133090  
C    -4.5154530   -0.6532090   -0.1265470  
C    -4.6020080   -2.0281280   -0.2158980  
C    -5.9808440   -2.3206960    0.0106280  
C    -6.6211290   -0.9734300    0.2280110  
N    -5.7450940   -0.0075510    0.1433700  
C    -8.0214540   -0.8301780    0.4918200  
C    -8.7577280   -1.9682260    0.5372630  
O   -10.0677800   -2.0067410    0.7702620  
C    -8.1448700   -3.3490270    0.3211520  
O    -8.9275850   -4.3001400    0.3893330  
C    -6.7231740   -3.4625920    0.0569320  
H    -3.8215250   -2.7458730   -0.4176190  
H    -8.4566710    0.1507610    0.6453730  
H   -10.3021060   -2.9657610    0.7389950  
H    -6.3153220   -4.4570760   -0.0915610  
