62


C     3.0811030   -2.1169790   -2.0640090  
C     4.1132040   -3.0132870   -2.0674090  
C     4.8957660   -2.7658780   -0.8891730  
C     4.2740610   -1.6943300   -0.1963110  
N     3.1599670   -1.3024700   -0.9347570  
C     4.7577250   -1.2045620    1.0281980  
C     5.9035360   -1.7945530    1.5458890  
O     6.4124740   -1.3565190    2.7321780  
C     6.5458250   -2.8559620    0.8568480  
O     7.6729400   -3.3336620    1.4963630  
C     6.0533620   -3.3478350   -0.3388650  
H     4.2994610   -3.7619140   -2.8252560  
H     4.2502900   -0.4332660    1.5983070  
H     7.1908940   -1.9045200    2.9328690  
H     8.0326520   -4.0856960    1.0031630  
H     6.5549340   -4.1725340   -0.8415720  
H     2.2880290   -1.9545520   -2.7793150  
C    -1.2471170   -1.0837320   -0.4146940  
C     0.0616950   -1.5259160   -0.6099360  
C     0.8985340   -0.3881040   -0.5486920  
C     0.0591800    0.7493370   -0.3218360  
N    -1.2262450    0.2963030   -0.2718130  
C     0.5568890    2.0697470   -0.2109530  
C     1.9497170    2.1874250   -0.2513270  
O     2.5383020    3.3911480   -0.0624810  
C     2.8059440    1.0695740   -0.4938600  
O     4.1346200    1.4094290   -0.5785450  
C     2.3012950   -0.2080340   -0.6591950  
H     0.3677810   -2.5500470   -0.7675870  
H    -2.0094270    0.8082490    0.1162610  
H     3.5007000    3.2518960   -0.1358680  
H     4.6958900    0.6234100   -0.4538820  
C    -2.4824610   -1.7882150   -0.3274340  
C    -2.7555420   -3.1333440   -0.4488720  
C    -4.1660140   -3.2614410   -0.2595520  
C    -4.6402990   -1.8519080   -0.0197700  
N    -3.6578250   -0.9994040   -0.0609330  
C    -6.0274440   -1.5548060    0.2196230  
C    -6.8941600   -2.5948020    0.2199440  
O    -8.2107950   -2.4829440    0.4259340  
C    -6.4479190   -4.0286800   -0.0195950  
O    -7.3402780   -4.8842400    0.0069590  
C    -5.0445940   -4.3049900   -0.2580640  
H    -2.0545470   -3.9321890   -0.6460540  
H    -6.3479080   -0.5329570    0.3895360  
H    -8.5471980   -3.4090450    0.3623050  
H    -4.7561630   -5.3379840   -0.4248180  
C    -2.8403410    3.0302730    2.4636440  
C    -3.1077860    4.3140840    2.1366540  
C    -2.1746320    4.6367970    1.0632400  
C    -1.3702390    3.3810550    0.8830030  
N    -1.7778680    2.4493020    1.6966760  
C    -0.2991390    3.2722580   -0.0968190  
C    -0.1393420    4.3589630   -0.9115400  
O     0.7345950    4.4121120   -1.9229370  
C    -0.9421050    5.6240620   -0.7599850  
O    -0.7041930    6.5426410   -1.5429950  
C    -1.9737800    5.7168960    0.2864280  
H    -3.8548450    4.9723180    2.5575730  
H     0.6282870    5.3102690   -2.3100760  
H    -2.5310230    6.6457300    0.3595020  
H    -3.3248620    2.4143260    3.2114340  
