60


C    -6.9877580   -0.9340100    1.9347120  
C    -7.0008220   -2.2875520    1.7253520  
C    -5.7594800   -2.6296830    1.0904120  
C    -5.0304280   -1.4195540    0.9423590  
N    -5.7950120   -0.4056040    1.4737670  
C    -3.7522850   -1.3831970    0.3556010  
C    -3.2066280   -2.5922450   -0.0755870  
O    -1.9647390   -2.6203020   -0.6584270  
C    -3.9213230   -3.8037150    0.0867210  
O    -3.2354340   -4.9090200   -0.3810150  
C    -5.1809640   -3.8377610    0.6558590  
H    -7.7991960   -2.9651020    1.9937660  
H    -5.5602980    0.5749980    1.4462700  
H    -1.8136690   -3.5427410   -0.9336620  
H    -3.8230490   -5.6790540   -0.3897850  
H    -5.7068930   -4.7827360    0.7716680  
H    -7.7324530   -0.2895090    2.3795040  
C    -1.6988410   -0.0218410    0.6413200  
C    -1.1576930    1.1652240    0.2452020  
C    -2.2130730    1.8641930   -0.4942360  
C    -3.3814750    0.9494070   -0.5147600  
N    -3.0176170   -0.1777510    0.2180830  
C    -4.5515810    1.2065260   -1.1565060  
C    -4.6909170    2.4752350   -1.8650120  
O    -5.7043490    2.7929770   -2.4692550  
C    -3.4742250    3.4666310   -1.8414700  
O    -3.5669890    4.5322150   -2.4284770  
C    -2.2585360    3.0666750   -1.1195930  
H    -5.3775180    0.5047840   -1.1916880  
H    -1.4321880    3.7670760   -1.1026850  
H    -1.2510630   -0.8047040    1.2371990  
C     2.4802260   -1.1283800   -0.3523260  
C     3.4347030   -0.2462900    0.0924830  
C     2.7126520    0.9699820    0.4765500  
C     1.2755840    0.6861190    0.2535700  
N     1.2116760   -0.6089150   -0.2258120  
C     0.2380210    1.5580460    0.4594700  
C     0.6005930    2.9076750    0.9233160  
O    -0.2271610    3.7742280    1.1577880  
C     2.1210500    3.2471220    1.1231000  
O     2.4202960    4.3784140    1.4726410  
C     3.1163560    2.2049630    0.8801580  
H     4.1540830    2.4586470    1.0480190  
H     2.6313820   -2.1105610   -0.7728700  
H     0.3633860   -1.0552220   -0.5485730  
C     5.8082640   -2.7409390   -2.6096460  
C     7.0662840   -2.5513770   -2.1548820  
C     6.9265140   -1.6544490   -1.0122760  
C     5.4551680   -1.3871940   -0.9285970  
N     4.8143650   -2.0272170   -1.8631260  
C     4.8726190   -0.5095510    0.0901560  
C     5.7622910   -0.0070470    1.0013100  
O     5.4040790    0.7488790    2.0582440  
C     7.2324060   -0.2611860    0.9375470  
O     7.9406860    0.2438030    1.8109560  
C     7.7869270   -1.1130400   -0.1323970  
H     7.9889060   -2.9643060   -2.5382630  
H     6.2479790    0.9587130    2.5188990  
H     8.8614910   -1.2683630   -0.1395600  
H     5.4823230   -3.3477870   -3.4457100  
