62


C     4.9290700   -0.7394940    2.4819500  
C     3.6733710   -0.8709380    1.9528180  
C     3.7822100   -1.7130930    0.7947970  
C     5.1534130   -2.0701750    0.6791360  
N     5.8298210   -1.4528740    1.7099690  
C     5.6480280   -2.9184560   -0.3171110  
C     4.7266120   -3.4443470   -1.2065920  
O     5.1295000   -4.2913490   -2.1953780  
C     3.3469010   -3.1270570   -1.1076590  
O     2.5663960   -3.7208470   -2.0836970  
C     2.8485970   -2.2482680   -0.1377250  
H     2.7822140   -0.3891810    2.3226120  
H     6.8101520   -1.5697150    1.9104240  
H     6.6972870   -3.1835810   -0.4004020  
H     4.3128020   -4.5365290   -2.6709860  
H     1.8181350   -4.1676750   -1.6356410  
H     5.2657930   -0.1886150    3.3490650  
C     0.7184880    1.6183270    0.0000220  
C    -0.5978790    1.2001440   -0.0409820  
C    -0.5624710   -0.2289250   -0.0708280  
C     0.9052060   -0.5574580   -0.0485240  
N     1.6340360    0.5162510   -0.0049680  
C     1.4039840   -1.9296760   -0.0884180  
C     0.4245210   -2.8754540   -0.1343760  
O     0.6842380   -4.2058140   -0.2216910  
C    -1.0487100   -2.5977140   -0.1331380  
O    -1.7815520   -3.5825900   -0.2415520  
C    -1.5349060   -1.2013240   -0.0655270  
H    -1.4810630    1.8137650    0.0584700  
H    -0.2131130   -4.6223420   -0.2488180  
C    -2.9607370   -0.9339340   -0.0342510  
C    -3.6396490    0.1113790   -0.6070280  
C    -5.0276700   -0.0810290   -0.2600120  
C    -5.0244260   -1.3256240    0.5749200  
N    -3.8307580   -1.8227600    0.6989280  
C    -6.2397700   -1.8511770    1.1450420  
C    -7.3931800   -1.1935640    0.8827540  
O    -8.5979450   -1.5690650    1.3372660  
C    -7.4287010    0.0544010    0.0314300  
O    -8.5272500    0.5818430   -0.1486140  
C    -6.1784480    0.5801930   -0.5282440  
H    -3.2395040    0.8854100   -1.2453950  
H    -6.2105260   -2.7493650    1.7515930  
H    -9.2263110   -0.9012230    0.9812770  
H    -6.2431940    1.4839390   -1.1265260  
C    -0.8613970    5.2164480   -1.9816660  
C     0.0985770    6.0970630   -1.5564220  
C     1.0095490    5.3569000   -0.7318000  
C     0.5399180    4.0223030   -0.6811810  
N    -0.6055630    3.9687470   -1.4426210  
C     1.2212700    2.9752190   -0.0034540  
C     2.4143670    3.3487180    0.6530130  
O     3.0945150    2.4519710    1.3972600  
C     2.8820100    4.6887960    0.6145300  
O     4.0506690    4.8803870    1.3259240  
C     2.2024500    5.6855670   -0.0568410  
H     0.1544570    7.1481050   -1.8037210  
H    -1.0766490    3.1115880   -1.6896510  
H     3.9038290    2.8885880    1.7183450  
H     4.3565000    5.7923970    1.2137920  
H     2.5849770    6.7042880   -0.0632300  
H    -1.7206900    5.3717940   -2.6183030  
