62


C     1.5236820    2.8652810   -0.5030130  
C     2.5272470    3.0753990   -1.4282410  
C     3.3089240    1.8763280   -1.5077270  
C     2.7251050    0.9432520   -0.6133250  
N     1.6359290    1.5581040   -0.0337480  
C     3.2442930   -0.3490170   -0.3893850  
C     4.3928710   -0.6903420   -1.1099090  
O     4.9251620   -1.9363460   -0.9778240  
C     4.9767210    0.2238130   -2.0215600  
O     6.0893850   -0.2788090   -2.6710140  
C     4.4539960    1.4880340   -2.2308260  
H     2.6666390    3.9770400   -2.0091150  
H     1.1578670    1.2128680    0.7841030  
H     5.7331550   -1.9639920   -1.5192690  
H     6.4849460    0.4150230   -3.2186910  
H     4.9275080    2.1669810   -2.9374180  
C    -0.8449480   -2.1391620   -0.0079780  
C     0.2544590   -1.4618020   -0.4832490  
C     1.3021130   -1.6731860    0.4886200  
C     0.6584870   -2.5116450    1.5395960  
N    -0.5877660   -2.7651390    1.2649900  
C     1.3861450   -2.9589450    2.7000790  
C     2.6922520   -2.6188070    2.7847970  
O     3.5010800   -2.9823990    3.7920210  
C     3.3710090   -1.7502920    1.7508550  
O     4.5352150   -1.4318010    1.9769770  
C     2.6061840   -1.2763120    0.5630130  
H     0.3726140   -0.9696940   -1.4366470  
H     0.8946140   -3.5671520    3.4510170  
H     4.3654410   -2.5580900    3.5914760  
C    -3.2694860    0.4229820   -2.7553990  
C    -2.2750740   -0.0846980   -1.9740940  
C    -2.7311380   -1.3519190   -1.4550240  
C    -4.0959500   -1.5404230   -2.0009300  
N    -4.3510850   -0.4382810   -2.7955700  
C    -4.9228690   -2.5814160   -1.7198590  
C    -4.4341040   -3.6144240   -0.8203890  
O    -5.1216390   -4.5447820   -0.4286750  
C    -2.9361950   -3.5377360   -0.3606350  
O    -2.4406140   -4.5412520    0.1116140  
C    -2.1600570   -2.2821520   -0.6033900  
H    -1.3302900    0.3960360   -1.7817300  
H    -5.9351610   -2.6609630   -2.1043700  
H    -3.2963330    1.3547460   -3.3043960  
H    -5.2287470   -0.2551200   -3.2563550  
C     0.5085960    5.1174300    0.0093980  
C     0.4745500    3.7380850   -0.0060810  
C    -0.8011830    3.3568240    0.5688780  
C    -1.4823320    4.5544760    0.9041030  
N    -0.6640670    5.6071830    0.5413150  
C    -2.7583780    4.5667080    1.4814830  
C    -3.3650280    3.3442530    1.7245500  
O    -4.6070680    3.2987710    2.2869830  
C    -2.7076750    2.1323540    1.3833300  
O    -3.4436770    0.9998860    1.6633480  
C    -1.4465530    2.1264730    0.8158810  
H    -0.8634380    6.5817430    0.7035940  
H    -3.2772310    5.4837530    1.7417700  
H    -4.8375920    2.3596860    2.3963790  
H    -2.9283620    0.2065540    1.4496400  
H    -0.9899530    1.1781270    0.5470010  
H     1.2965180    5.7867640   -0.3047560  
