62


C    -5.0914030   -2.2992690    3.5212740  
C    -4.1477930   -1.5779720    2.8361980  
C    -4.2969960   -1.8972470    1.4448140  
C    -5.3684270   -2.8261530    1.3483820  
N    -5.8279290   -3.0546390    2.6290490  
C    -5.8187080   -3.3489620    0.1321940  
C    -5.1666700   -2.9277570   -1.0176830  
O    -5.5428110   -3.4250240   -2.2305470  
C    -4.1011740   -1.9983040   -0.9482600  
O    -3.5498980   -1.6917810   -2.1851580  
C    -3.6481030   -1.4580800    0.2573680  
H    -3.4367910   -0.8924070    3.2736620  
H    -6.5866270   -3.6716190    2.8727460  
H    -6.6305370   -4.0653340    0.0593250  
H    -4.9278320   -3.0553570   -2.8886790  
H    -2.6213330   -1.4379550   -2.0650370  
H    -5.3023830   -2.3404260    4.5805160  
C    -1.4810060   -0.4656360    1.1597800  
C    -2.5417090   -0.4931240    0.3044450  
C    -2.3791340    0.7415400   -0.4975770  
C    -1.1416200    1.3811150    0.0441480  
N    -0.6237520    0.6565560    0.9979720  
C    -0.6216640    2.6399640   -0.4644220  
C    -1.3181000    3.1889020   -1.5056010  
O    -0.9523700    4.3092170   -2.1427230  
C    -2.5740880    2.5785820   -2.0536700  
O    -3.1297320    3.1570630   -2.9875180  
C    -3.0854810    1.3143000   -1.4892240  
H    -1.6448230    4.4538840   -2.8259310  
H    -3.9858610    0.8962140   -1.9260930  
H    -1.2340600   -1.1985930    1.9177990  
C     3.4978100    1.1233380    0.3223840  
C     4.0459390    2.3382640    0.7364960  
C     3.0052440    3.2951180    0.7252210  
C     1.8195280    2.6252860    0.2803190  
N     2.1570490    1.3287100    0.0268010  
C     0.5792610    3.2864670    0.1126210  
C     0.5563240    4.6311790    0.4908430  
O    -0.6031390    5.3306830    0.4494250  
C     1.7319320    5.3059320    0.9459070  
O     1.5073540    6.6320430    1.2529880  
C     2.9448050    4.6702780    1.0501960  
H     5.0783730    2.5020610    1.0130850  
H     1.5110630    0.5581900   -0.0838410  
H    -0.4018630    6.2443430    0.7194410  
H     2.3286310    7.0390140    1.5664210  
H     3.8297610    5.2058690    1.3862450  
C     4.0591270   -0.1782900    0.1886980  
C     5.3452840   -0.6264330    0.4023080  
C     5.3210320   -2.0257550    0.1191510  
C     3.8922830   -2.3037680   -0.2694100  
N     3.1632170   -1.2261080   -0.2286150  
C     3.4543900   -3.6253550   -0.6309350  
C     4.3798960   -4.6133540   -0.6104140  
O     4.1311100   -5.8900650   -0.9198560  
C     5.8301460   -4.3657760   -0.2243190  
O     6.5711290   -5.3559470   -0.2469850  
C     6.2487620   -3.0267070    0.1375020  
H     6.2005570   -0.0455270    0.7177170  
H     2.4211130   -3.8050880   -0.9062180  
H     5.0019480   -6.3418950   -0.8063510  
H     7.2893210   -2.8804560    0.4093260  
