64


C     1.7744740   -0.1814470    0.2040490  
C     2.8907040   -0.1035170   -0.5926290  
C     3.1861500   -1.4619350   -0.9996710  
C     2.2171540   -2.3086150   -0.4100530  
N     1.3498290   -1.5036660    0.3337920  
C     2.1955580   -3.6896330   -0.6322860  
C     3.1866410   -4.2259380   -1.4400340  
O     3.2115970   -5.5698420   -1.6827920  
C     4.1821570   -3.3948160   -2.0136830  
O     5.1098650   -4.0740300   -2.7839830  
C     4.1919920   -2.0280370   -1.8033950  
H     1.4668310   -4.3479010   -0.1767630  
H     4.0023150   -5.7484600   -2.2200200  
H     5.8290630   -3.4709880   -3.0226240  
H     4.9674720   -1.4055030   -2.2440450  
H     1.2305560    0.6034710    0.7077090  
C    -2.7697900    0.0371230    0.2266200  
C    -1.4398540   -0.2108300   -0.0156610  
C    -1.0100880   -1.2627800    0.8604980  
C    -2.1912140   -1.6373020    1.6669800  
N    -3.2376460   -0.8553820    1.2053870  
C    -2.2076350   -2.5816590    2.6423300  
C    -0.9792520   -3.3125450    2.9071530  
O    -0.8948610   -4.2153450    3.7264020  
C     0.3097390   -2.9319670    2.0858580  
O     1.3613230   -3.4805010    2.3709180  
C     0.1952990   -1.9028720    1.0333650  
H    -0.8445790    0.2551760   -0.7863600  
H    -3.0951670   -2.8367980    3.2128770  
H    -4.0623680   -0.6671000    1.7568010  
C    -3.2689180    2.2234200   -0.8943470  
C    -3.6608560    1.0073110   -0.3593860  
C    -5.1035400    0.9441390   -0.4956460  
C    -5.5107760    2.1526960   -1.1113930  
N    -4.3690320    2.9033870   -1.3409240  
C    -6.8452550    2.4414440   -1.4164640  
C    -7.7944380    1.4825900   -1.0987680  
O    -9.1081120    1.7112990   -1.3729880  
C    -7.4055970    0.2538760   -0.5001690  
O    -8.4588490   -0.6035540   -0.2627710  
C    -6.0840450   -0.0251290   -0.2008200  
H    -4.3524840    3.8267510   -1.7467740  
H    -7.1548490    3.3666310   -1.8912800  
H    -9.6047510    0.9186930   -1.1048600  
H    -8.1262380   -1.4536590    0.0617260  
H    -5.8142970   -0.9889340    0.2239950  
H    -2.2812690    2.6576180   -0.9537400  
C     4.1952970    1.4062190   -2.1624460  
C     3.6242270    1.1098390   -0.9425230  
C     3.8841140    2.2518330   -0.0919880  
C     4.6048810    3.2009710   -0.8603920  
N     4.7805040    2.6582120   -2.1172240  
C     5.0312170    4.4295860   -0.3397480  
C     4.7303530    4.7015700    0.9858980  
O     5.1229470    5.8842410    1.5460070  
C     4.0231720    3.7565070    1.7749880  
O     3.8072540    4.1667520    3.0798390  
C     3.6010460    2.5468510    1.2559330  
H     5.2626700    3.1025700   -2.8821240  
H     5.5866120    5.1568160   -0.9235530  
H     4.8569950    5.8567520    2.4814210  
H     3.4688810    3.4212510    3.5974910  
H     3.0773220    1.8289870    1.8832160  
H     4.1948820    0.8328900   -3.0784050  
