60


C     3.8855340   -2.6338730   -0.2521170  
C     4.8814770   -3.5443880   -0.3849670  
C     6.1356320   -2.8287560   -0.3925010  
C     5.8421150   -1.4530550   -0.2591430  
N     4.4290360   -1.3366220   -0.1708160  
C     6.8418510   -0.4790840   -0.2299830  
C     8.1600800   -0.9111950   -0.3388660  
O     9.1649770    0.0067230   -0.3153030  
C     8.4681690   -2.2860040   -0.4733680  
O     9.8144380   -2.5558710   -0.5696040  
C     7.4686570   -3.2472440   -0.5008720  
H     4.7493750   -4.6145260   -0.4720000  
H     6.6170190    0.5727530   -0.1303910  
H    10.0054860   -0.4740760   -0.4087000  
H     9.9540970   -3.5088950   -0.6740480  
H     7.7170080   -4.3012010   -0.6044720  
H     2.8173000   -2.7721080   -0.2108290  
C     3.6709180   -0.2121000   -0.0348060  
C     2.2806570   -0.1350940    0.0590240  
C     1.9927480    1.2422320    0.1727290  
C     3.3481490    1.9100610    0.1310020  
N     4.3163210    1.0374470    0.0142090  
C     3.5065550    3.3267700    0.1930720  
C     2.3722570    4.0663850    0.2824280  
O     2.3507740    5.3919620    0.3562680  
C     0.9828300    3.4419260    0.3423400  
O     0.0601670    4.2383380    0.5249050  
C     0.8293400    1.9905230    0.2508210  
H     1.5690780   -0.9444810    0.0312140  
H     4.4931600    3.7746890    0.1620380  
H     1.3930500    5.6249280    0.4379010  
C    -1.2289660   -1.1791700    2.6284160  
C    -0.3209850   -0.3073350    2.1272090  
C    -0.9650730    0.4156890    1.0479110  
C    -2.3345880   -0.1195840    0.9576890  
N    -2.4245390   -1.1029980    1.9081230  
C    -3.3387000    0.3389730    0.1182350  
C    -2.9998410    1.5307540   -0.6631980  
O    -3.8153880    2.2062740   -1.2829690  
C    -1.5023880    1.9755670   -0.7431660  
O    -1.1763450    2.7008610   -1.6621600  
C    -0.5256260    1.4434710    0.2478580  
H     0.6927940   -0.1670520    2.4686340  
H    -1.1410590   -1.8785160    3.4486190  
H    -3.3089060   -1.4841120    2.2153040  
C    -4.6610130   -0.2494190    0.0601970  
C    -5.0998600   -1.5052370    0.4458670  
C    -6.5005900   -1.5977680    0.1436160  
C    -6.8771920   -0.2924200   -0.4558430  
N    -5.7308070    0.4706150   -0.4656470  
C    -8.1264820    0.0183590   -0.8863960  
C    -9.1766290   -0.9878030   -0.7571920  
O   -10.3292320   -0.7972420   -1.1162120  
C    -8.7996080   -2.3789550   -0.1260490  
O    -9.6695940   -3.2310780   -0.0108960  
C    -7.4191100   -2.5939900    0.2994810  
H    -4.4864540   -2.3270030    0.7849270  
H    -8.3837680    0.9779240   -1.3238200  
H    -7.1702000   -3.5588540    0.7315010  
H    -5.5883250    1.3722840   -0.9057710  
