64


C    -2.4969650   -0.8555050   -0.1775820  
C    -3.7952060   -0.4083720   -0.2229900  
C    -3.7165010    1.0292430   -0.4156290  
C    -2.3452010    1.3767080   -0.4824260  
N    -1.6048570    0.2032100   -0.3171570  
C    -1.9128000    2.6887910   -0.7093490  
C    -2.8822170    3.6746570   -0.8244130  
O    -2.5093640    4.9671880   -1.0429960  
C    -4.2596990    3.3501630   -0.7180240  
O    -5.1005890    4.4369750   -0.8397190  
C    -4.6846710    2.0488880   -0.5197330  
H    -0.8673670    2.9583090   -0.8021130  
H    -3.3220590    5.5001760   -1.0866110  
H    -6.0210040    4.1477680   -0.7506830  
H    -5.7445270    1.8181720   -0.4507240  
H    -2.1180780   -1.8567780   -0.0347350  
C     0.4968930   -0.8858210   -1.0424110  
C    -0.2144940    0.0579190   -0.3728090  
C     0.7811260    0.8085030    0.4128790  
C     2.0744270    0.1740620    0.0458350  
N     1.8897880   -0.8098070   -0.7900500  
C     3.3491400    0.6431590    0.6056980  
C     3.2384360    1.6487170    1.5414920  
O     4.3136230    2.1976880    2.1753860  
C     1.9663450    2.2455000    1.9592990  
O     1.9846120    3.1449080    2.8138530  
C     0.7068000    1.7762420    1.3429330  
H     3.9209100    2.8769310    2.7707500  
H    -0.2146900    2.2515660    1.6641570  
H     0.1205290   -1.6490510   -1.7117090  
C     4.6051200    0.0599380    0.1996670  
C     4.8750440   -0.9442690   -0.7319930  
C     6.2779330   -1.1397190   -0.7578410  
C     6.8474330   -0.2272990    0.1812000  
N     5.8186640    0.4800550    0.7422840  
C     8.2264490   -0.1487200    0.4127700  
C     9.0430950   -1.0020010   -0.3115440  
O    10.3908740   -0.9704760   -0.1284770  
C     8.4920810   -1.9219030   -1.2546600  
O     9.4458190   -2.6956210   -1.8869250  
C     7.1364060   -1.9995170   -1.4829880  
H     4.1221670   -1.4606550   -1.3055450  
H     5.8883100    1.2084510    1.4381700  
H     8.6671380    0.5419390    1.1239130  
H    10.7798770   -1.6361750   -0.7224340  
H     9.0135610   -3.2957770   -2.5124460  
H     6.7351500   -2.7068850   -2.2057380  
C    -5.0158210   -3.5070050    2.8029990  
C    -4.3372590   -2.5415530    2.1060210  
C    -5.1529040   -2.1762390    0.9808730  
C    -6.3333150   -2.9620920    1.0560320  
N    -6.2195390   -3.7653950    2.1729020  
C    -7.3768810   -2.8610850    0.1280650  
C    -7.2198820   -1.9462310   -0.9002890  
O    -8.1952250   -1.8122430   -1.8483780  
C    -6.0504470   -1.1502270   -0.9950720  
O    -6.0442880   -0.3074250   -2.0935710  
C    -5.0056210   -1.2382170   -0.0756370  
H    -3.3744670   -2.1282390    2.3698840  
H    -6.9100950   -4.4303870    2.4830280  
H    -8.2777350   -3.4639370    0.1810890  
H    -7.8659410   -1.1696110   -2.5005960  
H    -5.1610400    0.0869500   -2.1837950  
H    -4.7437820   -4.0374570    3.7046880  
