66


C    -0.0724310   -2.7668860    0.1076180  
C     0.8366190   -1.7385980    0.1996320  
C     2.0919280   -2.2016600   -0.3209070  
C     1.8971430   -3.5404670   -0.7353100  
N     0.5924210   -3.9015350   -0.4065060  
C     2.8920550   -4.3017730   -1.3516150  
C     4.1256760   -3.6942540   -1.5424060  
O     5.1419370   -4.3909400   -2.1275280  
C     4.3553790   -2.3627500   -1.1190910  
O     5.6426090   -1.9219350   -1.3564610  
C     3.3624330   -1.5918070   -0.5019850  
H     0.6349210   -0.7690950    0.6294530  
H     0.0858320   -4.5914840   -0.9481710  
H     2.7413850   -5.3278420   -1.6708230  
H     5.9230520   -3.8100350   -2.1196180  
H     5.7781550   -1.0768240   -0.8887350  
C    -3.3998140    0.2553290    0.0268170  
C    -2.1931830   -0.3950700   -0.1039570  
C    -2.3484180   -1.7254270    0.4056030  
C    -3.6910820   -1.8467400    0.8420450  
N    -4.3343410   -0.6497170    0.5602910  
C    -4.2073640   -3.0150590    1.4079490  
C    -3.3435790   -4.0946070    1.5289290  
O    -3.7833710   -5.2572410    2.0933230  
C    -2.0029720   -4.0087690    1.0821730  
O    -1.2785200   -5.1705550    1.2809220  
C    -1.4748720   -2.8419650    0.5160800  
H    -1.3078470    0.0327850   -0.5455150  
H    -5.1372680   -0.3303610    1.0857600  
H    -5.2331970   -3.1050640    1.7504440  
H    -3.0188150   -5.8590050    2.1256080  
H    -0.3305160   -4.9731700    1.1684730  
C     3.6383620   -0.2299020   -0.0438820  
C     3.2361560    0.4367750    1.0885310  
C     3.8196620    1.7489480    1.0661720  
C     4.5860190    1.8417770   -0.1201460  
N     4.5241700    0.6051970   -0.7633850  
C     5.2749150    3.0004770   -0.4865630  
C     5.1974970    4.0896300    0.3713660  
O     5.8485290    5.2476970    0.0592310  
C     4.4517780    4.0079070    1.5757100  
O     4.4785480    5.1667560    2.3282250  
C     3.7696430    2.8579390    1.9324150  
H     2.6328240    0.0129570    1.8792530  
H     4.5785320    0.5384580   -1.7731350  
H     5.8606390    3.0769320   -1.3970110  
H     5.6809070    5.8758120    0.7828210  
H     3.9616240    5.0385510    3.1372280  
H     3.1997540    2.8200090    2.8586620  
C    -7.3128540    1.8128690   -1.3056610  
C    -6.9681200    3.1357900   -1.3788750  
C    -5.5830650    3.2338000   -1.0096200  
C    -5.1400050    1.9224730   -0.7062290  
N    -6.2237630    1.0758620   -0.8719020  
C    -3.8113920    1.6116590   -0.3254570  
C    -2.9233270    2.6944930   -0.2970690  
O    -1.6132550    2.4986220    0.0366920  
C    -3.3572710    4.0112610   -0.5926180  
O    -2.3522030    4.9580810   -0.4907880  
C    -4.6646450    4.2990200   -0.9341880  
H    -7.6217710    3.9495660   -1.6618420  
H    -6.1412360    0.0711460   -0.9245960  
H    -1.1838830    3.3718750    0.0181580  
H    -2.7096790    5.8309810   -0.7094570  
H    -4.9673310    5.3203380   -1.1561060  
H    -8.2549120    1.3244800   -1.5120290  
