62


C     2.2626160   -1.2919130   -1.6464580  
C     2.5051270   -2.6246020   -1.4669780  
C     3.5578360   -2.7397490   -0.4968180  
C     3.9152600   -1.4212960   -0.1129670  
N     3.1110950   -0.5386630   -0.8329850  
C     4.8984400   -1.1563810    0.8544750  
C     5.5457500   -2.2453290    1.4235740  
O     6.5067890   -2.0415030    2.3674680  
C     5.2108560   -3.5698700    1.0381860  
O     5.9441500   -4.5402780    1.6901660  
C     4.2276590   -3.8251320    0.0990050  
H     1.9969200   -3.4339750   -1.9729740  
H     5.1334420   -0.1557700    1.2017110  
H     6.8196380   -2.9162560    2.6567380  
H     5.6347100   -5.4186390    1.4234860  
H     3.9774950   -4.8492970   -0.1704230  
H     1.5736880   -0.7856750   -2.3068610  
C    -0.0153500    2.5502650   -0.0784990  
C     0.6869150    1.3437970   -0.2291190  
C     2.0211890    1.6592260   -0.5544890  
C     2.1224880    3.0853010   -0.5870870  
N     0.8849800    3.5878040   -0.3007990  
C     3.3250300    3.7518040   -0.8454240  
C     4.4414700    2.9655380   -1.0806850  
O     5.6358250    3.5472490   -1.3377320  
C     4.3685210    1.5353450   -1.0799060  
O     5.5584870    0.9275180   -1.3873050  
C     3.1788690    0.8764840   -0.8178580  
H     0.2872420    0.3560260   -0.0669290  
H     0.6220580    4.5569010   -0.1769400  
H     3.4123600    4.8324000   -0.8568300  
H     6.2891940    2.8332000   -1.4551580  
H     5.5365740   -0.0132390   -1.1363330  
C    -3.7334760    0.0034430    0.1900280  
C    -2.4469180    0.4152210   -0.0886320  
C    -2.3798820    1.8017690    0.2899720  
C    -3.7358610    2.0933580    0.7936550  
N    -4.5247120    1.0527170    0.7420210  
C    -4.1175160    3.3986190    1.2728310  
C    -3.2024440    4.3902190    1.2028180  
O    -3.4436740    5.6630140    1.5762340  
C    -1.8275790    4.1521210    0.6710450  
O    -1.0899070    5.1434780    0.5979510  
C    -1.3913210    2.7711160    0.2667940  
H    -1.6900490   -0.1664620   -0.5914210  
H    -5.1226260    3.5665290    1.6432950  
H    -2.6157050    6.1545750    1.3937990  
C    -2.1613440   -4.1683110    0.4446740  
C    -2.2369870   -2.8128400    0.5105090  
C    -3.5929190   -2.4858760    0.1020980  
C    -4.2140170   -3.8164770   -0.1621570  
N    -3.3700920   -4.7949950    0.0329490  
C    -5.5902500   -3.9489170   -0.5575280  
C    -6.3199500   -2.8167480   -0.6802410  
O    -7.6127660   -2.7901280   -1.0425250  
C    -5.7253360   -1.4480620   -0.4586550  
O    -6.4518450   -0.4913830   -0.7016530  
C    -4.2942110   -1.3168150   -0.0246310  
H    -1.4698180   -2.1219780    0.8269580  
H    -6.0111800   -4.9311030   -0.7422800  
H    -7.8470080   -1.8361020   -1.0870190  
H    -1.3082920   -4.7947720    0.6788510  
