62


C    -4.9880130   -0.7050850    2.3240970  
C    -4.4675220   -0.5159760    1.0539210  
C    -5.3186900   -1.2683650    0.1555080  
C    -6.3208430   -1.8846380    0.9445430  
N    -6.0937240   -1.5199810    2.2591170  
C    -7.3106900   -2.7168870    0.4073730  
C    -7.2869070   -2.9311510   -0.9613000  
O    -8.2284160   -3.7271640   -1.5430500  
C    -6.2861610   -2.3261720   -1.7688560  
O    -6.3955640   -2.6351270   -3.1111910  
C    -5.3095520   -1.5102090   -1.2324130  
H    -6.6854790   -1.7587940    3.0396060  
H    -8.0779170   -3.1883440    1.0129230  
H    -8.0455690   -3.7368130   -2.4986670  
H    -5.7230820   -2.1477050   -3.6097680  
H    -4.5686610   -1.0404650   -1.8717910  
H    -4.6857990   -0.2595640    3.2617800  
C    -0.6074590   -0.3654280    3.1133470  
C     0.0012460    0.5871350    2.3342590  
C    -0.9237760    0.9516170    1.3005570  
C    -2.1014830    0.1923290    1.5278180  
N    -1.8762500   -0.6008880    2.6344660  
C    -3.2724700    0.2779270    0.7476820  
C    -3.2099840    1.2098120   -0.2985800  
O    -4.2863350    1.3929150   -1.1112890  
C    -2.0679720    2.0108860   -0.5337550  
O    -2.2172950    2.8554710   -1.6112360  
C    -0.8871190    1.8918350    0.2192610  
H     0.9988850    0.9724820    2.4814900  
H    -2.5152780   -1.3132550    2.9530970  
H    -4.0357610    2.1304180   -1.7028440  
H    -1.8603840    3.7309980   -1.3405030  
H    -0.2357410   -0.8954900    3.9788240  
C     3.4784250    0.8661460   -0.1439900  
C     2.1059330    0.7667010   -0.0447220  
C     1.6015870    2.1103970   -0.0924130  
C     2.8247440    2.9435130   -0.2305900  
N     3.9131170    2.2309820   -0.2518420  
C     2.7584100    4.3799440   -0.3383180  
C     1.5321130    4.9453570   -0.3706020  
O     1.3209320    6.2679210   -0.5071180  
C     0.2792570    4.1235400   -0.3071920  
O    -0.7811050    4.7574000   -0.4454270  
C     0.3339080    2.6545850   -0.0708790  
H     1.5164160   -0.1340660    0.0378200  
H     3.6683570    4.9640720   -0.4161260  
H     0.3471180    6.3793600   -0.5362050  
C     4.4328260   -0.2047680   -0.1592570  
C     4.1806830   -1.5575130   -0.0696210  
C     5.4624500   -2.2018930   -0.1341150  
C     6.4359870   -1.0666730   -0.2660750  
N     5.8393700    0.0866100   -0.2799500  
C     7.8551800   -1.3033210   -0.3611360  
C     8.2819680   -2.5870630   -0.3274360  
O     9.5680680   -2.9591120   -0.4053570  
C     7.3244070   -3.7505120   -0.1951400  
O     7.8168940   -4.8807000   -0.1735600  
C     5.8871840   -3.4907980   -0.1000730  
H     3.2206880   -2.0450370    0.0289640  
H     8.5393990   -0.4676070   -0.4560300  
H     9.5518750   -3.9418000   -0.3539160  
H     5.2299320   -4.3499170   -0.0067780  
