64


C     3.5076400    0.9679130    0.0824180  
C     2.1447910    0.7608150    0.1335200  
C     1.5136340    2.0380470    0.2828380  
C     2.5494720    3.0082230    0.3164520  
N     3.7553290    2.3331540    0.2385800  
C     2.3025120    4.3800340    0.4106620  
C     0.9774360    4.7822880    0.4866640  
O     0.6781310    6.1088330    0.5880470  
C    -0.0747010    3.8309490    0.4816500  
O    -1.3248490    4.4038870    0.6104540  
C     0.1598750    2.4592660    0.3804950  
H     1.6641060   -0.2063110    0.0997580  
H     4.6201360    2.7673070   -0.0507740  
H     3.0918870    5.1243570    0.4278440  
H    -0.2909390    6.1823310    0.6356270  
H    -2.0074230    3.7152960    0.6074880  
C    -1.0417210    0.3755950    1.1885650  
C    -0.9474360    1.4849650    0.3965900  
C    -2.1347320    1.4651790   -0.4573460  
C    -2.9193900    0.2666470   -0.0695370  
N    -2.1847000   -0.3590810    0.9096070  
C    -4.1230700   -0.1288090   -0.6101910  
C    -4.5759830    0.6746680   -1.7469210  
O    -5.5282170    0.3681770   -2.4661120  
C    -3.8103200    1.9951190   -2.1304090  
O    -4.2878440    2.7048940   -2.9999220  
C    -2.5565410    2.2987390   -1.4479630  
H    -2.0093060    3.1835650   -1.7551170  
H    -0.3533370    0.0354160    1.9506880  
H    -2.5392470   -1.1257630    1.4642120  
C    -5.2517940   -1.3883190    3.5590300  
C    -4.8102620   -0.6850580    2.4657220  
C    -5.0736910   -1.4900910    1.3000020  
C    -5.6952740   -2.6790370    1.7660360  
N    -5.7747980   -2.5939030    3.1419590  
C    -6.1508720   -3.6899080    0.9133790  
C    -5.9964670   -3.4758790   -0.4459200  
O    -6.4363140   -4.4005070   -1.3392100  
C    -5.3768760   -2.2973320   -0.9487070  
O    -5.2838680   -2.2724320   -2.3178660  
C    -4.8703160   -1.3048790   -0.1028380  
H    -4.3895820    0.3098650    2.4924320  
H    -6.2046330   -3.2819960    3.7402030  
H    -6.6332620   -4.5938400    1.2708070  
H    -6.2582180   -4.0178660   -2.2204840  
H    -5.4939640   -1.3517290   -2.6062250  
H    -5.2439290   -1.1229160    4.6067270  
C     4.5960070    0.0285910   -0.0642080  
C     4.6436860   -1.1965170   -0.6955110  
C     5.9702730   -1.7133260   -0.5421640  
C     6.7081930   -0.7523720    0.1984500  
N     5.8657380    0.3194190    0.4436030  
C     8.0481990   -0.9380680    0.5535890  
C     8.6620510   -2.1130070    0.1444930  
O     9.9677380   -2.3458880    0.4668010  
C     7.9459400   -3.0776990   -0.6130330  
O     8.6967900   -4.1880040   -0.9519760  
C     6.6208160   -2.8920270   -0.9606550  
H     3.8307540   -1.6439730   -1.2508200  
H     6.0172110    0.9898930    1.1835390  
H     8.6148450   -0.2083520    1.1230470  
H    10.2082470   -3.2077780    0.0853030  
H     8.1542360   -4.7975980   -1.4735590  
H     6.0924230   -3.6469810   -1.5396050  
