64


C    -3.3678150    1.1265190   -1.5821920  
C    -4.1487180    0.3846550   -0.7050640  
C    -5.2428480    1.2577170   -0.3098410  
C    -5.0455230    2.4946410   -0.9724480  
N    -3.9008810    2.3750430   -1.7435520  
C    -5.8875490    3.5999270   -0.8089280  
C    -6.9627440    3.4583690    0.0535940  
O    -7.8225130    4.4975350    0.2499450  
C    -7.1757020    2.2322200    0.7363070  
O    -8.2840130    2.2411160    1.5611420  
C    -6.3384470    1.1457260    0.5691060  
H    -3.5429640    3.0828980   -2.3663750  
H    -5.7281080    4.5426750   -1.3221150  
H    -8.5037940    4.1923780    0.8740430  
H    -8.4093280    1.3591900    1.9418540  
H    -6.5434150    0.2142760    1.0855110  
H    -2.4920970    0.8194950   -2.1348560  
C    -0.3120480   -1.8123350    0.0535280  
C    -1.2466880   -0.8215130   -0.1671220  
C    -2.5337150   -1.4498980   -0.1613280  
C    -2.2449740   -2.8837070    0.0934160  
N    -0.9623180   -3.0873930    0.2112090  
C    -3.2754480   -3.8805200    0.2063070  
C    -4.5494180   -3.4473540    0.0948900  
O    -5.6266020   -4.2346530    0.2003230  
C    -4.8940230   -1.9894260   -0.1629740  
O    -6.1012580   -1.7453070   -0.2424410  
C    -3.8252990   -0.9837320   -0.3204850  
H    -1.0734150    0.2368850   -0.2514820  
H    -3.0266430   -4.9199580    0.3880160  
H    -6.3922090   -3.6304180    0.0585370  
C     2.7688400    1.4546730   -0.5260300  
C     1.5904600    0.7526090   -0.4682360  
C     1.9016710   -0.5880480   -0.0673060  
C     3.3071040   -0.6314730    0.1049490  
N     3.8234350    0.6297610   -0.1810910  
C     4.0027660   -1.7837530    0.5067930  
C     3.2595480   -2.9320070    0.7081780  
O     3.8717200   -4.0863560    1.0875120  
C     1.8478990   -2.9425820    0.5327120  
O     1.2958800   -4.1548060    0.7706280  
C     1.1278340   -1.7751850    0.1646190  
H     0.6259440    1.1650290   -0.7162670  
H     5.0739500   -1.7916770    0.6773150  
H     3.1644820   -4.7522300    1.1762970  
H     0.3047670   -4.0705530    0.6073550  
H     2.9609940    2.4810250   -0.8028110  
C     6.0179300    3.7043180    2.1595220  
C     5.0392660    2.8798520    1.6682450  
C     5.6567320    2.0435800    0.6784940  
C     7.0272360    2.4086830    0.6136210  
N     7.2156810    3.4265250    1.5264090  
C     7.9450250    1.7788570   -0.2360350  
C     7.4689950    0.7608420   -1.0469180  
O     8.3166170    0.1130880   -1.8966980  
C     6.0998620    0.3854250   -1.0225170  
O     5.7715420   -0.6089790   -1.9155380  
C     5.1960290    1.0120040   -0.1696180  
H     4.0041470    2.8632440    1.9775650  
H     8.0945940    3.8819540    1.7151560  
H     8.9951530    2.0492220   -0.2752930  
H     7.7968780   -0.5743690   -2.3491860  
H     4.8871290   -0.9577190   -1.7134170  
H     5.9641060    4.4735120    2.9169190  
