60


C     5.0413050    0.1684120   -2.2153740  
C     4.9163570    0.1283410   -0.8328430  
C     6.1216860   -0.5214470   -0.3430770  
C     6.9027570   -0.8561110   -1.4763590  
N     6.2181160   -0.4159610   -2.5976090  
C     8.1282150   -1.5271470   -1.3964660  
C     8.5819150   -1.8722470   -0.1334440  
O     9.7732580   -2.5180120    0.0123770  
C     7.8129070   -1.5525440    1.0165250  
O     8.3929060   -1.9570810    2.2034180  
C     6.6018840   -0.8940150    0.9278980  
H     6.5677300   -0.4524970   -3.5428060  
H     8.7216220   -1.7765380   -2.2701110  
H     9.9172280   -2.6386070    0.9673070  
H     7.8943500   -1.5866590    2.9471900  
H     6.0524530   -0.6360620    1.8265430  
H     4.3886520    0.6260990   -2.9445320  
C     0.5795550    0.0431350   -1.7256750  
C     1.9175660   -0.1682380   -1.7084740  
C     2.4709570    0.5484040   -0.5817620  
C     1.3250130    1.1977470    0.0852460  
N     0.1925050    0.8955540   -0.6796790  
C     1.3947730    1.8828660    1.2576370  
C     2.6929900    2.0042980    1.8939730  
O     2.8662520    2.5562670    2.9712330  
C     3.9453330    1.3848440    1.1718160  
O     5.0325230    1.5344280    1.7030640  
C     3.7628560    0.6520650   -0.1106480  
H     2.4647140   -0.7960070   -2.3945560  
H     0.5412290    2.3337840    1.7450740  
H    -0.1750360   -0.3481700   -2.3897490  
C    -3.3743540   -1.4887080   -0.6234260  
C    -4.3439900   -0.5835310   -0.2758440  
C    -3.6109220    0.6959060   -0.1588380  
C    -2.2029580    0.3291000   -0.4642400  
N    -2.0843930   -0.9424550   -0.7465660  
C    -1.1275990    1.3051160   -0.4304530  
C    -1.4681220    2.5969510   -0.1337800  
O    -0.5910680    3.6135200   -0.1151660  
C    -2.8651650    2.9789600    0.2008470  
O    -3.0886280    4.1638670    0.4601100  
C    -3.9354700    1.9591010    0.1756110  
H    -1.1202880    4.4021340    0.1433570  
H    -4.9397570    2.2962920    0.3991300  
H    -3.5181910   -2.5395540   -0.8421560  
C    -6.5488700   -4.0464060    1.4673410  
C    -5.5411200   -3.2100740    1.1141600  
C    -6.1948440   -2.0601320    0.5006300  
C    -7.6453370   -2.3882000    0.5881860  
N    -7.8476680   -3.5507210    1.1439240  
C    -8.6623530   -1.4877410    0.1095370  
C    -8.2606080   -0.3074510   -0.4132230  
O    -9.1004320    0.6334300   -0.8800770  
C    -6.8083880    0.0612130   -0.5160560  
O    -6.5473890    1.1590710   -1.0057370  
C    -5.7478190   -0.8936160   -0.0537260  
H    -4.4818920   -3.3436470    1.2781840  
H    -9.7091720   -1.7596670    0.1864230  
H    -8.5295360    1.3655440   -1.1975790  
H    -6.4722980   -5.0084070    1.9598420  
