60


C     7.3151070   -1.8985200   -2.4439770  
C     6.4639360   -0.9782090   -1.8839710  
C     5.7183690   -1.6578140   -0.8660500  
C     6.1606660   -3.0072630   -0.8637290  
N     7.1385710   -3.1198600   -1.8293720  
C     5.6312560   -3.9840990   -0.0150780  
C     4.6263000   -3.5988530    0.8598390  
O     4.0954210   -4.5109470    1.7200210  
C     4.1560140   -2.2637400    0.8796970  
O     3.1765210   -2.0413290    1.8260340  
C     4.6789160   -1.2743820    0.0307180  
H     6.3720750    0.0550220   -2.1832570  
H     7.6291670   -3.9686760   -2.0643150  
H     5.9785820   -5.0121950   -0.0101300  
H     3.4472940   -4.0442420    2.2761150  
H     3.0786490   -1.0844600    1.9740860  
H     8.0388340   -1.7814490   -3.2379780  
C     4.1923080    0.0941340    0.0854410  
C     4.8444720    1.2848390   -0.0861770  
C     3.9002480    2.3564480    0.0782560  
C     2.5971800    1.7195810    0.3498540  
N     2.8366960    0.3524480    0.4356090  
C     1.3919090    2.3709170    0.4541850  
C     1.4636640    3.8504750    0.3646770  
O     0.4823270    4.5678830    0.4666460  
C     2.8586770    4.5489770    0.1579620  
O     2.8825890    5.7694220    0.1027480  
C     4.0373420    3.7121560    0.0150760  
H     5.9049440    1.4009920   -0.2541760  
H     4.9898390    4.1981200   -0.1706360  
H     2.1041180   -0.2974570    0.1623410  
C    -0.0621160    0.4948450    1.3550390  
C     0.1303130    1.6758800    0.6853510  
C    -1.2306880    2.0213970    0.1919610  
C    -2.0833770    0.9090980    0.6792990  
N    -1.3960740    0.0368400    1.3643010  
C    -3.5091980    0.8438370    0.4000440  
C    -4.0485930    1.8627540   -0.3319910  
O    -5.3527080    1.9581240   -0.6381230  
C    -3.2041000    2.9683850   -0.8615790  
O    -3.7616160    3.8454830   -1.5221270  
C    -1.7547860    3.0096850   -0.5562930  
H    -5.4305630    2.7796160   -1.1741780  
H    -1.1989560    3.8623720   -0.9238440  
H     0.6734550   -0.0860000    1.8967420  
C    -4.1809450   -0.7647460    2.1729310  
C    -5.0016960   -1.8290860    2.3358150  
C    -5.6522730   -2.0783820    1.0695860  
C    -5.1411640   -1.0480360    0.1320460  
N    -4.2558400   -0.2515470    0.8673360  
C    -5.4723740   -0.9900540   -1.1808600  
C    -6.4183820   -1.9762250   -1.7052350  
O    -6.7662900   -1.9962510   -2.8756950  
C    -7.0013890   -3.0497710   -0.7187490  
O    -7.8028420   -3.8695170   -1.1398440  
C    -6.5407550   -3.0258070    0.6700240  
H    -5.1403150   -2.3936620    3.2465280  
H    -5.0883850   -0.2459050   -1.8661470  
H    -6.9202940   -3.7902020    1.3413150  
H    -3.5181810   -0.2905000    2.8804570  
