62


C     4.6722230    0.1357070   -2.3333050  
C     5.6753570   -0.7563980   -2.5952670  
C     6.0101350   -1.3954140   -1.3541600  
C     5.1575140   -0.8449330   -0.3613080  
N     4.3417470    0.0999300   -0.9804310  
C     5.1912690   -1.2604690    0.9794690  
C     6.1161110   -2.2364190    1.3234660  
O     6.1898980   -2.6757210    2.6130090  
C     6.9843160   -2.7882690    0.3453740  
O     7.8483280   -3.7451980    0.8429940  
C     6.9372600   -2.3861240   -0.9772220  
H     6.1294720   -0.9340250   -3.5605780  
H     4.5106260   -0.8774030    1.7322800  
H     6.8815000   -3.3589710    2.6456220  
H     8.3926260   -4.0959400    0.1227210  
H     7.6058830   -2.8319440   -1.7112520  
H     4.1579840    0.8274180   -2.9847980  
C    -0.0021520    0.5386980   -1.6607900  
C     1.2983560    0.1402200   -1.7216970  
C     2.0294870    0.9263660   -0.7643100  
C     1.1131460    1.8111200   -0.1478480  
N    -0.1464080    1.5691160   -0.7219770  
C     1.4795400    2.6511290    0.9077650  
C     2.8059130    2.6307950    1.3131230  
O     3.2138060    3.4427440    2.3285730  
C     3.7558910    1.7911920    0.6796890  
O     5.0368440    1.9202930    1.1584980  
C     3.3778220    0.9347930   -0.3524240  
H     1.7003210   -0.6197600   -2.3762670  
H     0.7872430    3.3164640    1.4060920  
H     4.1599780    3.2664190    2.4741910  
H     5.5849640    1.1780260    0.8509070  
H    -0.8617060    0.2167850   -2.2286610  
C    -4.2165380   -0.0344130   -0.0107020  
C    -2.8616790    0.0323170   -0.2423430  
C    -2.5336800    1.4358210   -0.2500020  
C    -3.8305750    2.1197310   -0.0076810  
N    -4.8047430    1.2716160    0.1346270  
C    -3.9407400    3.5560540    0.0771580  
C    -2.8109510    4.2803650   -0.0741450  
O    -2.7582550    5.6224730   -0.0138190  
C    -1.4777470    3.6364300   -0.3473110  
O    -0.5253760    4.3856170   -0.5499600  
C    -1.3764290    2.1488350   -0.3970550  
H    -2.1925720   -0.8022030   -0.3677530  
H    -4.9047260    4.0165230    0.2613620  
H    -1.8235910    5.8565220   -0.2042770  
C    -3.1876190   -4.2799420   -0.4707280  
C    -4.3721690   -4.8896130   -0.2461840  
C    -5.3098210   -3.8066160    0.0168500  
C    -4.4838420   -2.5562390   -0.0937080  
N    -3.2501690   -2.8524230   -0.3808010  
C    -5.0494710   -1.2159920    0.1021510  
C    -6.3993550   -1.1906430    0.3942430  
O    -7.1213710   -0.0939420    0.6163500  
C    -7.2335680   -2.4434350    0.5046330  
O    -8.4275220   -2.3017050    0.7709490  
C    -6.6232310   -3.7633120    0.3005730  
H    -4.5980610   -5.9466790   -0.2544270  
H    -8.0331550   -0.4253600    0.7957670  
H    -7.2670680   -4.6328690    0.3904920  
H    -2.2321750   -4.7352280   -0.7019500  
