64


C    -1.4949640   -3.9268270   -1.3953280  
C    -1.6619640   -2.6941050   -0.7823750  
C    -3.0192900   -2.6721360   -0.2708460  
C    -3.6127660   -3.9083860   -0.6179030  
N    -2.6534460   -4.6466060   -1.2963550  
C    -4.9297480   -4.2409350   -0.2801810  
C    -5.6652800   -3.3004180    0.4270440  
O    -6.9547960   -3.5668330    0.7738690  
C    -5.0779840   -2.0636870    0.8043420  
O    -5.9082010   -1.2329610    1.5246970  
C    -3.7734300   -1.7472260    0.4755640  
H    -2.7981220   -5.5635220   -1.6914890  
H    -5.3859810   -5.1885170   -0.5471530  
H    -7.2925550   -2.7901970    1.2530710  
H    -5.4599950   -0.3836190    1.6708130  
H    -3.3481370   -0.8179320    0.8429740  
H    -0.6379460   -4.3196710   -1.9232490  
C    -0.6778020   -1.6460100   -0.7169960  
C     0.6952040   -1.6770300   -0.8117060  
C     1.1809550   -0.3339630   -0.6946740  
C    -0.0088530    0.5277940   -0.5151110  
N    -1.0849010   -0.3194290   -0.5166570  
C    -0.0275800    1.8988510   -0.3789600  
C     1.2688030    2.5386980   -0.5366320  
O     1.4266110    3.7587030   -0.6316900  
C     2.5771910    1.6650590   -0.6172520  
O     3.6464100    2.2498220   -0.6530000  
C     2.4456110    0.2043120   -0.7044780  
H     1.3042760   -2.5640280   -0.8976770  
H    -2.0391720    0.0036110   -0.5689420  
C    -3.3393840    1.4172240    2.6412460  
C    -2.1668210    1.3051400    1.9371160  
C    -2.2067940    2.2724500    0.8704180  
C    -3.4444690    2.9564230    0.9932530  
N    -4.1374480    2.3855650    2.0482050  
C    -3.8095020    4.0323180    0.1766700  
C    -2.8791480    4.4408020   -0.7642170  
O    -3.1399700    5.5006970   -1.5723730  
C    -1.6319600    3.7707390   -0.9196470  
O    -0.8450060    4.2984880   -1.9123590  
C    -1.2837710    2.6577170   -0.1507950  
H    -1.3578680    0.6277190    2.1701240  
H    -4.9431740    2.8072980    2.4855580  
H    -4.7508270    4.5623730    0.2788510  
H    -2.3325370    5.6228870   -2.1095720  
H     0.0813790    4.3137230   -1.5657680  
H    -3.6690990    0.9004350    3.5323450  
C     3.7414300   -1.4998430   -1.9557980  
C     4.9469860   -2.1325320   -1.8558450  
C     5.6033300   -1.6155310   -0.6864670  
C     4.7398380   -0.6478250   -0.1143990  
N     3.5914860   -0.5869330   -0.9084050  
C     5.0522590    0.0271660    1.0709900  
C     6.2655290   -0.2640220    1.6746310  
O     6.6196300    0.3738870    2.8296150  
C     7.1474420   -1.2200600    1.1076370  
O     8.3160410   -1.4023760    1.8248750  
C     6.8307640   -1.8950720   -0.0567920  
H     5.3345440   -2.8706240   -2.5452120  
H     4.4056910    0.7760790    1.5108050  
H     7.5074850    0.0586070    3.0702520  
H     8.9001240   -2.0026690    1.3387230  
H     7.5150630   -2.6339180   -0.4698120  
H     2.9682600   -1.5761460   -2.7062860  
