62


C     1.9186440   -2.0041950    0.0666210  
C     3.0514860   -1.1913180    0.1649980  
C     4.1911420   -2.0228660    0.0779390  
C     3.7212920   -3.3637230   -0.0704620  
N     2.3535160   -3.3222200   -0.0738990  
C     4.5917250   -4.4547230   -0.1861310  
C     5.9513240   -4.1889810   -0.1532930  
O     6.8442780   -5.2079020   -0.2621940  
C     6.4389980   -2.8528860   -0.0084630  
O     7.8167660   -2.7724280    0.0005190  
C     5.5852600   -1.7800180    0.1066030  
H     3.0191710   -0.1247530    0.3043080  
H     1.7200270   -4.1065380   -0.1300010  
H     4.2464930   -5.4768690   -0.2993270  
H     7.7356770   -4.8185650   -0.2232510  
H     8.0875170   -1.8451120    0.0749680  
H     5.9709700   -0.7681040    0.2104210  
C    -0.0292510    1.9224310    0.2273760  
C    -1.3580250    1.5311110    0.2824480  
C    -1.3653650    0.1102410    0.2105830  
C     0.0670610   -0.2588610    0.1411490  
N     0.8367470    0.7963790    0.1263600  
C     0.5219150   -1.6584310    0.1007170  
C    -0.4903370   -2.5900720    0.1135420  
O    -0.2553410   -3.9328260    0.1005900  
C    -1.9159230   -2.2636840    0.1826270  
O    -2.6977440   -3.2402030    0.2477050  
C    -2.3734130   -0.8472120    0.1620980  
H    -2.2086780    2.1853520    0.3918700  
H    -1.1543890   -4.3327220    0.1485800  
C    -0.1131550    4.4398640    0.5087250  
C     0.5214290    3.2368480    0.2737390  
C     1.9424780    3.6249570    0.0767520  
C     1.9445950    5.0945260    0.2433960  
N     0.7334890    5.5502990    0.4918450  
C     3.1447200    5.8682160    0.1255840  
C     4.2999530    5.2099060   -0.1549020  
O     5.4970700    5.8098540   -0.2889130  
C     4.3298020    3.7268690   -0.3419430  
O     5.4161990    3.1949020   -0.5868360  
C     3.0725180    2.9572560   -0.2242840  
H     3.1136560    6.9443150    0.2569410  
H     6.1255410    5.0810480   -0.4869180  
H     3.1123860    1.8875390   -0.3858440  
H    -1.1668080    4.5922150    0.7110270  
C    -3.7774830   -0.5664370    0.0745270  
C    -4.4503850    0.6342780   -0.2095940  
C    -5.8348580    0.3671230   -0.2077360  
C    -5.9905340   -1.0263440    0.0810270  
N    -4.7431550   -1.5545550    0.2444290  
C    -7.2464530   -1.6414790    0.1569960  
C    -8.3577460   -0.8449500   -0.0623810  
O    -9.6006710   -1.3849630   -0.0032100  
C    -8.2216030    0.5509820   -0.3542440  
O    -9.4303590    1.1850850   -0.5427810  
C    -6.9900670    1.1574410   -0.4292200  
H    -3.9834560    1.5772580   -0.4450590  
H    -4.4794570   -2.5232140    0.3838300  
H    -7.3738920   -2.6962520    0.3747570  
H   -10.2401660   -0.6736010   -0.1849010  
H    -9.2832340    2.1224850   -0.7388230  
H    -6.9055890    2.2188270   -0.6515310  
