64


C     3.6978450   -0.5092420   -0.0256020  
C     4.0254520   -1.8493800   -0.0191240  
C     5.4223250   -1.9615430   -0.3180850  
C     5.9145470   -0.6411570   -0.4997720  
N     4.8570870    0.2236320   -0.2839320  
C     7.2488160   -0.3689460   -0.8195120  
C     8.1100090   -1.4486770   -0.9536430  
O     9.4235080   -1.2378340   -1.2701050  
C     7.6408480   -2.7735500   -0.7616890  
O     8.6178420   -3.7419020   -0.9204010  
C     6.3205990   -3.0399180   -0.4456340  
H     3.3459950   -2.6556700    0.2219110  
H     4.8435100    1.1926400   -0.5643810  
H     7.6272440    0.6381080   -0.9641100  
H     9.8481950   -2.1115030   -1.3168840  
H     8.2235980   -4.6171370   -0.7927990  
H     5.9858050   -4.0661880   -0.3053340  
C     1.1892930   -0.3202910   -0.1907450  
C     2.4253730    0.1589930    0.1823780  
C     2.1896530    1.4471170    0.7994590  
C     0.7923850    1.6797010    0.7642960  
N     0.1942770    0.5819060    0.1499260  
C     0.2023530    2.8199810    1.3242040  
C     1.0424980    3.7530280    1.9128650  
O     0.5191930    4.8873070    2.4653660  
C     2.4440380    3.5364600    1.9588170  
O     3.1477130    4.5472590    2.5881280  
C     3.0212130    2.4010750    1.4190160  
H    -0.8691450    2.9831320    1.3232590  
H     1.2581600    5.3775140    2.8651740  
H     4.0699250    4.2743810    2.7034930  
H     4.0937240    2.2389500    1.5012820  
H     0.9326410   -1.2237540   -0.7242800  
C    -1.9051790   -0.7013270    0.3203350  
C    -1.1828310    0.3894960   -0.0800060  
C    -2.0667890    1.2567520   -0.8202090  
C    -3.3316820    0.6234150   -0.8385120  
N    -3.2112900   -0.5922850   -0.1489000  
C    -4.4515920    1.2210150   -1.4254440  
C    -4.2781060    2.4576320   -2.0310200  
O    -5.3431450    3.0759770   -2.6180840  
C    -3.0082530    3.0872700   -2.0462200  
O    -2.9924270    4.3053870   -2.6945450  
C    -1.9051470    2.5032330   -1.4490990  
H    -5.4289560    0.7582870   -1.4377360  
H    -5.0249990    3.9250470   -2.9704200  
H    -2.1158580    4.7083470   -2.6060840  
H    -0.9407560    3.0043240   -1.4519120  
H    -1.6061200   -1.5461570    0.9184290  
C    -4.2569140   -2.6243980    3.5331240  
C    -5.3264850   -3.3552490    3.1462670  
C    -5.4974990   -3.0622950    1.7259620  
C    -4.3980240   -2.0961700    1.4222890  
N    -3.6783000   -1.8479810    2.4755430  
C    -4.2211640   -1.5407400    0.0850070  
C    -5.0734190   -1.9847190   -0.8864380  
O    -4.9997760   -1.6103750   -2.1765020  
C    -6.1797570   -2.9421440   -0.5946860  
O    -6.8964350   -3.2891480   -1.5361340  
C    -6.3591440   -3.4656900    0.7741200  
H    -5.9397310   -4.0157320    3.7433120  
H    -5.7380540   -2.0859090   -2.6199040  
H    -7.1753620   -4.1633670    0.9347130  
H    -3.8055920   -2.5639640    4.5158480  
