64


C    -3.6977570   -2.1310750    3.1014740  
C    -4.5862450   -3.1164150    2.7579240  
C    -5.2443850   -2.6874620    1.5575840  
C    -4.6992780   -1.4205760    1.2122820  
N    -3.7691630   -1.1055040    2.1803820  
C    -5.1207990   -0.6663680    0.0908150  
C    -6.1434700   -1.2516220   -0.6552650  
O    -6.6557310   -0.5865580   -1.7566210  
C    -6.7011200   -2.5102520   -0.3309960  
O    -7.7010220   -2.9115390   -1.2000410  
C    -6.2634150   -3.2382780    0.7572470  
H    -4.7600270   -4.0357580    3.2997120  
H    -3.1852540   -0.2834890    2.1662600  
H    -7.3354070   -1.1665970   -2.1466190  
H    -8.0048500   -3.7990010   -0.9593320  
H    -6.7068220   -4.2028550    0.9948560  
H    -3.0128670   -2.0691920    3.9354210  
C    -0.8442320    0.7367050   -0.3073780  
C    -2.0034930   -0.0209750   -0.1831680  
C    -3.1218300    0.8578580   -0.2750700  
C    -2.5955270    2.1674850   -0.4764740  
N    -1.2195900    2.0734750   -0.4453700  
C    -3.3998520    3.2897890   -0.6819210  
C    -4.7692820    3.0751660   -0.6970660  
O    -5.6200030    4.1072420   -0.9154630  
C    -5.3278220    1.7796380   -0.4781570  
O    -6.7031100    1.7699420   -0.4946910  
C    -4.5364900    0.6600190   -0.2312430  
H    -2.0275160   -1.0887510   -0.0207990  
H    -0.6004950    2.7916050   -0.7907220  
H    -3.0013960    4.2855300   -0.8448980  
H    -6.5159900    3.7166640   -0.9009230  
H    -6.9919320    0.9835670   -1.0097900  
C     1.0581840   -0.9122930   -0.5645670  
C     0.5288360    0.3235960   -0.3011300  
C     1.7147970    1.1524120    0.0451690  
C     2.8658700    0.2351790   -0.1183070  
N     2.4571140   -0.9650940   -0.4467820  
C     4.2394520    0.6521550    0.1447590  
C     4.3688500    1.9234960    0.6366040  
O     5.5777200    2.4785840    0.9623550  
C     3.2428470    2.8442270    0.8602710  
O     3.4825100    3.9808160    1.2922780  
C     1.8727070    2.3910330    0.5476810  
H     5.3501960    3.3872110    1.2693980  
H     1.0654580    3.0821590    0.7705120  
H     0.5242390   -1.8060840   -0.8621880  
C     5.5247740   -1.9369990   -3.3203860  
C     4.8565160   -1.0539470   -2.5147750  
C     5.5531620   -1.0043890   -1.2603890  
C     6.6604040   -1.8867560   -1.3767710  
N     6.6112950   -2.4488910   -2.6351740  
C     7.6024440   -2.0771630   -0.3601900  
C     7.4366690   -1.3344730    0.7966630  
O     8.3234820   -1.4548980    1.8241780  
C     6.3531280   -0.4289980    0.9410870  
O     6.3222400    0.2082410    2.1656960  
C     5.3806150   -0.2641040   -0.0546860  
H     3.9584430   -0.5177350   -2.7802850  
H     7.2867020   -3.0970260   -3.0075840  
H     8.4444580   -2.7556090   -0.4543610  
H     8.0115820   -0.8303640    2.5068300  
H     6.1957880    1.1679650    2.0037170  
H     5.3138510   -2.2544560   -4.3318460  
