62


C     5.2786620    0.9447660    2.5640270  
C     4.1900940    0.3284600    2.0009560  
C     4.6447790   -0.3578860    0.8204060  
C     6.0429180   -0.1247280    0.7331780  
N     6.3956430    0.6872530    1.7936410  
C     6.8533300   -0.6880520   -0.2582590  
C     6.2331260   -1.5312230   -1.1656040  
O     6.9567250   -2.1386660   -2.1438100  
C     4.8355880   -1.7872980   -1.1070230  
O     4.3879440   -2.6286420   -2.0987260  
C     4.0078170   -1.1854400   -0.1542940  
H     3.1853650    0.3437430    2.3971600  
H     7.3373630    0.9665980    2.0189700  
H     7.9231990   -0.5160520   -0.3178740  
H     6.3197580   -2.7051260   -2.6216660  
H     3.7548290   -3.2565500   -1.6751080  
H     5.3549990    1.5437250    3.4607340  
C     0.6551280    1.7024440    0.0768870  
C     1.8737800    1.0879860   -0.0240220  
C     1.6428340   -0.3278640   -0.0486380  
C     0.1881240   -0.5018410    0.0019270  
N    -0.3810700    0.7727230    0.0340520  
C    -0.4846080   -1.6993690    0.0381670  
C     0.4068510   -2.8803940    0.0638080  
O     0.0140390   -4.0167840    0.2876460  
C     1.9385630   -2.7012770   -0.2339380  
O     2.5430300   -3.7387290   -0.5247640  
C     2.5395490   -1.3847320   -0.1411930  
H     2.8334180    1.5712500   -0.1104360  
H    -1.2660670    0.9250420    0.5044090  
C     1.2891100    3.9551370    0.8214550  
C     0.7741340    5.2025470    0.8765100  
C    -0.5474340    5.1624170    0.2832060  
C    -0.7684530    3.7601340   -0.1469340  
N     0.3834100    3.0520710    0.2261880  
C    -1.8754980    3.3373140   -0.8065770  
C    -2.9508310    4.3016350   -1.0552020  
O    -3.9881430    3.9938100   -1.6191680  
C    -2.7515020    5.7799000   -0.5708010  
O    -3.6414690    6.5925670   -0.7567730  
C    -1.4842760    6.1234670    0.0842450  
H     1.2548740    6.0721460    1.3008670  
H    -2.0052820    2.3309300   -1.1853610  
H    -1.3359000    7.1560540    0.3849800  
H     2.2346560    3.5748330    1.1822180  
C    -1.9217770   -1.8417350    0.0926480  
C    -2.9427960   -0.9269300   -0.1864060  
C    -4.1826700   -1.5945420   -0.0029030  
C    -3.8800910   -2.9289320    0.3973670  
N    -2.5147340   -3.0444680    0.4483710  
C    -4.8748980   -3.8773610    0.6663610  
C    -6.1927870   -3.4747240    0.5239920  
O    -7.2013960   -4.3533410    0.7694640  
C    -6.5138020   -2.1434950    0.1197230  
O    -7.8702380   -1.9109420    0.0271620  
C    -5.5354310   -1.2091700   -0.1423460  
H    -2.8212150    0.0724780   -0.5776640  
H    -1.9625930   -3.8751050    0.6219930  
H    -4.6521870   -4.8944310    0.9705550  
H    -8.0401240   -3.8874710    0.6059400  
H    -8.0264640   -1.0046460   -0.2777760  
H    -5.8004970   -0.1999440   -0.4502650  
