62


C     2.1572920   -0.8266300   -1.2677820  
C     3.2539540   -0.5010340   -0.4951830  
C     2.8796470    0.6831800    0.2468360  
C     1.5535500    1.0160730   -0.1235020  
N     1.1414290    0.0828520   -1.0509390  
C     0.8644960    2.1421220    0.3845090  
C     1.5584420    2.9136530    1.3211740  
O     0.9460130    3.9794360    1.9047480  
C     2.8796000    2.5796160    1.7123710  
O     3.4105270    3.4420970    2.6540480  
C     3.5440480    1.4872550    1.1919500  
H     0.2336470    0.0664240   -1.4892300  
H     1.6085020    4.4176370    2.4674820  
H     4.3454620    3.2300090    2.7923830  
H     4.5652890    1.2656970    1.4860390  
H     2.0421280   -1.6149980   -1.9987480  
C    -3.1063560    0.0607540    0.2248940  
C    -1.7702440    0.3211400    0.4479420  
C    -1.5755610    1.6617410   -0.0217050  
C    -2.9252210    2.0799880   -0.5196980  
N    -3.8110960    1.1281850   -0.3721630  
C    -3.1756650    3.3824220   -1.0630480  
C    -2.1245650    4.2338260   -1.1118900  
O    -2.1877350    5.4786720   -1.5854410  
C    -0.7273280    3.8375110   -0.6492120  
O     0.1500780    4.6745110   -0.8462900  
C    -0.4944040    2.5050450   -0.0562040  
H    -1.0241320   -0.3041540    0.9128280  
H    -4.1664650    3.6565800   -1.4068790  
H    -1.2637930    5.8196930   -1.5238780  
C    -3.2180760   -2.1805390    1.2020870  
C    -4.0971670   -3.1904290    1.3807840  
C    -5.3602790   -2.7818560    0.8049770  
C    -5.1520240   -1.4176840    0.2616440  
N    -3.8019270   -1.0905780    0.5320710  
C    -6.1217680   -0.7062510   -0.3602030  
C    -7.4504300   -1.3160960   -0.5037610  
O    -8.3747310   -0.7395550   -1.0532760  
C    -7.6854270   -2.7562980    0.0675930  
O    -8.7846560   -3.2744050   -0.0453320  
C    -6.5541120   -3.4212640    0.7183620  
H    -3.8955480   -4.1317170    1.8721190  
H    -5.9581220    0.2889550   -0.7487240  
H    -6.7119430   -4.4197980    1.1145230  
H    -2.1843830   -2.1158220    1.5071190  
C     3.9266280   -4.8256360   -0.0650370  
C     5.2956600   -4.8206530   -0.1319790  
C     5.7059910   -3.4536010   -0.2905450  
C     4.5261400   -2.6665930   -0.3197240  
N     3.4574160   -3.5315110   -0.1924820  
C     4.5178480   -1.2591050   -0.4446590  
C     5.7761180   -0.6599520   -0.5361030  
O     5.8833240    0.6985460   -0.6744550  
C     6.9673310   -1.4307420   -0.5051620  
O     8.1208400   -0.6687730   -0.6075190  
C     6.9534600   -2.8070580   -0.3911510  
H     5.9382590   -5.6887840   -0.0769420  
H     2.5009620   -3.2303160   -0.0888690  
H     6.8291490    0.8911750   -0.8003240  
H     8.8801020   -1.2546580   -0.7419570  
H     7.8842320   -3.3703240   -0.3686300  
H     3.2371720   -5.6499050    0.0529520  
