62


C     3.6492190   -0.5573060    0.0114010  
C     3.5966990   -1.8698430    0.4130470  
C     4.8725370   -2.4500810    0.1039780  
C     5.6680800   -1.4284710   -0.4786330  
N     4.9011980   -0.2767170   -0.5135480  
C     6.9851260   -1.6409520   -0.8991080  
C     7.5125820   -2.9125530   -0.7308560  
O     8.7901390   -3.1762420   -1.1310540  
C     6.7355850   -3.9457890   -0.1434050  
O     7.4020010   -5.1520950   -0.0378350  
C     5.4348310   -3.7306680    0.2741000  
H     2.7607810   -2.3456210    0.9061630  
H     5.1300440    0.5722630   -1.0084030  
H     7.5946840   -0.8622160   -1.3456310  
H     8.9676580   -4.1114560   -0.9311420  
H     6.8129820   -5.8143760    0.3525020  
H     4.8604370   -4.5390000    0.7224330  
C     1.3415460    0.2250220   -0.3535420  
C     0.6173490    1.3973100   -0.2420590  
C     1.5468830    2.3983330    0.2476310  
C     2.7968410    1.7606120    0.4280680  
N     2.6561270    0.4266370    0.0356740  
C     3.9185630    2.4166590    0.9529640  
C     3.7780260    3.7573480    1.2753130  
O     4.8381050    4.4512580    1.7765860  
C     2.5361650    4.4189420    1.0838880  
O     2.5539750    5.7523050    1.4413010  
C     1.4285630    3.7592360    0.5894310  
H     4.8665870    1.9194810    1.1226660  
H     4.5428000    5.3691790    1.9086820  
H     1.7303710    6.1741440    1.1533860  
H     0.4959010    4.2899880    0.4320050  
H     1.0579390   -0.7268290   -0.7797610  
C    -2.7142740   -1.2547180    0.6779740  
C    -3.7512720   -0.6117300    0.0538840  
C    -3.1747300    0.5941740   -0.5505790  
C    -1.7336050    0.5739240   -0.2250150  
N    -1.5201220   -0.5913210    0.4922000  
C    -0.8079570    1.5306130   -0.5557220  
C    -1.3415120    2.7032600   -1.2769170  
O    -0.6506430    3.6494580   -1.6215830  
C    -2.8787640    2.7542220   -1.6206660  
O    -3.3058560    3.7500030   -2.1848860  
C    -3.7263800    1.6319360   -1.2341640  
H    -4.7724570    1.6682580   -1.5119810  
H    -2.7358390   -2.1881740    1.2246530  
H    -0.6399960   -0.8119350    0.9348680  
C    -6.3911840   -2.2038170    3.2480110  
C    -5.3653850   -1.6449290    2.5546940  
C    -5.7745730   -1.5526980    1.1673920  
C    -7.1476330   -2.1062610    1.1127920  
N    -7.4513440   -2.5035390    2.4005390  
C    -7.9226770   -2.1754840   -0.0021380  
C    -7.3726510   -1.6643140   -1.2440890  
O    -7.9874520   -1.6424680   -2.2999330  
C    -5.9005530   -1.1037230   -1.2311620  
O    -5.4209030   -0.7318090   -2.2881380  
C    -5.1414200   -1.0692990    0.0469800  
H    -4.4300550   -1.3031880    2.9705270  
H    -8.9298500   -2.5802510   -0.0068890  
H    -6.4686560   -2.4200750    4.3052480  
H    -8.3434260   -2.8726290    2.6899900  
