64


C    -4.6808360   -0.4196260    2.2186940  
C    -5.6055510   -1.4272470    2.1676680  
C    -5.5071020   -2.0267810    0.8668560  
C    -4.4916650   -1.3302400    0.1626070  
N    -3.9932970   -0.3429280    1.0077260  
C    -4.1098120   -1.6671770   -1.1413320  
C    -4.7742820   -2.7201820   -1.7491530  
O    -4.4461680   -3.0882440   -3.0239970  
C    -5.7984600   -3.4250460   -1.0630250  
O    -6.3669290   -4.4481110   -1.8022560  
C    -6.1683440   -3.0939740    0.2268040  
H    -6.2908280   -1.6996180    2.9591740  
H    -3.3389160   -1.1308770   -1.6816450  
H    -5.0274140   -3.8294800   -3.2654950  
H    -7.0735570   -4.8616360   -1.2851410  
H    -6.9528710   -3.6514470    0.7355380  
H    -4.4629190    0.2951890    2.9999570  
C    -0.2262290    0.0355760    3.1287450  
C     0.3020070    1.0598660    2.3859380  
C    -0.6510250    1.3771140    1.3542380  
C    -1.7525870    0.5046680    1.5476440  
N    -1.4671200   -0.3018450    2.6258400  
C    -2.9108820    0.5353690    0.7510610  
C    -2.9473540    1.4921960   -0.2591780  
O    -4.0405880    1.6101040   -1.0551990  
C    -1.8449940    2.3612240   -0.4830460  
O    -2.0343980    3.2203380   -1.5469300  
C    -0.6807200    2.3181350    0.2863550  
H     1.2518860    1.5421050    2.5643870  
H    -2.0726860   -1.0326020    2.9678640  
H    -3.8340180    2.3406690   -1.6700960  
H    -1.7682380    4.1177320   -1.2555920  
H     0.1794400   -0.4839440    3.9851090  
C     3.5749100    1.2657600   -0.3385050  
C     4.0478450    2.5537930   -0.5856960  
C     2.9431210    3.4336820   -0.4905430  
C     1.7951490    2.6380750   -0.1732200  
N     2.2116400    1.3399120   -0.0984250  
C     0.4917280    3.1747590   -0.0221680  
C     0.4038640    4.5488670   -0.2257240  
O    -0.8197260    5.1756840   -0.1360520  
C     1.5321140    5.3594260   -0.5388120  
O     1.2153410    6.6946240   -0.6895280  
C     2.7936580    4.8282360   -0.6674290  
H     5.0714450    2.8158710   -0.8150880  
H     1.6576010    0.5294710    0.1467460  
H    -0.6683020    6.1273140   -0.2855110  
H     2.0167740    7.2034070   -0.8825320  
H     3.6451400    5.4588040   -0.9116970  
C     4.2303450   -0.0013970   -0.2989950  
C     5.5495080   -0.3342140   -0.5029420  
C     5.6210600   -1.7540070   -0.3333530  
C     4.2071000   -2.1643670   -0.0152090  
N     3.4035760   -1.1412340    0.0037920  
C     3.8571030   -3.5383950    0.2281100  
C     4.8519870   -4.4540680    0.1607990  
O     4.6875760   -5.7657840    0.3622030  
C     6.2886490   -4.0729620   -0.1573270  
O     7.1033730   -5.0007910   -0.1884740  
C     6.6187480   -2.6788380   -0.4003290  
H     6.3680120    0.3295920   -0.7432850  
H     2.8319760   -3.8108620    0.4528180  
H     5.5884900   -6.1495870    0.2419180  
H     7.6532190   -2.4393540   -0.6252910  
