60


C    -2.9293160    1.6558030   -2.5384880  
C    -4.2599570    1.3623990   -2.6729400  
C    -4.5065520    0.1812650   -1.8979830  
C    -3.2757490   -0.2096420   -1.3177220  
N    -2.3317350    0.7004920   -1.7360520  
C    -3.1364540   -1.3204330   -0.4370880  
C    -4.3264120   -2.0419290   -0.1790680  
O    -4.3167010   -3.1564280    0.5811450  
C    -5.5588550   -1.6549010   -0.7706920  
O    -6.6114580   -2.4813050   -0.4263290  
C    -5.6634400   -0.5712610   -1.6176580  
H    -4.9828150    1.9217100   -3.2504270  
H    -1.3894440    0.7422100   -1.3810020  
H    -5.2343120   -3.4825290    0.6230380  
H    -7.4313430   -2.1514240   -0.8220750  
H    -6.6228560   -0.3051260   -2.0567360  
H    -2.3440130    2.4618330   -2.9573910  
C    -1.8602870   -1.6790940    0.1407270  
C    -0.5945030   -1.4266960   -0.3627040  
C     0.3261420   -2.0075920    0.5706160  
C    -0.5540190   -2.5661550    1.6500900  
N    -1.8142760   -2.3701730    1.3994300  
C    -0.0098270   -3.2485830    2.7933240  
C     1.3322050   -3.4160540    2.8381120  
O     1.9809690   -4.0431930    3.8274540  
C     2.2526670   -2.8694900    1.7682240  
O     3.4609140   -3.0126580    1.9570520  
C     1.6866270   -2.1542180    0.6096650  
H    -0.3396460   -1.0522920   -1.3438050  
H    -0.6692810   -3.6305170    3.5643770  
H     2.9332510   -3.9876340    3.5827260  
C     2.6705510    1.9256780   -0.6540770  
C     3.5732780    1.6496910   -1.6445530  
C     3.6886390    0.2167210   -1.7335450  
C     2.7598540   -0.3332260   -0.7241520  
N     2.1140240    0.7563140   -0.1332470  
C     2.6124170   -1.6496930   -0.4211820  
C     3.4275670   -2.6058760   -1.2119280  
O     3.3385230   -3.8104500   -1.0651210  
C     4.3994490   -2.0414150   -2.3105780  
O     5.0782510   -2.8323310   -2.9479660  
C     4.4552280   -0.5978860   -2.5111230  
H     4.0734800    2.3685550   -2.2764780  
H     5.1429050   -0.2171750   -3.2597470  
H     1.7504530    0.6970780    0.8089930  
C     3.1235240    4.3025060   -0.2511120  
C     2.5296880    5.3896110    0.2837130  
C     1.2269320    4.9860040    0.7725000  
C     1.0959850    3.5382980    0.4724840  
N     2.2989900    3.1612850   -0.1502320  
C    -0.0146570    2.8121320    0.7536470  
C    -1.1426810    3.4820810    1.4143330  
O    -2.1742230    2.8961030    1.6931870  
C    -1.0058440    5.0029670    1.7641460  
O    -1.9260050    5.5724220    2.3256450  
C     0.2377610    5.6828030    1.3855460  
H     2.9560080    6.3800380    0.3527830  
H    -0.1399620    1.7626460    0.5150720  
H     0.3215340    6.7423460    1.6071630  
H     4.1050930    4.1946640   -0.6895400  
