62


C     3.6692800    0.5685610   -0.1091580  
C     2.4849560   -0.1045920    0.1336040  
C     2.6490060   -1.4652620   -0.2780240  
C     3.9798560   -1.5836010   -0.7633720  
N     4.5823670   -0.3495330   -0.6295490  
C     4.5220940   -2.7854480   -1.2205630  
C     3.7102920   -3.9093030   -1.1497760  
O     4.1792940   -5.1139580   -1.5639920  
C     2.3861070   -3.8368600   -0.6422830  
O     1.7240390   -5.0408920   -0.6613440  
C     1.8124730   -2.6245860   -0.2371590  
H     1.6187500    0.3292870    0.6087470  
H     5.4643690   -0.0846890   -1.0435570  
H     5.5382280   -2.8737020   -1.5909470  
H     3.4640430   -5.7535900   -1.3802480  
H     1.2399960   -5.1173870    0.1930100  
C    -1.4529080    0.0907390   -1.4596450  
C    -0.3048410   -0.6141140   -1.3570620  
C    -0.4592580   -1.5679000   -0.2790610  
C    -1.8192520   -1.3612940    0.2623240  
N    -2.3973960   -0.3364210   -0.5031970  
C    -2.3293660   -2.0205500    1.3357170  
C    -1.5128880   -3.0704480    1.9258560  
O    -1.8445960   -3.7084830    2.9113210  
C    -0.1514410   -3.4282660    1.2327150  
O     0.3830200   -4.4778320    1.5789740  
C     0.4077840   -2.5192390    0.2096320  
H     0.5653600   -0.5086170   -1.9857140  
H    -3.2768980   -1.7860400    1.8045190  
H    -1.7390430    0.8547020   -2.1681310  
C    -3.6641030    0.2100660   -0.3933900  
C    -4.0761030    1.4736990   -0.7145840  
C    -5.4988480    1.5293620   -0.4981540  
C    -5.8964410    0.1846550   -0.0166660  
N    -4.7248170   -0.5665210    0.0813320  
C    -7.1669740   -0.1888920    0.2565330  
C    -8.2304190    0.8077450    0.0978160  
O    -9.4032170    0.5593870    0.3234320  
C    -7.8280340    2.2532210   -0.3704550  
O    -8.7039010    3.0957370   -0.4967620  
C    -6.4185180    2.5220370   -0.6487590  
H    -3.4417100    2.2954740   -1.0121590  
H    -7.4411210   -1.1813270    0.6010450  
H    -6.1541320    3.5184470   -0.9892040  
H    -4.7213220   -1.5758250    0.0248960  
C     1.2995900    4.3883790   -0.2389210  
C     1.6788620    3.0725400   -0.2977970  
C     3.0755240    3.0158390    0.0356950  
C     3.4911710    4.3534900    0.2802780  
N     2.3878300    5.1633250    0.1118050  
C     4.8050030    4.7046640    0.6058420  
C     5.7279130    3.6733460    0.6938090  
O     7.0205480    3.9453200    1.0278270  
C     5.3418390    2.3331740    0.4548630  
O     6.3881820    1.4171160    0.5748910  
C     4.0328810    1.9668720    0.1220310  
H     1.0403870    2.2442640   -0.5656570  
H     2.3817560    6.1652690    0.2205970  
H     5.1153400    5.7268340    0.7957580  
H     7.4788270    3.0870710    1.0786300  
H     6.0559510    0.6187080    1.0187800  
H     0.3369600    4.8458040   -0.4191960  
