64


C    -6.2155240   -1.2015640    2.8092050  
C    -5.1824750   -0.6579850    2.0903130  
C    -5.0821670   -1.3926060    0.8582000  
C    -6.1090390   -2.3743170    0.8887450  
N    -6.7691470   -2.2461090    2.0944350  
C    -6.3615840   -3.2511130   -0.1707470  
C    -5.5722430   -3.1100170   -1.3009110  
O    -5.7726060   -3.9116810   -2.3818860  
C    -4.5422410   -2.1339330   -1.3694230  
O    -3.8471730   -2.1494500   -2.5575740  
C    -4.2462780   -1.2874270   -0.2951880  
H    -4.5693090    0.1737580    2.4039130  
H    -7.5777600   -2.7799870    2.3710860  
H    -7.1506750   -3.9959160   -0.1480610  
H    -5.1374550   -3.5989550   -3.0553280  
H    -3.7350330   -1.2085080   -2.8296530  
H    -6.6067020   -0.9308720    3.7798240  
C    -0.9469880   -0.4670260    2.5577560  
C    -1.9974730   -1.0055590    1.8829100  
C    -2.2011250   -0.2143440    0.6902100  
C    -1.1607960    0.8396590    0.7226860  
N    -0.4376500    0.6327250    1.8809350  
C    -0.9881620    1.8330040   -0.2006790  
C    -1.8829160    1.7761690   -1.3631860  
O    -1.8293430    2.5558180   -2.2971150  
C    -2.9285160    0.5980120   -1.4599090  
O    -3.5235190    0.4958770   -2.5321250  
C    -3.1252090   -0.3202520   -0.3289280  
H    -2.5780690   -1.8646900    2.1784820  
H    -0.4963060   -0.7828830    3.4895290  
H     0.3305350    1.2157810    2.1756460  
C     3.4345890    1.5938010    0.0277300  
C     3.6725430    2.9458750    0.1409630  
C     2.4056680    3.6163570    0.1259540  
C     1.4083730    2.6160360    0.0132170  
N     2.0485670    1.3819980    0.0042000  
C     0.0306010    2.8965930   -0.0696810  
C    -0.3253390    4.2486820   -0.0224690  
O    -1.6386540    4.5990940   -0.0502760  
C     0.6602560    5.2605800    0.1042280  
O     0.1364950    6.5381800    0.1568780  
C     2.0092010    4.9661740    0.1851890  
H     4.6457680    3.4014240    0.2623560  
H     1.6396190    0.5742790   -0.4477670  
H    -1.6788530    5.5703820   -0.0944450  
H     0.8548030    7.1852680    0.0983080  
H     2.7430140    5.7633450    0.2835890  
C     4.3494440    0.4772930   -0.0238380  
C     5.6689440    0.4169910   -0.4230930  
C     6.1066900   -0.9373410   -0.2749230  
C     5.0025080   -1.6802310    0.2216710  
N     3.9340180   -0.8081440    0.3318310  
C     5.0767800   -3.0482710    0.5038860  
C     6.2873990   -3.6845530    0.2721840  
O     6.4155340   -5.0178770    0.5334070  
C     7.3985020   -2.9622870   -0.2396400  
O     8.5286600   -3.7372180   -0.4229090  
C     7.3222680   -1.6101550   -0.5161380  
H     6.2382880    1.2450200   -0.8225080  
H     3.1120870   -0.9902940    0.8883890  
H     4.2361930   -3.6195000    0.8846090  
H     7.3238490   -5.2714070    0.2947720  
H     9.2382320   -3.1909650   -0.7918600  
H     8.1879470   -1.0780000   -0.9056350  
