60


C     7.9235220    1.6271240    0.5698650  
C     6.5670670    1.4608650    0.4797270  
C     6.3233100    0.0807210    0.1695470  
C     7.5947330   -0.5489830    0.0958370  
N     8.5493060    0.4176660    0.3315720  
C     7.7636520   -1.9153690   -0.1512120  
C     6.6149840   -2.6744050   -0.3006260  
O     6.7025900   -4.0141570   -0.5291050  
C     5.3274580   -2.0840050   -0.2121630  
O     4.2925360   -2.9752010   -0.4150230  
C     5.1499670   -0.7078050   -0.0097800  
H     5.8298010    2.2396850    0.5993060  
H     9.5430250    0.2551500    0.3665040  
H     8.7385570   -2.3887130   -0.2107440  
H     5.7801540   -4.3287480   -0.5849650  
H     3.6416700   -2.8565670    0.3079220  
H     8.5042610    2.5145050    0.7785570  
C     3.4186800    2.7160330   -2.1789200  
C     2.1542210    2.7596830   -1.6944850  
C     2.0764360    1.6681460   -0.7347320  
C     3.4423310    1.0551030   -0.7687610  
N     4.2122600    1.6720300   -1.6164060  
C     3.7971220   -0.1194880    0.0277650  
C     2.7627000   -0.6453760    0.7452150  
O     2.8968660   -1.7540600    1.5267420  
C     1.3990520   -0.0595450    0.8247970  
O     0.6072950   -0.5903290    1.6052000  
C     1.0662310    1.1583760    0.0224050  
H     1.3527830    3.4236430   -1.9828530  
H     2.0184950   -1.8618360    1.9613250  
H     3.8691740    3.3564040   -2.9277770  
C    -0.2722990    1.7253560    0.1008050  
C    -0.6281850    3.0433570    0.1015840  
C    -2.0734290    3.0577220    0.2158290  
C    -2.4580190    1.6142730    0.2673030  
N    -1.4127300    0.8510300    0.1894590  
C    -3.8550610    1.1700790    0.3726850  
C    -4.7741180    2.1870810    0.4331380  
O    -6.1011200    1.9917400    0.5817590  
C    -4.4126920    3.6314640    0.3821150  
O    -5.3289400    4.4560100    0.4576420  
C    -3.0008560    4.0335650    0.2620350  
H     0.0232150    3.9054890    0.0790420  
H    -6.4844120    2.8987460    0.6102910  
H    -2.7852410    5.0967070    0.2172530  
C    -3.3129660   -1.2401980    0.8910760  
C    -4.1577660   -0.2515670    0.4453600  
C    -5.3794870   -0.9860800    0.0418490  
C    -5.0601400   -2.4127750    0.3538070  
N    -3.8603130   -2.5403960    0.8546900  
C    -5.9866890   -3.4819810    0.1016540  
C    -7.1742790   -3.1688060   -0.4694120  
O    -8.1300630   -4.0593140   -0.7721230  
C    -7.5156210   -1.7495050   -0.8298840  
O    -8.6074220   -1.5425400   -1.3564940  
C    -6.5498470   -0.6676740   -0.5452360  
H    -5.7149540   -4.5004240    0.3558200  
H    -8.8571490   -3.5342140   -1.1744090  
H    -6.8514760    0.3387970   -0.8033350  
H    -2.3015620   -1.1104320    1.2489690  
