62


C    -6.3755680    3.1909370   -1.5325940  
C    -5.3328890    2.3651140   -1.1983430  
C    -5.8706370    1.2960630   -0.4049250  
C    -7.2706380    1.5299340   -0.3068430  
N    -7.5438950    2.6973400   -0.9887390  
C    -8.1459110    0.6653360    0.3529410  
C    -7.6010270   -0.4872930    0.9010610  
O    -8.4011760   -1.3783380    1.5433300  
C    -6.2148480   -0.7685310    0.8013560  
O    -5.8456510   -1.9437910    1.4179690  
C    -5.3175970    0.1208940    0.1929770  
H    -4.3016860    2.5129860   -1.4820630  
H    -8.4613860    3.0956070   -1.1128790  
H    -9.2132660    0.8471820    0.4271900  
H    -7.8156780   -2.1128540    1.8107190  
H    -5.2476220   -2.4153070    0.7982980  
H    -6.3807870    4.1009840   -2.1155660  
C    -1.7240620    2.6255780    1.0514350  
C    -3.0009040    2.1842470    0.9992530  
C    -2.9198940    0.8220230    0.4738790  
C    -1.4635800    0.5984270    0.2835030  
N    -0.7748740    1.6569200    0.6003890  
C    -0.9185340   -0.6594800   -0.2379900  
C    -1.8641140   -1.5985720   -0.5306440  
O    -1.5457000   -2.8383440   -1.0161480  
C    -3.3080760   -1.4270310   -0.2880970  
O    -4.0202350   -2.4306450   -0.4841450  
C    -3.8616050   -0.1143970    0.1638030  
H    -3.9035450    2.7068220    1.2776180  
H    -2.4031430   -3.3184500   -1.0645090  
H    -1.3568390    3.5866200    1.3894580  
C     2.7089300   -0.0180300    2.3583040  
C     1.4316480   -0.1040030    1.8869960  
C     1.5025500   -0.5327460    0.5173990  
C     2.8765400   -0.7060650    0.2156500  
N     3.6115990   -0.3617030    1.3518200  
C     3.3329120   -1.2190420   -1.0022590  
C     2.3738020   -1.5533110   -1.9456280  
O     2.7512250   -2.0615140   -3.1493470  
C     0.9909850   -1.3916870   -1.6783990  
O     0.1787200   -1.7451620   -2.7327460  
C     0.5239900   -0.8569770   -0.4658700  
H     0.5408550    0.1453560    2.4418970  
H     4.3813690   -1.3875840   -1.2182370  
H     1.9210360   -2.2385960   -3.6315130  
H    -0.5370220   -2.3217520   -2.3881960  
H     3.0844440    0.3010560    3.3196060  
C     5.6970300   -0.9293380    2.5628910  
C     4.9979650   -0.4184690    1.5152400  
C     6.0114600    0.2226820    0.6514580  
C     7.2932760   -0.0506760    1.3602000  
N     7.0995710   -0.7131220    2.4675820  
C     8.5527920    0.4025180    0.8310390  
C     8.5371350    1.1350260   -0.3088940  
O     9.6366570    1.6302690   -0.9031550  
C     7.2550830    1.4660310   -1.0159940  
O     7.3186770    2.1405240   -2.0421560  
C     5.9724650    0.9646970   -0.4698420  
H     9.4736590    0.1716400    1.3551600  
H     9.3113530    2.1100510   -1.6959070  
H     5.0680050    1.2097250   -1.0176370  
H     5.3012420   -1.4566970    3.4219830  
