60


C    -3.1765490   -0.8125350   -1.1687350  
C    -2.2677040   -1.6911830   -0.5992000  
C    -3.0426800   -2.8384700   -0.1567430  
C    -4.3948830   -2.5791080   -0.4955250  
N    -4.4347450   -1.3472450   -1.1244300  
C    -5.4456660   -3.4513300   -0.1917580  
C    -5.1296990   -4.6210070    0.4806530  
O    -6.1118650   -5.5122800    0.8021420  
C    -3.7858760   -4.8968420    0.8407640  
O    -3.6232420   -6.0957030    1.5111630  
C    -2.7523900   -4.0292620    0.5393180  
H    -5.2713330   -0.8803910   -1.4400810  
H    -6.4774490   -3.2422780   -0.4551120  
H    -5.6836470   -6.2567140    1.2590040  
H    -2.6814170   -6.2396880    1.6852930  
H    -1.7338830   -4.2773620    0.8172870  
H    -2.9973670    0.1520630   -1.6149030  
C    -0.1572020    2.0817110   -0.0059850  
C     1.1567510    1.6604700    0.0581860  
C     1.1242130    0.2448120   -0.0963610  
C    -0.3354970   -0.0788680   -0.2661130  
N    -1.0641990    1.0014380   -0.1994420  
C    -0.8346510   -1.4294340   -0.4786200  
C     0.1486310   -2.3805730   -0.5624050  
O    -0.1003110   -3.6793930   -0.7986690  
C     1.6161560   -2.1096440   -0.3771680  
O     2.3507000   -3.0974770   -0.4022720  
C     2.1001990   -0.7259490   -0.1474170  
H     2.0393640    2.2701220    0.1806590  
H     0.7911600   -4.1036510   -0.7822150  
C     0.0442520    4.5763140    0.1720610  
C    -0.6888530    3.4135500    0.0801430  
C    -2.0991170    3.8235340    0.0726610  
C    -2.1019420    5.3024670    0.1605420  
N    -0.7681750    5.6819310    0.2217290  
C    -3.2092540    6.0832980    0.1784870  
C    -4.5144790    5.4274640    0.1020320  
O    -5.5689110    6.0416780    0.1114260  
C    -4.5400550    3.8597750    0.0026860  
O    -5.6156270    3.2908480   -0.0898920  
C    -3.2638890    3.1306640    0.0132270  
H    -3.1792330    7.1662530    0.2489650  
H    -3.2817590    2.0490050   -0.0340630  
H     1.1192890    4.6955930    0.1986460  
H    -0.4445790    6.6361050    0.2786810  
C     3.5126550   -0.4631210    0.0230310  
C     4.0972490    0.4949630    0.8178320  
C     5.5185960    0.3547450    0.6240650  
C     5.6425320   -0.7598290   -0.3700220  
N     4.4832070   -1.2388280   -0.7096510  
C     6.9288810   -1.1962400   -0.8520040  
C     8.0278480   -0.5800330   -0.3571760  
O     9.2865540   -0.8845220   -0.7057640  
C     7.9342310    0.5347380    0.6589640  
O     8.9931690    1.0334260    1.0452480  
C     6.6158750    0.9724390    1.1260840  
H     3.6056560    1.1638620    1.5093950  
H     6.9929890   -1.9996370   -1.5772530  
H     9.8521190   -0.2727670   -0.1823730  
H     6.5876210    1.7807020    1.8505500  
