60


C    -6.8831470    2.4787700   -2.0626420  
C    -7.9344550    2.2086930   -1.2278500  
C    -7.4296760    1.3630200   -0.1826550  
C    -6.0546220    1.1398230   -0.4586370  
N    -5.7549100    1.8043890   -1.6304220  
C    -5.2263860    0.3238340    0.3494490  
C    -5.8233710   -0.1764710    1.5163170  
O    -5.0829500   -0.8772990    2.4214800  
C    -7.1934070    0.0482170    1.8021770  
O    -7.6155200   -0.5392510    2.9841990  
C    -8.0052140    0.7848610    0.9638620  
H    -8.9501590    2.5628200   -1.3405890  
H    -4.8024600    2.0988950   -1.8192430  
H    -5.6951100   -1.1688890    3.1195160  
H    -8.5574180   -0.3562020    3.1137800  
H    -9.0573460    0.9322820    1.2005890  
H    -6.8408660    3.0949500   -2.9501540  
C    -1.7487890    2.7180410   -1.0207540  
C    -0.7447800    1.8122040   -0.9709800  
C    -1.3787630    0.5620100   -0.5751220  
C    -2.8252520    0.9187950   -0.3952120  
N    -3.0236870    2.1793410   -0.6794100  
C    -3.8330650   -0.0479280    0.0116790  
C    -3.3952780   -1.3452230    0.0586950  
O    -4.1931170   -2.3888150    0.3099090  
C    -1.9579380   -1.7389620   -0.1136840  
O    -1.6669640   -2.9155690    0.0848710  
C    -0.9312560   -0.7126720   -0.4641650  
H     0.3002040    1.9596060   -1.2015990  
H    -3.5989890   -3.1715540    0.3356350  
H    -1.6893050    3.7656720   -1.2913050  
C     2.9211170    0.4144500    1.4535910  
C     1.6172840    0.3334020    1.0895490  
C     1.5209600   -0.6571310    0.0401270  
C     2.8985190   -1.1563940   -0.1816880  
N     3.7186470   -0.4656920    0.7112720  
C     3.2404170   -2.1159800   -1.0773420  
C     2.1844660   -2.7156180   -1.8846630  
O     2.3877150   -3.6092540   -2.6909080  
C     0.7219650   -2.1783550   -1.7072220  
O    -0.1439480   -2.5739940   -2.4660410  
C     0.4559940   -1.1576350   -0.6614250  
H     0.8011680    0.9020290    1.5086910  
H     4.2563320   -2.4706870   -1.2122720  
H     3.3882150    1.0323070    2.2089890  
C     5.7857580   -1.7245040    1.2396490  
C     5.1123910   -0.6045650    0.8469660  
C     6.0992520    0.4299000    0.5748730  
C     7.4149880   -0.1932250    0.8507180  
N     7.1499900   -1.4978950    1.2383580  
C     8.6037630    0.4456060    0.7248580  
C     8.5976810    1.8419780    0.2859600  
O     9.6171810    2.4977090    0.1494050  
C     7.2105050    2.5178720   -0.0196020  
O     7.1853350    3.6797970   -0.3888130  
C     5.9926910    1.7168740    0.1562050  
H     9.5608190   -0.0233430    0.9314450  
H     5.0401630    2.1895240   -0.0624910  
H     5.3869090   -2.6897290    1.5216770  
H     7.8515930   -2.1874050    1.4597290  
