62


C     3.2490560    0.1390100    0.5425120  
C     1.8860200    0.3319530    0.5694120  
C     1.6454190    1.6973510    0.2115090  
C     2.9158650    2.2825370   -0.0522890  
N     3.8763750    1.3109640    0.1634630  
C     3.0755810    3.5937690   -0.4900930  
C     1.9184060    4.3373310   -0.6990890  
O     2.0117490    5.6225300   -1.1262120  
C     0.6347420    3.7816670   -0.4854660  
O    -0.3915280    4.6650970   -0.7230780  
C     0.4617340    2.4756990    0.0065400  
H     1.1558190   -0.4295040    0.7961770  
H     4.8739300    1.4589780    0.1845050  
H     4.0454950    4.0367270   -0.6913180  
H     1.0921560    5.9306090   -1.2424170  
H    -1.0794300    4.1782060   -1.2293390  
C    -1.2403560    0.2394140    3.4837670  
C    -0.4167890    0.9889150    2.7128520  
C    -1.1420610    1.2146250    1.4662800  
C    -2.4213920    0.5055420    1.6745180  
N    -2.4773900   -0.0694980    2.8443090  
C    -3.4614570    0.4811190    0.6526530  
C    -3.2413990    1.2397900   -0.4629340  
O    -4.1618180    1.4051890   -1.4365820  
C    -1.9900070    1.9999770   -0.6569920  
O    -1.9494860    2.7258150   -1.6677730  
C    -0.8565190    1.9027150    0.3195700  
H     0.5662800    1.3642370    2.9543230  
H    -3.7439560    2.0106690   -2.0867220  
H    -1.0748610   -0.1235850    4.4904250  
C    -5.3138830   -0.3601450    2.0751370  
C    -6.4035940   -1.1566320    1.9725310  
C    -6.4475650   -1.6743530    0.6248110  
C    -5.2734620   -1.1006850   -0.0769240  
N    -4.6216600   -0.2760790    0.8527170  
C    -4.9251380   -1.4211650   -1.3462600  
C    -5.7837370   -2.3439370   -2.0937620  
O    -5.5407740   -2.6793810   -3.2421310  
C    -7.0592110   -2.9198210   -1.3840840  
O    -7.7927350   -3.6756460   -2.0019550  
C    -7.3008350   -2.5316630    0.0059530  
H    -7.1094710   -1.3721840    2.7617210  
H    -4.0567620   -1.0223320   -1.8524680  
H    -8.1590960   -2.9654310    0.5100700  
H    -4.9289680    0.1799070    2.9255390  
C     3.6766530   -1.8576380    1.9262660  
C     4.5944080   -2.8652590    1.9850710  
C     5.5401790   -2.6473550    0.9241920  
C     5.1369360   -1.4755980    0.2369770  
N     3.9888960   -0.9926930    0.8737170  
C     5.8146230   -0.9951610   -0.8914340  
C     6.9378910   -1.6938940   -1.3105280  
O     7.6328530   -1.2621550   -2.4015570  
C     7.3684440   -2.8561470   -0.6197880  
O     8.5020470   -3.4349340   -1.1544180  
C     6.6823100   -3.3393770    0.4796470  
H     4.6054690   -3.6689720    2.7084600  
H     5.4868520   -0.1330610   -1.4609470  
H     8.3608680   -1.8905740   -2.5482590  
H     8.7104720   -4.2489700   -0.6725920  
H     7.0190010   -4.2417140    0.9861040  
H     2.8250150   -1.6395080    2.5536100  
