60


C     5.5409890   -2.3597360    0.2677130  
C     5.0452360   -1.0730800    0.1083860  
C     6.1825550   -0.1845480    0.2638860  
C     7.3134950   -0.9962530    0.5264790  
N     6.8900110   -2.3132100    0.5203820  
C     8.5937830   -0.4770760    0.7557410  
C     8.7370100    0.8999980    0.7130800  
O     9.9594450    1.4666080    0.9147120  
C     7.6149860    1.7324980    0.4525650  
O     7.9150960    3.0811640    0.4379860  
C     6.3539240    1.2139150    0.2363700  
H     7.4938270   -3.1173420    0.5945340  
H     9.4578070   -1.1038360    0.9510580  
H     9.8512090    2.4269390    0.7984890  
H     7.1683360    3.5725260    0.0638110  
H     5.5219400    1.8710040    0.0072770  
H     5.0383070   -3.3085130    0.1405790  
C     1.4009170   -2.8407960    1.7376840  
C     0.4607360   -2.1540770    1.0299660  
C     1.1594390   -1.2081930    0.1847190  
C     2.5968320   -1.4149740    0.4455290  
N     2.6732160   -2.4343260    1.3852420  
C     3.6411590   -0.7455570   -0.1413820  
C     3.2454120    0.3032580   -1.1037290  
O     4.0486450    0.9804850   -1.7234950  
C     1.7157910    0.5901760   -1.3518030  
O     1.4290020    1.5722120   -2.0141070  
C     0.7032600   -0.2719740   -0.7134660  
H    -0.6060550   -2.3174830    1.0618520  
H     1.2673280   -3.6250120    2.4715140  
H     3.5304750   -2.6785560    1.8592380  
C    -2.7371630    0.7572620    1.8483260  
C    -3.7232390    0.8392690    0.9075440  
C    -3.0916460    0.5391730   -0.3762590  
C    -1.6655490    0.2710350   -0.0880980  
N    -1.5170850    0.4333830    1.2785290  
C    -0.7137640   -0.0325240   -1.0201340  
C    -1.1754280   -0.1236750   -2.4256960  
O    -0.4540450   -0.5067150   -3.3285500  
C    -2.6689100    0.2351190   -2.7563470  
O    -3.0231650    0.2505220   -3.9241280  
C    -3.5755220    0.5318250   -1.6470680  
H    -4.6099130    0.7580960   -1.8841520  
H    -2.8142810    0.9040970    2.9178750  
H    -0.6596010    0.2623930    1.7802670  
C    -5.5692310    2.3237320    1.7820120  
C    -5.1202860    1.2054380    1.1424060  
C    -6.3094900    0.4323130    0.7861910  
C    -7.4759780    1.2069810    1.2772850  
N    -6.9543880    2.3321680    1.8871860  
C    -8.7700500    0.8259450    1.1304860  
C    -9.0483110   -0.4428070    0.4630890  
O   -10.1788200   -0.8696930    0.2867860  
C    -7.8259940   -1.2969600   -0.0368880  
O    -8.0349610   -2.3735420   -0.5716520  
C    -6.4728350   -0.7646970    0.1661350  
H    -9.6100100    1.4109800    1.4924760  
H    -5.6390220   -1.3585170   -0.1941730  
H    -4.9913850    3.1471680    2.1811390  
H    -7.5035730    3.0955740    2.2500890  
