62


C    -2.4068600   -1.4645520    0.5823660  
C    -1.2761130   -0.6884250    0.5890370  
C    -1.6548520    0.6257770    0.1381270  
C    -3.0500510    0.5784770   -0.1131410  
N    -3.4912250   -0.7123700    0.1551810  
C    -3.7944600    1.6955600   -0.5023170  
C    -3.1091130    2.8934690   -0.6157840  
O    -3.7688870    4.0290830   -0.9667600  
C    -1.7088070    2.9772070   -0.3775970  
O    -1.1945640    4.2351430   -0.5699070  
C    -0.9460170    1.8540650   -0.0399910  
H    -0.2973190   -1.0131140    0.9127990  
H    -4.8615050    1.6527450   -0.6869040  
H    -3.0981750    4.7389290   -0.9469820  
H    -0.5334960    4.3920020    0.1457560  
H    -2.5441240   -2.5064680    0.8354040  
C     2.0884900   -0.7660800   -1.7711640  
C     3.2339840   -0.2633780   -1.2170040  
C     2.8189300    0.8790460   -0.4036110  
C     1.3442880    0.9708250   -0.5278030  
N     0.9760870   -0.0365600   -1.3903970  
C     0.5297460    1.8966560    0.0860180  
C     1.2409210    2.9419390    0.8237000  
O     0.6966410    3.9472790    1.2825820  
C     2.7969600    2.8342990    1.0318030  
O     3.3401430    3.6540840    1.7536180  
C     3.5224270    1.7768160    0.3352740  
H     4.6005520    1.7439040    0.4465060  
H     1.9784130   -1.6198880   -2.4265910  
H     0.0147650   -0.3080780   -1.5466550  
C     5.1333190   -1.1425070   -2.6435120  
C     4.5829310   -0.7541230   -1.4589680  
C     5.6400180   -1.0382730   -0.4643430  
C     6.7650750   -1.5924510   -1.2754760  
N     6.4565770   -1.6533970   -2.5409680  
C     8.0040870   -2.0012850   -0.6676010  
C     8.1150840   -1.8997890    0.6787650  
O     9.2084790   -2.2506550    1.3752120  
C     6.9874180   -1.3797400    1.5253240  
O     7.1569120   -1.3277000    2.7416080  
C     5.7281650   -0.9510140    0.8760330  
H     8.8076350   -2.3872210   -1.2850220  
H     8.9906740   -2.0690340    2.3155980  
H     4.9415660   -0.5795430    1.5252340  
H     4.6753230   -1.0838540   -3.6241750  
C    -6.2489660   -1.8648830    3.3271050  
C    -7.3018310   -2.2191330    2.5243610  
C    -6.8894720   -2.0046680    1.1652970  
C    -5.5588520   -1.5162350    1.2168530  
N    -5.1897880   -1.4462620    2.5408540  
C    -4.8280410   -1.1865840    0.0617610  
C    -5.4581980   -1.3510360   -1.1696510  
O    -4.7933650   -1.0541600   -2.3202960  
C    -6.7939420   -1.8290250   -1.2293040  
O    -7.2778900   -1.9351430   -2.5196690  
C    -7.5071030   -2.1590000   -0.0920410  
H    -8.2603300   -2.5896410    2.8605900  
H    -4.3094780   -1.0853430    2.8752150  
H    -5.4148790   -1.2052000   -3.0540190  
H    -8.1991530   -2.2331130   -2.4977780  
H    -8.5284560   -2.5255370   -0.1718510  
H    -6.1582910   -1.8765940    4.4039890  
