62


C     6.3193500    2.8548280    1.2871720  
C     7.5297230    2.2370640    1.1087670  
C     7.2617090    0.9458050    0.5443640  
C     5.8515540    0.8400900    0.3948550  
N     5.3071460    2.0143520    0.8700300  
C     5.2034420   -0.3120890   -0.1114560  
C     6.0560730   -1.3644370   -0.4436350  
O     5.5271910   -2.5530570   -0.9198960  
C     7.4609230   -1.2811830   -0.3051640  
O     8.1231550   -2.4326700   -0.6946190  
C     8.0753890   -0.1428060    0.1771230  
H     8.4983030    2.6469370    1.3593120  
H     4.3271870    2.2491470    0.8246580  
H     6.2814000   -3.1411130   -1.1095650  
H     9.0792210   -2.3027380   -0.6114480  
H     9.1572440   -0.0978820    0.2822130  
H     6.0873560    3.8326110    1.6853200  
C     2.1736010    2.4533950   -1.9576610  
C     3.3356730    1.8475050   -1.5578710  
C     2.9728140    0.6487630   -0.8459580  
C     1.5543880    0.5872700   -0.8668040  
N     1.0954590    1.6929530   -1.5470380  
C     0.8352580   -0.4826170   -0.3019280  
C     1.5827500   -1.5161390    0.2542100  
O     0.9587500   -2.6040200    0.7835420  
C     3.0011380   -1.4723870    0.2762060  
O     3.5654650   -2.5666430    0.8945360  
C     3.7258990   -0.3935020   -0.2335890  
H     4.3358970    2.1940690   -1.7719270  
H     0.1248060    1.9422060   -1.6609670  
H     1.6840650   -3.1874920    1.0843010  
H     4.3270870   -2.8591120    0.3451060  
H     2.0181240    3.3657790   -2.5154460  
C    -1.3163540   -1.5957700   -0.9126310  
C    -2.6527220   -1.3812210   -0.8119390  
C    -2.8369440   -0.1191530   -0.1266320  
C    -1.4743220    0.3867850    0.1670640  
N    -0.5832160   -0.5501880   -0.3451610  
C    -1.2048470    1.5584030    0.8040620  
C    -2.3251400    2.3916260    1.2182100  
O    -2.1857900    3.4778730    1.7603100  
C    -3.7800680    1.8577600    0.9676680  
O    -4.7165780    2.4745030    1.4408610  
C    -3.9604980    0.5796960    0.2278570  
H    -3.4321940   -2.0199910   -1.1992090  
H    -0.1989210    1.8999250    1.0200810  
H    -0.7812000   -2.4230980   -1.3563370  
C    -6.1216710   -3.0807900    1.4255950  
C    -7.3334640   -2.8185910    0.8716950  
C    -7.2337140   -1.5373750    0.2037750  
C    -5.8412570   -1.0708250    0.4144680  
N    -5.2203600   -2.0567390    1.1571140  
C    -5.3335660    0.1171730   -0.0301940  
C    -6.2422780    0.9666410   -0.8310860  
O    -5.8677100    1.9837430   -1.3875430  
C    -7.7323830    0.5062310   -1.0278170  
O    -8.4956420    1.2397050   -1.6364640  
C    -8.1377230   -0.7878530   -0.4828940  
H    -8.2126820   -3.4439600    0.9232990  
H    -9.1662030   -1.1011680   -0.6339410  
H    -5.8031970   -3.9350340    2.0084850  
H    -4.2666210   -2.0109870    1.4806500  
