64


C     0.5607480    0.4979960   -1.5098110  
C     1.8151830    0.0124450   -1.2633430  
C     2.3706220    0.7877310   -0.1900390  
C     1.3832640    1.7330450    0.1882590  
N     0.2779400    1.5484330   -0.6398330  
C     1.5546800    2.6307190    1.2537640  
C     2.7646010    2.5815560    1.9322640  
O     2.9954270    3.4398530    2.9649720  
C     3.7720990    1.6559720    1.5647380  
O     4.9169880    1.7557400    2.3278890  
C     3.6024010    0.7443530    0.5160960  
H     2.2877250   -0.8105460   -1.7788300  
H     0.7799270    3.3145130    1.5834590  
H     3.8991710    3.2660620    3.2825570  
H     5.6131140    1.1995760    1.9303820  
H    -0.1720110    0.2085740   -2.2489250  
C    -4.0146220    0.4198240   -0.2726250  
C    -2.6198160    0.3948840   -0.3172980  
C    -2.1832700    1.7244210   -0.5254530  
C    -3.3505270    2.5508380   -0.5989160  
N    -4.4329440    1.7322320   -0.4466520  
C    -3.2857330    3.9390980   -0.7718250  
C    -2.0266260    4.5039790   -0.8802400  
O    -1.8949340    5.8431840   -1.0493360  
C    -0.8420830    3.7041000   -0.8377740  
O     0.3135360    4.4231900   -1.0156590  
C    -0.9057180    2.3307180   -0.6610400  
H    -2.0010610   -0.4837570   -0.2052140  
H    -5.4131600    1.9792880   -0.4414610  
H    -4.1666620    4.5699970   -0.8128960  
H    -0.9406220    6.0381490   -1.0808680  
H     1.0840670    3.9036440   -0.7253800  
C     4.6699410   -0.1862150    0.1471900  
C     5.1114000   -0.6052030   -1.0849470  
C     6.2198540   -1.4963150   -0.8838710  
C     6.4246480   -1.5937010    0.5129290  
N     5.5150480   -0.7388270    1.1368920  
C     7.4092770   -2.4075240    1.0782840  
C     8.2152950   -3.1326260    0.2109520  
O     9.1893340   -3.9456430    0.7101700  
C     8.0395810   -3.0303970   -1.1940710  
O     8.9242960   -3.8006970   -1.9226100  
C     7.0609730   -2.2241600   -1.7477180  
H     4.7218320   -0.2642660   -2.0342540  
H     5.1493840   -0.9498240    2.0583620  
H     7.5664840   -2.4887100    2.1489830  
H     9.6391120   -4.3574110   -0.0478300  
H     8.7427320   -3.6975640   -2.8684330  
H     6.9420780   -2.1647290   -2.8276970  
C    -4.9878540   -0.6046220   -0.0898570  
C    -4.8449010   -1.9604340    0.1041500  
C    -6.1727890   -2.4761110    0.2251210  
C    -7.0595880   -1.2674610    0.0777610  
N    -6.3646100   -0.1817310   -0.1053110  
C    -8.4923360   -1.3716150    0.1415850  
C    -9.0166440   -2.6042190    0.3403420  
O   -10.3248610   -2.8648180    0.4228490  
C    -8.1497650   -3.8445720    0.4930110  
O    -8.7536480   -4.9084770    0.6692430  
C    -6.7065180   -3.7149980    0.4250890  
H    -3.9246740   -2.5249810    0.1573090  
H    -9.1125100   -0.4888330    0.0331380  
H   -10.3725890   -3.8402040    0.5678390  
H    -6.1141440   -4.6174330    0.5376920  
