62


C    -2.4930370    1.4586190    1.6500260  
C    -3.5633160    2.3030130    1.6682410  
C    -3.2734160    3.3840140    0.7654130  
C    -1.9854020    3.1456410    0.2252130  
N    -1.5109800    1.9535320    0.7856550  
C    -1.4097300    3.9833400   -0.7355400  
C    -2.1374540    5.0942350   -1.1382750  
O    -1.6124740    5.9455020   -2.0697540  
C    -3.4197860    5.3562040   -0.5959340  
O    -4.0192580    6.4990170   -1.0931640  
C    -3.9924930    4.5162160    0.3431560  
H    -4.4622180    2.1701120    2.2545870  
H    -0.4305450    3.8088090   -1.1621090  
H    -2.2673760    6.6496250   -2.2148110  
H    -4.8894250    6.6095960   -0.6827080  
H    -4.9855080    4.7248350    0.7368540  
H    -2.3186510    0.5365020    2.1812970  
C    -0.7244030   -2.1580790   -0.1675640  
C     0.6452730   -2.1393870   -0.3659570  
C     1.0413920   -0.7916540   -0.1411770  
C    -0.2338160   -0.0889600    0.2015190  
N    -1.2581080   -0.8957270    0.1762550  
C    -0.2838330    1.3248670    0.5246890  
C     0.9171890    1.9689650    0.5578710  
O     1.0580370    3.2575920    0.8887620  
C     2.2185420    1.2914900    0.2098140  
O     3.2162300    2.0188220    0.2772710  
C     2.2581470   -0.1321160   -0.1679870  
H     1.2899670   -2.9663990   -0.6145690  
H     2.0247850    3.4324870    0.8010790  
C     3.6151970   -1.7548600   -1.5327470  
C     3.4959750   -0.7538590   -0.5988810  
C     4.8942480   -0.5436290   -0.1375570  
C     5.6852420   -1.5307560   -0.9243400  
N     4.9255720   -2.2174610   -1.7410170  
C     7.1058730   -1.6750360   -0.7689720  
C     7.7265430   -0.8935800    0.1481360  
O     9.0439690   -0.9252010    0.4047760  
C     6.9590930    0.0946290    0.9752710  
O     7.5846840    0.7653050    1.7955470  
C     5.4986580    0.2343020    0.7808440  
H     7.6428210   -2.4006010   -1.3698580  
H     9.1868260   -0.2556580    1.1097870  
H     4.9944340    0.9837520    1.3770780  
H     2.8175480   -2.1739560   -2.1329640  
C    -1.1449500   -4.5320980   -0.5491070  
C    -2.2052650   -5.3800730   -0.5641980  
C    -3.3871000   -4.6074210   -0.2718090  
C    -2.9832280   -3.2646820   -0.0828380  
N    -1.5767010   -3.2276220   -0.2567600  
C    -3.8978660   -2.2494390    0.2109650  
C    -5.2377290   -2.6067370    0.3209260  
O    -6.1626390   -1.6485750    0.6110860  
C    -5.6541340   -3.9467600    0.1368020  
O    -7.0114480   -4.1421670    0.2769040  
C    -4.7426650   -4.9479360   -0.1591970  
H    -2.1603610   -6.4428070   -0.7608320  
H    -3.5982830   -1.2202510    0.3489680  
H    -7.0329490   -2.0820960    0.6366810  
H    -7.2249510   -5.0753200    0.1284130  
H    -5.0741410   -5.9744210   -0.3009550  
H    -0.0977670   -4.7264510   -0.7171320  
