66


C    -4.4829220   -1.2168890    2.1405090  
C    -5.2705780   -2.3334540    2.0654070  
C    -6.0559180   -2.2175440    0.8697730  
C    -5.6874280   -0.9936260    0.2502690  
N    -4.7211140   -0.3881610    1.0483770  
C    -6.2444780   -0.5640160   -0.9651440  
C    -7.2017350   -1.3783110   -1.5538790  
O    -7.7736800   -1.0077010   -2.7368000  
C    -7.5897450   -2.5984030   -0.9416450  
O    -8.5546490   -3.2949930   -1.6461170  
C    -7.0283930   -3.0247270    0.2485500  
H    -5.2934350   -3.1432360    2.7819660  
H    -5.9309820    0.3457240   -1.4661220  
H    -8.3983880   -1.7103440   -2.9859810  
H    -8.7470780   -4.1281190   -1.1913400  
H    -7.3352700   -3.9698440    0.6929280  
H    -3.7671970   -0.9098930    2.8892730  
C    -0.4540730    0.8153170    0.6089000  
C    -1.6166160    0.0885110    0.7613150  
C    -2.7120260    1.0118900    0.7349530  
C    -2.1641500    2.3092830    0.5554330  
N    -0.7939900    2.1585130    0.4535270  
C    -2.9495310    3.4629820    0.4678010  
C    -4.3247030    3.3081280    0.5664940  
O    -5.1415890    4.3994140    0.4929110  
C    -4.9041930    2.0280220    0.7573160  
O    -6.2763300    2.0417670    0.8812640  
C    -4.1149220    0.8821880    0.8362420  
H    -1.6787430   -0.9882420    0.8289410  
H    -0.1259220    2.9104340    0.5318450  
H    -2.5301640    4.4528710    0.3201540  
H    -6.0558240    4.0706100    0.5549050  
H    -6.6305980    1.1454660    0.7524140  
C     1.4816170   -0.6318390    1.3363630  
C     0.9364450    0.3926340    0.5905160  
C     2.0200200    0.9437200   -0.1968840  
C     3.1854620    0.2059130    0.1237400  
N     2.8226020   -0.7551650    1.0479510  
C     4.4544610    0.4557150   -0.4393170  
C     4.5150360    1.4928390   -1.3703740  
O     5.6922360    1.7860270   -1.9873640  
C     3.3528980    2.2330460   -1.7167490  
O     3.5837880    3.2091340   -2.6690910  
C     2.1177260    1.9744320   -1.1530830  
H     3.4703500   -1.3784990    1.5056250  
H     5.5214550    2.5300820   -2.5903440  
H     2.7464470    3.6343580   -2.9057840  
H     1.2424050    2.5414720   -1.4622210  
H     1.0083730   -1.2730350    2.0660680  
C     5.2014780   -3.8540060   -0.9872750  
C     6.4417680   -3.9139050   -0.4066620  
C     6.7709000   -2.5845560    0.0265970  
C     5.6747900   -1.7530270   -0.3201680  
N     4.7281700   -2.5556570   -0.9267130  
C     5.6362210   -0.3642810   -0.0712330  
C     6.7583830    0.1760910    0.5569280  
O     6.7940850    1.5032220    0.8637920  
C     7.8644450   -0.6419850    0.9103730  
O     8.8884880    0.0521800    1.5321020  
C     7.8856100   -2.0005270    0.6601500  
H     7.0512930   -4.8008800   -0.2999820  
H     3.8761230   -2.2172170   -1.3467580  
H     7.6667540    1.6808110    1.2552400  
H     9.6355550   -0.5452510    1.6827570  
H     8.7477790   -2.6004290    0.9454620  
H     4.6034980   -4.6336480   -1.4378960  
