64


C     5.2003410    0.0332960   -2.2489210  
C     4.8743200    0.0058180   -0.9093010  
C     5.7918900   -0.9346240   -0.2939500  
C     6.6401840   -1.4295600   -1.3182750  
N     6.2525880   -0.8233050   -2.4960290  
C     7.6434720   -2.3771720   -1.0795900  
C     7.7922630   -2.8386540    0.2187630  
O     8.7568120   -3.7593440    0.5077330  
C     6.9444520   -2.3651920    1.2561030  
O     7.2096670   -2.9264250    2.4906060  
C     5.9542760   -1.4307200    1.0182450  
H     6.6813800   -0.9717220   -3.3961140  
H     8.2929510   -2.7574680   -1.8615210  
H     8.6908790   -3.9558510    1.4582410  
H     6.5930550   -2.5695570    3.1470480  
H     5.3111420   -1.0904170    1.8261370  
H     4.7663120    0.6221410   -3.0443870  
C     0.5131220    0.5200900   -1.8251540  
C     1.8235910    0.1416360   -1.8393950  
C     2.4804090    0.8227610   -0.7556860  
C     1.5013540    1.6171220   -0.1096170  
N     0.2913400    1.4297440   -0.7869430  
C     1.7761630    2.3603770    1.0426120  
C     3.0744940    2.3213470    1.5259600  
O     3.4068990    3.0454850    2.6359270  
C     4.0718640    1.5504990    0.8805090  
O     5.3171170    1.6416120    1.4725740  
C     3.8072040    0.7887980   -0.2577380  
H     2.2779400   -0.5442360   -2.5400620  
H     1.0368350    2.9688320    1.5478260  
H     4.3624520    2.9256650    2.7744870  
H     5.9649300    1.1824620    0.9116250  
H    -0.3027260    0.2575540   -2.4824020  
C    -3.7375110   -0.2957280   -0.2220710  
C    -2.3727330   -0.1897190   -0.4222440  
C    -2.1025330    1.2070480   -0.3678540  
C    -3.4384800    1.8431460   -0.1317070  
N    -4.3876560    0.9507030   -0.0452310  
C    -3.6045980    3.2636190    0.0020520  
C    -2.4902660    4.0223660   -0.1012090  
O    -2.4683340    5.3525300    0.0128600  
C    -1.1141730    3.4274170   -0.3740760  
O    -0.1977790    4.2393930   -0.5100190  
C    -0.9664840    1.9728090   -0.4736060  
H    -1.6498360   -0.9773100   -0.5637130  
H    -4.5849070    3.6878400    0.1859680  
H    -1.5274500    5.6042320   -0.1449860  
C    -3.9518260   -2.7265720   -0.3256190  
C    -4.9337990   -3.6593910   -0.2272150  
C    -6.1757170   -2.9634240    0.0011810  
C    -5.8876620   -1.5786110    0.0339920  
N    -4.4929710   -1.4397460   -0.1717320  
C    -6.8827020   -0.6190480    0.2386860  
C    -8.1854370   -1.0725110    0.4125950  
O    -9.1863000   -0.1686440    0.6155010  
C    -8.4870260   -2.4550140    0.3820170  
O    -9.8216730   -2.7480310    0.5694190  
C    -7.4962610   -3.4021350    0.1782510  
H    -4.7978100   -4.7295990   -0.3067280  
H    -6.6627380    0.4382730    0.2641620  
H   -10.0142650   -0.6689250    0.7160710  
H    -9.9522450   -3.7074120    0.5403090  
H    -7.7400920   -4.4622810    0.1566060  
H    -2.8933340   -2.8470330   -0.4922520  
