62


C     2.9926050   -2.2912120   -1.0757360  
C     3.8802940   -3.3051870   -1.2292840  
C     5.1517450   -2.8602670   -0.7096570  
C     4.9809420   -1.5376690   -0.2410430  
N     3.6250600   -1.1870480   -0.4732960  
C     6.0283130   -0.8101560    0.3277080  
C     7.2670740   -1.4365350    0.4213340  
O     8.3158980   -0.7613010    0.9700130  
C     7.4517510   -2.7597780   -0.0440260  
O     8.7319760   -3.2430180    0.1168280  
C     6.4064580   -3.4761190   -0.6077650  
H     3.6638430   -4.2707410   -1.6663030  
H     5.8970780    0.2013800    0.6835430  
H     9.0891650   -1.3507430    0.9436550  
H     8.7897720   -4.1432440   -0.2363740  
H     6.5602390   -4.4930560   -0.9622930  
H     1.9489820   -2.2332510   -1.3399800  
C     2.9811550   -0.0163720   -0.1956160  
C     1.6490840    0.2955770   -0.4377680  
C     1.4911480    1.6256600    0.0149030  
C     2.8585450    2.0104610    0.5256890  
N     3.7181060    1.0357380    0.4029160  
C     3.1337880    3.3090410    1.0624290  
C     2.1119710    4.1954890    1.0390700  
O     2.2044130    5.4544320    1.4658680  
C     0.7310740    3.8490230    0.4875160  
O    -0.0605300    4.8161880    0.4696200  
C     0.4219650    2.5100450    0.0380220  
H     0.8878200   -0.3219030   -0.8854720  
H     4.1188720    3.5603410    1.4377510  
H     1.3156890    5.8459000    1.2868120  
C    -2.1813540   -0.9434250    1.2047440  
C    -1.1727480   -0.0257040    1.1108890  
C    -1.5548420    0.9369690    0.1128150  
C    -2.8310750    0.5460720   -0.3656380  
N    -3.2019820   -0.6174580    0.3085200  
C    -3.5623310    1.2988600   -1.2877430  
C    -2.9863560    2.4820190   -1.7226760  
O    -3.6461290    3.2781570   -2.6048830  
C    -1.7068540    2.8981450   -1.2659490  
O    -1.2793700    4.0861910   -1.8186130  
C    -0.9488440    2.1302120   -0.3783340  
H    -0.2521380   -0.0449810    1.6751030  
H    -4.5357170    1.0002440   -1.6573910  
H    -3.0650700    4.0504870   -2.7450640  
H    -0.9124290    4.6278010   -1.0856090  
H    -2.2563650   -1.8453380    1.7961220  
C    -6.1490550   -1.5570070    3.3232720  
C    -7.0047660   -2.2993780    2.5736250  
C    -6.4779440   -2.3380780    1.2248060  
C    -5.2274290   -1.5453940    1.2587190  
N    -5.0750990   -1.1123440    2.5586070  
C    -4.4166510   -1.3218360    0.1829070  
C    -4.8064690   -1.9285530   -1.1023770  
O    -4.1309030   -1.8379240   -2.1120130  
C    -6.1566470   -2.7424150   -1.1572830  
O    -6.5099680   -3.1981210   -2.2332210  
C    -6.9249080   -2.9111510    0.0740840  
H    -7.9131240   -2.7728710    2.9162210  
H    -7.8422120   -3.4890690    0.0227860  
H    -6.2045140   -1.2952870    4.3716440  
H    -4.3334000   -0.5027180    2.8689870  
