62


C     0.7109870    3.2008480   -0.3410970  
C     1.0847560    1.9585210    0.1449330  
C     2.2781060    1.5605480   -0.5227180  
C     2.6142540    2.6176350   -1.4212190  
N     1.6549560    3.6011630   -1.2761250  
C     3.7423420    2.5920160   -2.2336560  
C     4.5836560    1.4886280   -2.1085970  
O     5.7063600    1.4064750   -2.8694780  
C     4.3061050    0.4466890   -1.1933390  
O     5.2448530   -0.5679210   -1.2015460  
C     3.1457320    0.4337590   -0.4057080  
H     0.5730410    1.4219110    0.9284890  
H     1.5372070    4.3890860   -1.8944950  
H     3.9978160    3.3911660   -2.9220090  
H     6.1477110    0.5805470   -2.5898230  
H     5.5155710   -0.7010040   -0.2686270  
C    -0.3159340   -2.4014430    0.3100520  
C     0.4239200   -1.3487960   -0.1661220  
C     1.6373530   -1.3260460    0.6292370  
C     1.4213580   -2.4074040    1.6307640  
N     0.2954550   -3.0316860    1.4480150  
C     2.3904150   -2.7225150    2.6496750  
C     3.5779790   -2.0836910    2.5902390  
O     4.5970640   -2.3055760    3.4402010  
C     3.8848770   -1.1001520    1.5000630  
O     5.0523170   -0.6780800    1.4754860  
C     2.8385430   -0.6634320    0.5328410  
H     0.1998840   -0.7207570   -1.0149430  
H     2.1721560   -3.4793120    3.3944820  
H     5.3343330   -1.7445680    3.1168380  
C    -3.8992510   -0.6438170   -1.6209110  
C    -4.4851360   -1.7432740   -2.1417400  
C    -3.6825750   -2.8637530   -1.6719390  
C    -2.5736240   -2.2310490   -0.8852950  
N    -2.7399780   -0.9377220   -0.8235880  
C    -1.5120050   -3.0125930   -0.2644210  
C    -1.6706640   -4.3774870   -0.3310540  
O    -0.7918010   -5.2609120    0.1456350  
C    -2.8182350   -5.0309090   -1.0519390  
O    -2.8520090   -6.2617640   -1.0652450  
C    -3.8213820   -4.2015010   -1.7355260  
H    -5.3751330   -1.8024750   -2.7523370  
H    -1.1749460   -6.1436620   -0.0649290  
H    -4.6314520   -4.7136430   -2.2455570  
H    -4.1974550    0.3919370   -1.7207290  
C    -0.5769110    5.3773590    0.0121340  
C    -0.4436070    4.0015020    0.0035610  
C    -1.7132630    3.4670890    0.4378440  
C    -2.5683400    4.5608530    0.7046530  
N    -1.8490820    5.7117180    0.4282190  
C    -3.8901470    4.3896940    1.1402210  
C    -4.3462360    3.0877060    1.2958430  
O    -5.6245530    2.8558740    1.7142360  
C    -3.5011490    1.9812470    1.0088520  
O    -4.0781260    0.7441960    1.1803080  
C    -2.1996680    2.1584790    0.5804420  
H    -2.1824810    6.6535190    0.5620800  
H    -4.5564540    5.2204600    1.3493250  
H    -5.7379500    1.8893860    1.7444460  
H    -3.4756610    0.0728900    0.7972370  
H    -1.5918840    1.2953690    0.3350810  
H     0.1498490    6.1482380   -0.2034010  
