60


C    -2.2624110   -1.7713200   -0.2367690  
C    -2.5918070   -3.1286540   -0.3077790  
C    -3.9940920   -3.2314670   -0.1755130  
C    -4.5028190   -1.8986200   -0.0231480  
N    -3.4360930   -1.0482560   -0.0624820  
C    -5.8688510   -1.6296840    0.1321180  
C    -6.7329820   -2.7108320    0.1354560  
O    -8.0658140   -2.5117110    0.2826510  
C    -6.2436520   -4.0496540   -0.0143670  
O    -7.2432830   -4.9956810    0.0133700  
C    -4.9040570   -4.3176960   -0.1675240  
H    -1.8871620   -3.9382530   -0.4392950  
H    -3.4298700   -0.0397190    0.0072760  
H    -6.2626850   -0.6254830    0.2447240  
H    -8.5004650   -3.3826140    0.2545090  
H    -6.8653060   -5.8805740   -0.1011100  
H    -4.5511290   -5.3402290   -0.2801060  
C    -1.0225630   -1.0818390   -0.3092220  
C     0.2673550   -1.5527950   -0.4739820  
C     1.0992600   -0.3994800   -0.4553380  
C     0.1543520    0.7543420   -0.2717860  
N    -1.0801360    0.3432990   -0.1859590  
C     0.6072010    2.1285310   -0.1959180  
C     1.9553670    2.3106240   -0.2991540  
O     2.5457730    3.4994240   -0.1982650  
C     2.9433570    1.1810380   -0.5170710  
O     4.1253170    1.5080450   -0.6467190  
C     2.4524260   -0.1933590   -0.5692700  
H     0.5825990   -2.5815330   -0.5714870  
H     3.5032630    3.3291940   -0.3635170  
C     3.2131530   -2.1412110   -1.9100650  
C     4.2109450   -3.0575830   -1.9282020  
C     5.0809820   -2.7727730   -0.8078150  
C     4.5005260   -1.5907630   -0.1238860  
N     3.3584350   -1.2362430   -0.8487840  
C     5.0064710   -1.0475620    1.0096330  
C     6.2158730   -1.6351590    1.5846300  
O     6.7346670   -1.2123750    2.6064180  
C     6.8643990   -2.8672230    0.8563930  
O     7.8788580   -3.3643650    1.3203300  
C     6.2078970   -3.3775540   -0.3485940  
H     4.3412850   -3.8473360   -2.6540190  
H     4.5739220   -0.1884660    1.5081290  
H     6.6459590   -4.2445430   -0.8338610  
H     2.3781250   -2.0153020   -2.5858490  
C    -2.4940310    3.2712660    2.8028840  
C    -1.5127370    2.6338100    2.1153900  
C    -1.2317640    3.4191840    0.9314590  
C    -2.1464110    4.5873690    0.9900820  
N    -2.8963610    4.4270500    2.1387570  
C    -2.1844480    5.5953220    0.0811020  
C    -1.2696470    5.5325850   -1.0481880  
O    -1.2084410    6.3940080   -1.9121700  
C    -0.3161150    4.2870160   -1.1633100  
O     0.3858480    4.1871050   -2.1536250  
C    -0.3284320    3.2647150   -0.0842920  
H    -1.0377190    1.7054380    2.3902870  
H    -2.8510920    6.4485190    0.1605960  
H    -2.9671550    2.9966820    3.7365180  
H    -3.5533580    5.1042400    2.4928530  
