62


C     2.2166940   -1.4810040    2.9216870  
C     3.3484790   -1.1108260    2.2446760  
C     2.9223710   -0.4354180    1.0517900  
C     1.5030110   -0.4227080    1.0650400  
N     1.1019550   -1.0743660    2.2108400  
C     0.7226390    0.1403240    0.0287330  
C     1.4320480    0.7279330   -1.0219090  
O     0.7582970    1.3436640   -2.0302100  
C     2.8488080    0.7390110   -1.0391940  
O     3.3831220    1.3566190   -2.1505050  
C     3.6195870    0.1660330   -0.0274050  
H     4.3677680   -1.3021710    2.5463390  
H     0.1448310   -1.1739070    2.5126250  
H     1.4172170    1.6021590   -2.6989860  
H     4.3381030    1.1708930   -2.1789020  
H     2.1039050   -2.0061670    3.8595540  
C    -2.5177430    1.2909760    2.8990460  
C    -1.2962870    1.1442130    2.3303500  
C    -1.5529190    0.5170840    1.0360270  
C    -3.0386880    0.3828220    0.9932940  
N    -3.5930230    0.8205910    2.0879380  
C    -3.7322890   -0.1861230   -0.1481120  
C    -2.9497450   -0.6408350   -1.1609740  
O    -3.4314400   -1.2049410   -2.2787060  
C    -1.4459870   -0.5688050   -1.1248210  
O    -0.8469370   -1.1084870   -2.0487610  
C    -0.7496620    0.0909130    0.0264120  
H    -0.3338240    1.4377370    2.7243100  
H    -2.6370820   -1.4673950   -2.7952830  
H    -2.7533190    1.7215130    3.8654090  
C    -6.7795510    2.9739540   -0.2113390  
C    -7.9341300    2.2706580   -0.1809840  
C    -7.5224020    0.8697760   -0.1699420  
C    -6.0240810    0.9311040   -0.1766250  
N    -5.5994560    2.1580390   -0.2163490  
C    -5.2075880   -0.2718270   -0.1754090  
C    -5.8728740   -1.4573430   -0.2147970  
O    -5.2665890   -2.6545490   -0.2216250  
C    -7.3752620   -1.5430370   -0.2216480  
O    -7.8789040   -2.6654410   -0.2436650  
C    -8.1767900   -0.3066490   -0.1962590  
H    -8.9489630    2.6433460   -0.1785730  
H    -5.9974510   -3.3116880   -0.2456790  
H    -9.2571710   -0.4142180   -0.2098990  
H    -6.6551870    4.0501490   -0.2340880  
C     6.7369280   -3.0823230   -0.3499440  
C     5.5542830   -2.3966350   -0.2518370  
C     5.8807390   -0.9995060   -0.1961670  
C     7.2957500   -0.8999440   -0.2698240  
N     7.7897190   -2.1848930   -0.3619430  
C     7.9757960    0.3243630   -0.2564620  
C     7.2107690    1.4753520   -0.1636400  
O     7.8174140    2.6977910   -0.1315140  
C     5.7946580    1.4019240   -0.0962240  
O     5.1776210    2.6325410    0.0035250  
C     5.1058990    0.1874120   -0.1129630  
H     4.5657500   -2.8309130   -0.2174040  
H     8.7648810   -2.4297560   -0.4297420  
H     9.0572340    0.4004850   -0.3074310  
H     7.1145360    3.3614780   -0.0196900  
H     4.2360760    2.4953540    0.2047370  
H     6.9229010   -4.1452720   -0.4124740  
