62


C    -6.4169600    2.9715510    1.8100980  
C    -7.5998780    2.6083370    1.2227150  
C    -7.3264460    1.4661180    0.3973510  
C    -5.9428550    1.1784070    0.5299590  
N    -5.4147420    2.1145680    1.3919000  
C    -5.3019490    0.1353280   -0.1798020  
C    -6.1183440   -0.6445890   -1.0063790  
O    -5.5911730   -1.7186620   -1.6533610  
C    -7.5036040   -0.3742860   -1.1347330  
O    -8.1595700   -1.2480320   -1.9813060  
C    -8.1103130    0.6646700   -0.4550450  
H    -8.5546040    3.0976650    1.3570980  
H    -4.4533140    2.1453130    1.6943610  
H    -6.2911330   -2.0873760   -2.2201850  
H    -9.0822290   -0.9715670   -2.0822870  
H    -9.1756000    0.8523080   -0.5741290  
H    -6.1960340    3.7737270    2.4998150  
C    -2.4839500   -0.7483420    3.1637680  
C    -3.6070240   -0.4406620    2.4736380  
C    -3.1761420   -0.2945580    1.0876430  
C    -1.7013660   -0.5273270    1.1317210  
N    -1.3168960   -0.8120780    2.3503360  
C    -0.8553060   -0.4682550   -0.0521100  
C    -1.5367200   -0.3496980   -1.2327350  
O    -0.9518280   -0.3911250   -2.4358550  
C    -3.0180670   -0.1048320   -1.3149900  
O    -3.4791020    0.1366380   -2.4261690  
C    -3.8563090   -0.1122900   -0.0741050  
H    -4.6193470   -0.3602290    2.8427180  
H    -1.6706960   -0.1952400   -3.0777040  
H    -2.3853970   -0.9546320    4.2229850  
C     1.9917210   -3.1822550    2.0621570  
C     3.1460080   -2.7144060    1.4914680  
C     2.7749250   -1.6273970    0.6280420  
C     1.3640040   -1.5015470    0.7121430  
N     0.9076540   -2.4850850    1.5650740  
C     0.6243170   -0.5308520   -0.0036510  
C     1.3942510    0.3877880   -0.7301930  
O     0.7947090    1.4314640   -1.3660060  
C     2.8040160    0.2716390   -0.8283130  
O     3.3634820    1.2302720   -1.6541610  
C     3.5202160   -0.7325160   -0.1825760  
H     4.1438290   -3.0869040    1.6756770  
H     0.0296500   -2.3527840    2.0602580  
H     1.4961990    1.9153190   -1.8367350  
H     4.3304300    1.1613700   -1.6428330  
H     1.8465890   -3.9700820    2.7883260  
C     5.6520220   -2.0143210   -0.6575600  
C     4.9799600   -0.8689980   -0.3359300  
C     6.0035330    0.1590970   -0.1544450  
C     7.3126850   -0.4930570   -0.4178890  
N     7.0252970   -1.8111780   -0.7077130  
C     8.5128090    0.1371670   -0.3580580  
C     8.5386100    1.5538680   -0.0045820  
O     9.5693850    2.2055300    0.0614850  
C     7.1696890    2.2603270    0.3098420  
O     7.1719170    3.4375980    0.6317050  
C     5.9365330    1.4721080    0.2031210  
H     9.4580840   -0.3600150   -0.5536680  
H     5.0015100    1.9689130    0.4431730  
H     5.2404090   -2.9925450   -0.8674190  
H     7.7095070   -2.5136030   -0.9407110  
