62


C     2.1362940   -0.8686060    0.1126610  
C     1.1724710    0.1023210    0.2627440  
C     1.8775930    1.3630170    0.3430860  
C     3.2609810    1.0753210    0.2257510  
N     3.4018080   -0.3024440    0.0925600  
C     4.2470690    2.0748970    0.2501620  
C     3.8246890    3.3866640    0.4174500  
O     4.7393260    4.3963620    0.4376380  
C     2.4453500    3.6887770    0.5629140  
O     2.1848150    5.0333920    0.7380830  
C     1.4776830    2.7010300    0.5274910  
H     5.3003880    1.8647640    0.0965870  
H     4.2453500    5.2300220    0.5273280  
H     1.2302190    5.1901520    0.6839400  
H     0.4275960    2.9589600    0.6393430  
H     2.0273320   -1.9385260    0.0090630  
C    -0.8813160   -1.0779400    1.1450420  
C    -0.2665880   -0.1389470    0.3680420  
C    -1.3358120    0.5459230   -0.3497060  
C    -2.6062870   -0.0996860    0.0735950  
N    -2.2571870   -1.1098610    0.9434710  
C    -3.8547170    0.2528820   -0.3783190  
C    -3.9024500    1.4908610   -1.1988900  
O    -4.9324310    2.1054300   -1.4135220  
C    -2.5661520    2.0750620   -1.7782090  
O    -2.6335610    2.9638290   -2.6139500  
C    -1.3064150    1.5466230   -1.2703770  
H    -0.3810470    1.9728580   -1.6434720  
H    -0.4268530   -1.7606030    1.8516730  
H    -2.9391110   -1.3975670    1.6503880  
C    -5.5458480   -1.5622010    3.3477630  
C    -6.8233020   -1.7898620    2.9731370  
C    -6.8820360   -1.4168220    1.5654110  
C    -5.4969630   -0.9275620    1.2463780  
N    -4.7272790   -1.0441520    2.2955200  
C    -5.1277930   -0.4235970   -0.0689610  
C    -6.0874930   -0.5913400   -1.0375080  
O    -5.8842630   -0.3230720   -2.3289260  
C    -7.4705580   -1.1049410   -0.7522750  
O    -8.2539130   -1.1902190   -1.6965710  
C    -7.8349880   -1.4980040    0.6198920  
H    -7.6369580   -2.1806060    3.5677650  
H    -6.7447910   -0.4870090   -2.7758450  
H    -8.8438090   -1.8622230    0.7872990  
H    -5.0920860   -1.7239540    4.3179690  
C     4.9512180   -3.0999810   -2.9911390  
C     4.1757120   -2.2027740   -2.3041800  
C     4.8849850   -1.8744150   -1.0997600  
C     6.1000150   -2.6091980   -1.1129620  
N     6.1089960   -3.3502000   -2.2770230  
C     7.0609230   -2.5138760   -0.0988970  
C     6.7866010   -1.6621350    0.9594050  
O     7.6839800   -1.5263000    1.9769690  
C     5.5699540   -0.9318870    1.0171580  
O     5.4188190   -0.1775760    2.1607630  
C     4.6225890   -1.0292000    0.0016270  
H     3.2179680   -1.8151380   -2.6202010  
H     6.8555160   -3.9598020   -2.5713880  
H     7.9962450   -3.0635750   -0.1178590  
H     7.3145000   -0.8667160    2.5908960  
H     4.7735770    0.5347030    2.0102670  
H     4.7769680   -3.5863320   -3.9404950  
