62


C    -5.3025690   -0.9400950    0.1802750  
C    -6.0131470   -1.8058030    0.9837900  
C    -7.4087180   -1.5530880    0.7748480  
C    -7.5014970   -0.5049940   -0.1787670  
N    -6.2100360   -0.1245020   -0.4983150  
C    -8.7254430   -0.0041090   -0.6352620  
C    -9.8824000   -0.5657360   -0.1150190  
O   -11.1041540   -0.1161520   -0.5304870  
C    -9.8101470   -1.6033740    0.8504170  
O   -11.0461730   -2.0536010    1.2799680  
C    -8.5984450   -2.0968360    1.2992730  
H    -5.5777900   -2.5078310    1.6820930  
H    -5.9605130    0.4132210   -1.3149860  
H    -8.8006910    0.7928930   -1.3682770  
H   -11.7757610   -0.6332420   -0.0534790  
H   -10.9221270   -2.7687080    1.9211190  
H    -8.5702400   -2.8945910    2.0392660  
C    -2.9353360   -1.7993440   -0.0235320  
C    -3.8703590   -0.7863560   -0.0171140  
C    -3.1355200    0.4413310   -0.2359240  
C    -1.7689200    0.0961280   -0.3765760  
N    -1.6809150   -1.2736330   -0.2452860  
C    -0.7348990    1.0453680   -0.5650490  
C    -1.1455160    2.3834580   -0.6000780  
O    -0.2284810    3.3757240   -0.8014340  
C    -2.5079620    2.7437270   -0.4489740  
O    -2.7244790    4.1075590   -0.5059630  
C    -3.5021300    1.8005020   -0.2710830  
H    -0.8153830   -1.7911680   -0.2328770  
H    -0.7178080    4.2175060   -0.8160820  
H    -3.6676160    4.2942370   -0.3887880  
H    -4.5365040    2.1060620   -0.1325960  
H    -3.0789920   -2.8647430    0.0841130  
C     1.1237650   -0.4470190   -1.4380880  
C     0.6586640    0.6252410   -0.7356690  
C     1.8787520    1.1962130   -0.1215310  
C     2.9854050    0.3173780   -0.5907280  
N     2.5277810   -0.6345190   -1.3540100  
C     4.3853670    0.5255930   -0.1995960  
C     4.5934810    1.5853810    0.6463950  
O     5.8102220    1.9698380    1.0905700  
C     3.4993200    2.4576080    1.1478330  
O     3.8047940    3.3900630    1.8984100  
C     2.1064910    2.2106470    0.7287530  
H     5.6280740    2.7577980    1.6529970  
H     1.3427320    2.8828150    1.1006850  
H     0.5522360   -1.1242930   -2.0621300  
C     5.3850690   -1.0566390   -1.8944820  
C     5.4271740   -0.3509510   -0.7185320  
C     6.7293920   -0.7373090   -0.1238600  
C     7.3209710   -1.6721930   -1.1287030  
N     6.5315270   -1.8394840   -2.1553530  
C     8.6010830   -2.2985660   -0.9371260  
C     9.2636430   -2.0454660    0.2163390  
O    10.4582120   -2.5659520    0.5376100  
C     8.6829680   -1.1394030    1.2652320  
O     9.3359560   -0.9659040    2.2932340  
C     7.3727850   -0.4953860    1.0351540  
H     8.9955140   -2.9601320   -1.7003660  
H    10.6681300   -2.2022950    1.4263040  
H     7.0096530    0.1673630    1.8094270  
H     4.5734870   -1.0679730   -2.6066520  
