66


C    -3.7495230    0.2086450   -0.0355650  
C    -2.3787390    0.2695770    0.0932890  
C    -1.9564420    1.6171470   -0.1842380  
C    -3.1296650    2.3597140   -0.4655920  
N    -4.2154580    1.5034380   -0.3285250  
C    -3.1199530    3.7257930   -0.7576610  
C    -1.8871020    4.3596150   -0.7265730  
O    -1.7947730    5.6938930   -0.9750670  
C    -0.6936090    3.6441250   -0.4361110  
O     0.4415730    4.4245190   -0.4668860  
C    -0.6894690    2.2679020   -0.1938460  
H    -1.7533100   -0.5417900    0.4348800  
H    -5.0941810    1.6590770   -0.8052940  
H    -4.0199700    4.2938540   -0.9692880  
H    -0.8492470    5.9125700   -0.8639480  
H     0.9930000    4.1813080    0.3099120  
C    -3.3920190   -4.2032380   -0.8202950  
C    -3.1420610   -2.8590760   -0.7221510  
C    -4.3171950   -2.2458400   -0.1673240  
C    -5.2595590   -3.2868800    0.0457130  
N    -4.6676360   -4.4659700   -0.3587370  
C    -6.5414670   -3.0682240    0.5631410  
C    -6.8781400   -1.7620950    0.8797700  
O    -8.1050630   -1.4840560    1.4097660  
C    -5.9605920   -0.7028330    0.6735070  
O    -6.4563340    0.5372360    1.0495080  
C    -4.6789420   -0.9061840    0.1498630  
H    -2.2254570   -2.3678980   -1.0122110  
H    -5.0997830   -5.3753460   -0.3192630  
H    -7.2570920   -3.8666810    0.7301130  
H    -8.1105610   -0.5318810    1.6131230  
H    -5.7075350    1.1388420    1.2089620  
H    -2.7623520   -5.0043840   -1.1808760  
C     0.7564300   -1.4267860   -2.1369700  
C     1.9715110   -1.5228040   -1.5075330  
C     2.0800600   -0.3964310   -0.6174440  
C     0.8694000    0.3384050   -0.7425180  
N     0.0988980   -0.3004710   -1.6908880  
C     0.5760210    1.5141920   -0.0130950  
C     1.5899540    1.9078900    0.8553720  
O     1.4421020    3.0504250    1.6148970  
C     2.8093390    1.2031790    1.0027710  
O     3.6785330    1.7889300    1.9021190  
C     3.1013710    0.0567210    0.2645890  
H     2.6941150   -2.3140870   -1.6431290  
H    -0.8441300   -0.0307100   -1.9285780  
H     2.2591730    3.1007070    2.1534880  
H     4.0438770    1.0731350    2.4686990  
H     0.2988450   -2.0743580   -2.8717420  
C     5.9395150   -1.1352540   -2.9151150  
C     6.9149400   -1.6724000   -2.1153770  
C     6.4602800   -1.5490930   -0.7602740  
C     5.1820910   -0.9280710   -0.8043150  
N     4.9021870   -0.6746840   -2.1305830  
C     4.4229800   -0.6141680    0.3484210  
C     5.0357050   -0.9425600    1.5572940  
O     4.3992090   -0.6467580    2.7518210  
C     6.3053360   -1.5619730    1.6261410  
O     6.7313050   -1.8085130    2.9206130  
C     7.0226170   -1.8752040    0.4887850  
H     7.8525200   -2.0952080   -2.4490310  
H     4.0228240   -0.3108610   -2.4661010  
H     4.9754210   -0.9729140    3.4671220  
H     7.5893780   -2.2568320    2.8996380  
H     8.0006510   -2.3462840    0.5611180  
H     5.8970000   -1.0345890   -3.9905830  
