64


C    -5.4507150   -1.9984820    1.7729340  
C    -6.7930140   -2.2490190    1.7002960  
C    -7.3476110   -1.3238110    0.7523210  
C    -6.2800490   -0.5198630    0.2781090  
N    -5.1160980   -0.9456250    0.9178810  
C    -6.4577180    0.4709770   -0.6943400  
C    -7.7407830    0.6654790   -1.1808760  
O    -7.9712990    1.6259700   -2.1244120  
C    -8.8240600   -0.1220750   -0.7095320  
O   -10.0395450    0.1916590   -1.2903030  
C    -8.6426820   -1.1078320    0.2423040  
H    -7.3300750   -2.9936690    2.2723600  
H    -5.6461220    1.0912840   -1.0534260  
H    -8.9243640    1.6152020   -2.3175400  
H   -10.7362970   -0.3480250   -0.8888590  
H    -9.4848260   -1.7069960    0.5836550  
H    -4.6873950   -2.4368610    2.4003220  
C    -1.6896940   -3.2358600   -0.3639550  
C    -0.7654020   -2.2178060   -0.3433320  
C    -1.4401640   -1.0261170    0.0839590  
C    -2.7854910   -1.3990890    0.3051990  
N    -2.9099270   -2.7437570    0.0341600  
C    -3.7961520   -0.4944550    0.6931890  
C    -3.4215590    0.8350560    0.8480060  
O    -4.3322940    1.7679720    1.2300760  
C    -2.0807660    1.2512480    0.6237260  
O    -1.9093450    2.5774530    0.8300070  
C    -1.0489720    0.3441820    0.2653310  
H     0.2679830   -2.3261170   -0.6299520  
H    -3.7776740   -3.2567260    0.0790460  
H    -3.8471150    2.6140680    1.2720100  
H    -0.9406890    2.7874810    0.6379140  
H    -1.5731500   -4.2765980   -0.6303860  
C     0.3072700    0.8069720    0.1088910  
C     1.4916470    0.1339340   -0.1185020  
C     2.5298510    1.1169540   -0.1635480  
C     1.8303390    2.4066880    0.0695360  
N     0.5480680    2.2216050    0.2208380  
C     2.5175220    3.6679620    0.1309550  
C     3.8601590    3.6304690   -0.0087890  
O     4.6553630    4.7049220    0.0478010  
C     4.6199700    2.3346320   -0.2467490  
O     5.8434960    2.4626910   -0.3573000  
C     3.8991920    1.0539620   -0.3502050  
H     1.6397520   -0.9303750   -0.1748170  
H     1.9737500    4.5909270    0.2976180  
H     5.5626950    4.3499790   -0.1040710  
C     4.0687320   -1.1343600   -1.5512440  
C     4.6084850   -0.1675990   -0.7133160  
C     5.9208710   -0.6621160   -0.3282780  
C     6.0902940   -1.9208650   -0.9568310  
N     4.9476460   -2.1721140   -1.6981730  
C     7.2282190   -2.7180420   -0.7915480  
C     8.2284580   -2.2351450    0.0368750  
O     9.3644230   -2.9629130    0.2327970  
C     8.0775620   -0.9813650    0.6849390  
O     9.1539970   -0.6328840    1.4783110  
C     6.9498330   -0.2008410    0.5166400  
H     4.8069940   -2.9716670   -2.2963700  
H     7.3488420   -3.6802450   -1.2786110  
H     9.9352940   -2.4479830    0.8292000  
H     9.0178810    0.2588290    1.8315080  
H     6.8762400    0.7647530    1.0050710  
H     3.1306520   -1.1196360   -2.0864260  
