60


C    -5.4766930    1.9392650   -1.0244930  
C    -6.8147640    1.9547110   -0.7676490  
C    -7.1419010    0.7208330   -0.1047100  
C    -5.9443500   -0.0265940    0.0060330  
N    -4.9204490    0.7363140   -0.5754330  
C    -5.8910950   -1.2598640    0.6622380  
C    -7.0754610   -1.7609400    1.1870810  
O    -7.0706990   -2.9659880    1.8281960  
C    -8.2857530   -1.0356720    1.0663690  
O    -9.3768650   -1.6626170    1.6354630  
C    -8.3292560    0.1951390    0.4329900  
H    -7.4959130    2.7568280   -1.0172340  
H    -4.9823450   -1.8373340    0.7673840  
H    -7.9815850   -3.1406980    2.1211110  
H   -10.1648770   -1.1118140    1.5182280  
H    -9.2642550    0.7479040    0.3659910  
H    -4.8441630    2.6762730   -1.4923970  
C    -1.4447600    3.0945290    0.3221000  
C    -0.4102680    2.2258610    0.0512730  
C    -1.0905510    0.9965550   -0.4052730  
C    -2.5344420    1.3364570   -0.3368610  
N    -2.7169240    2.5653480    0.0905240  
C    -3.5692300    0.3864790   -0.6992110  
C    -3.1455640   -0.8387860   -1.1459850  
O    -3.9780890   -1.8031320   -1.5684620  
C    -1.7032920   -1.2022630   -1.2077860  
O    -1.4111490   -2.3197650   -1.6374110  
C    -0.6729450   -0.2181790   -0.8025940  
H    -3.3950410   -2.5549080   -1.8187610  
H     0.3692990   -0.5101430   -0.8539890  
H    -1.3657970    4.1140610    0.6812770  
C     0.9956350    2.4455640    0.1850330  
C     1.6734860    3.5494530    0.6506990  
C     3.0675570    3.2279130    0.5696000  
C     3.0904310    1.8366790    0.0096110  
N     1.8945720    1.3863700   -0.2127200  
C     4.3384890    1.1313560   -0.2298220  
C     5.4898710    1.8039640    0.0548500  
O     6.7131170    1.3026260   -0.1379140  
C     5.4860300    3.1967430    0.6369250  
O     6.5916580    3.6970720    0.8562530  
C     4.2186360    3.8783850    0.8795530  
H     1.2527320    4.4738030    1.0209270  
H     7.3275080    2.0100920    0.1719660  
H     4.2598930    4.8809230    1.2925180  
C     3.5486830   -0.6099720   -1.8201360  
C     3.6778170   -1.9410130   -2.0349590  
C     4.5624420   -2.4624580   -1.0161810  
C     4.9495620   -1.3051460   -0.1719370  
N     4.3118090   -0.1883380   -0.7201410  
C     5.7389270   -1.3980660    0.9260590  
C     6.2706670   -2.7109810    1.2920590  
O     6.9875320   -2.8840060    2.2655490  
C     5.8990130   -3.9433380    0.3918350  
O     6.3462280   -5.0431670    0.6772290  
C     5.0159250   -3.7160870   -0.7538420  
H     3.2073900   -2.5097630   -2.8240070  
H     6.0114580   -0.5520860    1.5440180  
H     4.7396590   -4.5756600   -1.3569470  
H     2.9720260    0.1233120   -2.3641330  
