60


C    -4.5588510    0.4582130   -2.5832980  
C    -5.7151320    0.1513750   -1.9159600  
C    -5.3388730   -0.5533370   -0.7228490  
C    -3.9230340   -0.6379780   -0.7184860  
N    -3.4744780   -0.0079060   -1.8598140  
C    -3.1925480   -1.3163660    0.2864410  
C    -3.9451310   -1.8856070    1.3200920  
O    -3.3120330   -2.4821870    2.3634990  
C    -5.3602510   -1.7930800    1.3334760  
O    -5.9402490   -2.3946230    2.4335990  
C    -6.0593510   -1.1436890    0.3341790  
H    -6.7191370    0.3914110   -2.2376850  
H    -2.5099200    0.0392960   -2.1501560  
H    -3.9965930   -2.8717680    2.9353530  
H    -6.9040140   -2.3891190    2.3380250  
H    -7.1456700   -1.0903280    0.3681370  
H    -4.4083300    0.9739160   -3.5212040  
C     0.1820640    1.6149390    0.0910040  
C    -1.0723300    1.0570550    0.1369470  
C    -0.8736070   -0.3727280    0.1184310  
C     0.6048690   -0.5418530    0.0232810  
N     1.2025980    0.6168160    0.0072140  
C     1.2572100   -1.8401500   -0.0095020  
C     0.4127780   -2.9004820    0.1972970  
O     0.8351510   -4.1596080    0.3367490  
C    -1.0846300   -2.7745790    0.2676050  
O    -1.7269270   -3.8206010    0.3072490  
C    -1.7278810   -1.4278570    0.2445940  
H    -2.0163440    1.5599640    0.2840560  
H     0.0199200   -4.7087950    0.3715410  
C    -1.8150080    5.3193490   -1.3362250  
C    -1.4927450    4.0250310   -1.0580770  
C    -0.2303540    4.0313500   -0.3602200  
C     0.1707770    5.4530840   -0.2645940  
N    -0.8443720    6.1817710   -0.8549080  
C     1.3300860    5.9079440    0.2789580  
C     2.2614460    4.9264770    0.8081120  
O     3.3577010    5.2141680    1.2627220  
C     1.8322500    3.4122080    0.8057710  
O     2.5576060    2.6348050    1.4036580  
C     0.5609420    3.0144240    0.1416230  
H    -2.0745670    3.1587170   -1.3295990  
H     1.6053850    6.9573690    0.3132260  
H    -2.6807120    5.7130610   -1.8520700  
H    -0.8326770    7.1814020   -0.9847970  
C     4.9695610    0.2741300    1.3355760  
C     5.8956160   -0.5789870    0.8217890  
C     5.1743910   -1.6036470    0.1046310  
C     3.7277970   -1.2812220    0.2735570  
N     3.6785100   -0.1521980    1.0600860  
C     2.6993930   -2.0355470   -0.2435250  
C     3.1082550   -3.1031720   -1.1910760  
O     2.3251400   -3.6465120   -1.9516600  
C     4.6181430   -3.5242930   -1.2729620  
O     4.9079380   -4.5282120   -1.9082190  
C     5.5996250   -2.6865380   -0.6024810  
H     6.9692860   -0.5030010    0.9140250  
H     6.6480050   -2.9556480   -0.6897280  
H     5.1068190    1.1898470    1.8954840  
H     2.8752850    0.4796350    1.0319200  
