64


C     4.8697100    0.2911190   -2.0816640  
C     6.0029780   -0.4706050   -1.9879720  
C     5.9944660   -1.0831530   -0.6896560  
C     4.8147920   -0.6488720   -0.0318430  
N     4.1335130    0.1971530   -0.9016380  
C     4.4697100   -1.0721380    1.2571190  
C     5.3376650   -1.9417070    1.8974770  
O     5.0532690   -2.3830530    3.1603250  
C     6.5263580   -2.3821940    1.2581810  
O     7.2899490   -3.2459780    2.0256630  
C     6.8612300   -1.9673100   -0.0169370  
H     6.7645710   -0.5708990   -2.7496900  
H     3.5717000   -0.7355670    1.7611410  
H     5.7803300   -2.9714020    3.4261790  
H     8.0869570   -3.4897840    1.5327110  
H     7.7756370   -2.3218750   -0.4895750  
H     4.5201290    0.9357350   -2.8759980  
C     0.4661660   -0.2805860   -3.1785510  
C    -0.3093160    0.5934590   -2.4624350  
C     0.5024710    1.1081800   -1.3913790  
C     1.7811030    0.5107690   -1.5371380  
N     1.7310880   -0.3287540   -2.6265940  
C     2.8671960    0.8001310   -0.6924960  
C     2.6415500    1.7315910    0.3172570  
O     3.6457930    2.0928820    1.1579540  
C     1.3606590    2.3197340    0.4959060  
O     1.3026150    3.1905950    1.5668030  
C     0.2700230    2.0164920   -0.3212470  
H    -1.3373600    0.8450620   -2.6773500  
H     2.4905110   -0.9207710   -2.9269050  
H     3.2491360    2.7511660    1.7611650  
H     0.8470540    4.0034200    1.2612830  
H     0.2211390   -0.8804390   -4.0431900  
C    -3.6454780   -0.0128660    0.1527420  
C    -4.4078440    1.1350510    0.3774370  
C    -3.5348620    2.2512990    0.3191370  
C    -2.2287170    1.7460760    0.0458240  
N    -2.3298540    0.3830680   -0.0427140  
C    -1.0815570    2.5713050   -0.0578620  
C    -1.3209890    3.9289510    0.1438390  
O    -0.2697480    4.8222510    0.0986690  
C    -2.6142170    4.4530660    0.4093640  
O    -2.6267200    5.8265620    0.5682960  
C    -3.7219780    3.6400920    0.4930380  
H    -5.4785970    1.1701720    0.5082540  
H    -1.6061060   -0.2673650   -0.3259290  
H    -0.6438150    5.7118180    0.2364510  
H    -3.5352760    6.1301390    0.7110030  
H    -4.7052050    4.0549180    0.7033910  
C    -7.2149040   -2.2424650    1.6392230  
C    -6.2591010   -1.2994080    1.4253610  
C    -5.2354580   -1.8924720    0.5928660  
C    -5.6714490   -3.2812390    0.3462640  
N    -6.8903450   -3.4205560    0.9782680  
C    -4.9901530   -4.2155980   -0.3770950  
C    -3.7094330   -3.8369000   -0.9248550  
O    -3.0083460   -4.5642720   -1.6152230  
C    -3.1675940   -2.3941810   -0.5997940  
O    -2.0086710   -2.1543000   -0.9073170  
C    -4.0520480   -1.4000750    0.0712810  
H    -6.2478460   -0.3085200    1.8493700  
H    -5.3661010   -5.2161750   -0.5650180  
H    -8.1221340   -2.1825780    2.2252050  
H    -7.4065140   -4.2841880    1.0365510  
