60


C     4.7499980    1.6251070    1.3224360  
C     5.9592520    1.8834720    0.7475490  
C     6.0122460    1.1743240   -0.5054820  
C     4.7882970    0.4822400   -0.6558880  
N     4.0283090    0.7733370    0.4776690  
C     4.4846160   -0.3146280   -1.7623720  
C     5.4530610   -0.4148020   -2.7508870  
O     5.2162410   -1.1766140   -3.8535660  
C     6.6920020    0.2705170   -2.6243360  
O     7.5451420    0.0692390   -3.6888580  
C     6.9792810    1.0559530   -1.5231490  
H     6.7338190    2.5109350    1.1667290  
H     3.5456130   -0.8459660   -1.8711900  
H     6.0050630   -1.1228450   -4.4208010  
H     8.3714010    0.5539200   -3.5447300  
H     7.9342460    1.5715280   -1.4472470  
H     4.3117580    1.9536870    2.2534560  
C     1.5945270    0.9295680    0.3005790  
C     0.5077350    0.2166410    0.7085570  
C     0.9883400   -0.9509320    1.4338890  
C     2.4645810   -0.8696530    1.4094030  
N     2.7686370    0.3080060    0.7248490  
C     3.2970650   -1.7792220    1.9659960  
C     2.6993230   -2.9304170    2.6491510  
O     3.3634400   -3.8052020    3.1781380  
C     1.1304960   -3.0323910    2.6997820  
O     0.6113060   -3.9826350    3.2616020  
C     0.3468500   -1.9717880    2.0573180  
H     4.3777640   -1.6952070    1.9305090  
H    -0.7349100   -2.0415120    2.1107080  
H     1.6516720    1.8507290   -0.2626530  
C    -1.7642500   -0.2924460   -0.1592200  
C    -3.0007590    0.2760720   -0.2446330  
C    -2.8920010    1.5885070    0.4019130  
C    -1.4923190    1.7142050    0.8677500  
N    -0.8433780    0.5366310    0.4935280  
C    -0.9936840    2.7850740    1.5343690  
C    -1.8906710    3.8983640    1.8314320  
O    -1.5323060    4.8991310    2.4327620  
C    -3.3820400    3.7845410    1.3555730  
O    -4.1558350    4.6933890    1.6049560  
C    -3.7946920    2.5734930    0.6309210  
H     0.0355570    2.8530660    1.8694280  
H    -4.8207000    2.5219570    0.2863010  
H    -1.4242210   -1.2392980   -0.5582150  
C    -4.8160800   -3.6995900    0.2443360  
C    -5.8253420   -3.6039700   -0.6570720  
C    -5.7496360   -2.2861010   -1.2530570  
C    -4.5910630   -1.6127960   -0.6177650  
N    -4.0463480   -2.5371390    0.2533380  
C    -4.1852890   -0.3288600   -0.8675670  
C    -4.9709650    0.4222010   -1.8668000  
O    -4.7001830    1.5654470   -2.1963890  
C    -6.2003470   -0.2803820   -2.5554650  
O    -6.8509500    0.3579530   -3.3670840  
C    -6.5122960   -1.6588140   -2.1880870  
H    -6.5524810   -4.3675580   -0.8916220  
H    -7.3622640   -2.1327450   -2.6689820  
H    -4.5497620   -4.5216540    0.8955370  
H    -3.3653580   -2.3014440    0.9595450  
