60


C    -1.9217160   -2.1930050    0.0459760  
C    -2.9623810   -1.2671850    0.1495820  
C    -4.1820360   -1.9863780    0.1633800  
C    -3.8515130   -3.3718060    0.0670680  
N    -2.4874340   -3.4654120   -0.0013420  
C    -4.8242690   -4.3787030    0.0530910  
C    -6.1496560   -3.9835820    0.1373790  
O    -7.1371970   -4.9168280    0.1284510  
C    -6.5007030   -2.6016530    0.2344080  
O    -7.8616730   -2.3886010    0.3101560  
C    -5.5442180   -1.6115580    0.2482950  
H    -2.8252640   -0.2005470    0.2076840  
H    -1.9389080   -4.3109460   -0.0627860  
H    -4.5814610   -5.4333700   -0.0207490  
H    -7.9861850   -4.4447120    0.1911530  
H    -8.0420590   -1.4381030    0.3605530  
H    -5.8316800   -0.5649440    0.3228440  
C     0.4685740    1.5072140   -0.0617910  
C     1.7371950    0.9950740   -0.0465510  
C     1.5772720   -0.4362080   -0.0043350  
C     0.1014730   -0.6522210   -0.0052970  
N    -0.5326040    0.4851920   -0.0424840  
C    -0.4925390   -1.9958670    0.0019380  
C     0.4205760   -3.0245110   -0.0339820  
O     0.0576430   -4.3338380   -0.0215210  
C     1.8809430   -2.8448770   -0.0213120  
O     2.5832790   -3.8594700    0.0647930  
C     2.4647880   -1.4718280   -0.0428620  
H     2.6706680    1.5374790   -0.0805950  
H     0.9124980   -4.8245510   -0.0078000  
C     0.0304540    2.8768700   -0.1095710  
C     0.7439600    4.0540620   -0.1037130  
C    -0.1969800    5.1370660   -0.1665400  
C    -1.5466250    4.5125090   -0.2129980  
N    -1.3351330    3.1537160   -0.1695470  
C    -2.7094310    5.2101710   -0.2823820  
C    -2.6466270    6.6677490   -0.3083580  
O    -3.6403370    7.3769190   -0.3667760  
C    -1.2302660    7.3507660   -0.2553890  
O    -1.1607430    8.5712980   -0.2730930  
C    -0.0481070    6.4929400   -0.1859040  
H     1.8194680    4.1454690   -0.0563490  
H    -3.6863400    4.7380370   -0.3176590  
H     0.9238920    6.9759050   -0.1528320  
H    -2.0317480    2.4253210   -0.2138100  
C     5.4565120    0.5919540    2.5529700  
C     4.3029630    0.1261600    2.0010370  
C     4.6621560   -0.6311160    0.8244540  
C     6.1434760   -0.5753570    0.7406150  
N     6.5579410    0.1969410    1.8101270  
C     6.8959970   -1.1978430   -0.2012610  
C     6.2123420   -1.9887250   -1.2181760  
O     6.8006770   -2.6174300   -2.0823470  
C     4.6444530   -2.0159430   -1.2020000  
O     4.0606010   -2.5293900   -2.1382510  
C     3.9239150   -1.3482750   -0.0852810  
H     3.3052850    0.2932450    2.3766710  
H     7.9807180   -1.1582790   -0.2223340  
H     5.5935030    1.1935440    3.4418990  
H     7.5203110    0.3767610    2.0505910  
