62


C     3.7512020    0.9156610    2.4056920  
C     3.3115100    0.2922160    1.2528190  
C     4.4707320    0.1742870    0.3900430  
C     5.5679430    0.7401830    1.0873250  
N     5.0949280    1.1836550    2.3089820  
C     6.8565740    0.8172790    0.5466950  
C     7.0445370    0.3197130   -0.7332400  
O     8.2805610    0.3656330   -1.3066410  
C     5.9549060   -0.2302780   -1.4592590  
O     6.2941070   -0.6647040   -2.7254060  
C     4.6834480   -0.3024610   -0.9199740  
H     5.6570460    1.6028280    3.0333790  
H     7.6949720    1.2505000    1.0824750  
H     8.2002370   -0.0172450   -2.1973820  
H     5.5121630   -1.0285510   -3.1664050  
H     3.8647460   -0.7076980   -1.5095300  
H     3.1968390    1.1579560    3.3011170  
C     0.7921800    0.5600780    1.3049210  
C     1.9358680   -0.1142590    1.0111100  
C     1.4631150   -1.3983390    0.4510250  
C    -0.0296710   -1.3204590    0.5111860  
N    -0.3965490   -0.1640750    0.9982520  
C    -0.8888070   -2.4069190    0.0541180  
C    -0.2311170   -3.4443670   -0.5586470  
O    -0.8496740   -4.4698820   -1.1613120  
C     1.2593960   -3.5511760   -0.6149690  
O     1.7463060   -4.5380960   -1.1711590  
C     2.0917190   -2.4771300   -0.0452960  
H    -0.1244470   -5.0540140   -1.4776430  
H     3.1693800   -2.5900260   -0.1002560  
H     0.7017280    1.5667000    1.6967100  
C    -4.0610700    0.6846450   -0.6681220  
C    -5.1464290   -0.1683580   -0.5112040  
C    -4.6412090   -1.4411130   -0.1286130  
C    -3.2191970   -1.3364930   -0.1010340  
N    -2.9004630   -0.0496200   -0.4518270  
C    -2.3636140   -2.4206540    0.2113030  
C    -3.0176570   -3.5839670    0.6474550  
O    -2.3025190   -4.6384890    1.1138410  
C    -4.4375530   -3.6940060    0.6397560  
O    -4.8901550   -4.9271200    1.0702390  
C    -5.2509310   -2.6606540    0.2340000  
H    -6.1848610    0.1193900   -0.6008510  
H    -1.9794230    0.3315710   -0.2710980  
H    -2.9374580   -5.3463080    1.3232260  
H    -5.8585750   -4.9333680    1.0764140  
H    -6.3327530   -2.7741750    0.2205320  
C    -4.8976170    2.8744840   -1.6538630  
C    -4.0244060    2.0961780   -0.9456370  
C    -3.0159030    3.0624980   -0.4368510  
C    -3.4520450    4.3676460   -0.9824330  
N    -4.5544900    4.2460020   -1.6791570  
C    -2.7237760    5.5755570   -0.7031750  
C    -1.6388660    5.4962460    0.1091880  
O    -0.8693920    6.5519000    0.4455890  
C    -1.2066130    4.2010470    0.7106040  
O    -0.2085650    4.1953450    1.4389960  
C    -1.9747120    2.9734580    0.4122560  
H    -3.0533370    6.5179020   -1.1272180  
H    -0.1763250    6.1857640    1.0359870  
H    -1.6522440    2.0599150    0.9025550  
H    -5.7786450    2.5471750   -2.1920100  
