64


C     1.2490710   -2.1359260   -0.1731430  
C     0.6015470   -0.9778270    0.1914030  
C     1.5662400    0.0901920    0.1508060  
C     2.7904920   -0.4914810   -0.2574680  
N     2.5660170   -1.8414360   -0.4466290  
C     3.9967290    0.2306330   -0.3992160  
C     3.9154740    1.5907630   -0.0949910  
O     5.0210490    2.3866540   -0.2117840  
C     2.6950960    2.1865880    0.3234430  
O     2.8038520    3.5422370    0.5827030  
C     1.5239330    1.4662150    0.4472580  
H     3.2956180   -2.5058950   -0.6561420  
H     4.7294550    3.2978960   -0.0317970  
H     1.9176950    3.9245840    0.6655700  
H     0.6023830    1.9448080    0.7682190  
H     0.8617570   -3.1398900   -0.2688040  
C    -1.3445760   -1.5701040    1.6249770  
C    -2.6765960   -1.2614390    1.7016750  
C    -2.9533000   -0.3210970    0.6522810  
C    -1.7334020   -0.1082470   -0.0399650  
N    -0.7536630   -0.8785880    0.5758310  
C    -1.6331950    0.7209550   -1.1635700  
C    -2.7871750    1.3630010   -1.5818170  
O    -2.7464420    2.1960010   -2.6632600  
C    -4.0155550    1.1827310   -0.8944550  
O    -5.0475150    1.9363960   -1.4209580  
C    -4.1294310    0.3460940    0.2161590  
H    -3.3781520   -1.6667840    2.4171010  
H    -0.7042560    0.8661320   -1.7028780  
H    -3.6516030    2.5238950   -2.8042540  
H    -5.8828700    1.7151780   -0.9811400  
H    -0.7374030   -2.2207430    2.2380140  
C     5.3293960   -1.2813280   -1.9368330  
C     5.2335240   -0.4296580   -0.8535270  
C     6.5546020   -0.3758580   -0.2665280  
C     7.3949650   -1.2146430   -1.0406330  
N     6.6206880   -1.7545570   -2.0491680  
C     8.7503450   -1.4131580   -0.7461760  
C     9.2666790   -0.7491920    0.3545580  
O    10.5821960   -0.8993540    0.6874760  
C     8.4379170    0.0919880    1.1446190  
O     9.0975240    0.6830880    2.2078470  
C     7.1016750    0.2820250    0.8525820  
H     6.9606620   -2.3445120   -2.7921160  
H     9.3952560   -2.0535550   -1.3393570  
H    10.7430580   -0.3442910    1.4700180  
H     8.4931370    1.2897990    2.6602720  
H     6.4908270    0.9453640    1.4579650  
H     4.5792960   -1.5469440   -2.6691180  
C    -5.6094900    0.3017910    2.2747360  
C    -5.4103830    0.1807090    0.9286650  
C    -6.7116660   -0.1712560    0.3614580  
C    -7.6701760   -0.2247970    1.4955090  
N    -6.9327130    0.0635830    2.6256330  
C    -8.9903280   -0.5143540    1.3747780  
C    -9.5212340   -0.8025050    0.0451240  
O   -10.6966110   -1.0619170   -0.1612580  
C    -8.5219650   -0.7803160   -1.1685930  
O    -8.9409110   -1.0411520   -2.2847290  
C    -7.1167810   -0.4447560   -0.9099690  
H    -9.6732230   -0.5488640    2.2182490  
H    -6.4351360   -0.4522110   -1.7549620  
H    -4.8841450    0.5533510    3.0369880  
H    -7.3043960    0.1095860    3.5613270  
