60


C    -5.4165590    2.0535160    2.0740670  
C    -4.9750280    0.9830480    1.3300150  
C    -6.1319230    0.2704370    0.8536410  
C    -7.2590980    0.9688640    1.3521730  
N    -6.7915380    2.0376670    2.0959240  
C    -8.5734880    0.5627120    1.0883920  
C    -8.7472700   -0.5670700    0.3057510  
O   -10.0035370   -1.0030030    0.0138220  
C    -7.6242790   -1.2803950   -0.2004470  
O    -7.9657710   -2.3824020   -0.9554030  
C    -6.3287620   -0.8799450    0.0637470  
H    -7.3704940    2.7187090    2.5623430  
H    -9.4414770    1.0947710    1.4636550  
H    -9.9151270   -1.7851940   -0.5582040  
H    -7.1710450   -2.7685590   -1.3527250  
H    -5.4844830   -1.4388740   -0.3325690  
H    -4.8513570    2.8218150    2.5816090  
C    -2.7205460    0.2228550    2.0887510  
C    -1.4812670   -0.0042050    1.5745460  
C    -1.5489530    0.2695640    0.1600990  
C    -2.9460410    0.6941220   -0.1053920  
N    -3.6202970    0.6391580    1.1117760  
C    -3.4240800    1.0825590   -1.3142870  
C    -2.5103230    1.0757270   -2.4510920  
O    -2.8370630    1.4287940   -3.5730430  
C    -1.0416640    0.5754080   -2.2188590  
O    -0.3143920    0.4268540   -3.1853450  
C    -0.6102120    0.2376010   -0.8411830  
H    -0.6133220   -0.3352180    2.1240390  
H    -4.4456800    1.4129520   -1.4669050  
H    -3.0722960    0.1204220    3.1068560  
C     1.5559090   -3.3492320    0.7555480  
C     0.5608030   -2.5044100    0.3987980  
C     1.2328660   -1.3060140   -0.0893540  
C     2.6854450   -1.6175280    0.0537700  
N     2.8609610   -2.8126640    0.5464450  
C     3.7405020   -0.6835670   -0.3409390  
C     3.2984330    0.4750530   -0.9163310  
O     4.1182190    1.4276220   -1.4010550  
C     1.8533010    0.8289570   -1.0463970  
O     1.5849390    1.9528680   -1.4651600  
C     0.7926110   -0.1450280   -0.6353340  
H    -0.5058600   -2.6677230    0.4487750  
H     3.5218500    2.1477640   -1.7071940  
H     1.4697610   -4.3508270    1.1597910  
C     5.6427060   -2.3093150   -0.1661230  
C     5.1459750   -1.0306470   -0.1314040  
C     6.2785550   -0.1640850    0.2101680  
C     7.4604430   -1.0565320    0.3323230  
N     7.0003420   -2.3339170    0.0778880  
C     8.7166730   -0.6547640    0.6498730  
C     8.9445230    0.7602830    0.9190750  
O    10.0384010    1.2190070    1.2122970  
C     7.7069070    1.7227960    0.8386770  
O     7.8644590    2.9089120    1.0839420  
C     6.4005880    1.1636840    0.4729190  
H     9.5570500   -1.3377080    0.7299850  
H     5.5699670    1.8531900    0.4036790  
H     5.0983960   -3.2251360   -0.3375850  
H     7.5653020   -3.1679890    0.1186310  
