60


C    -5.1145040   -1.8949180    1.0796800  
C    -4.9309360   -0.6188870    0.5653610  
C    -6.2322640   -0.1976670    0.0717930  
C    -7.1310460   -1.2676600    0.3040770  
N    -6.4187930   -2.2812440    0.9238260  
C    -8.4792760   -1.2358080   -0.0704210  
C    -8.9367730   -0.0889560   -0.6990850  
O   -10.2424200    0.0084160   -1.0792750  
C    -8.0523950    0.9935950   -0.9476960  
O    -8.6509220    2.0674940   -1.5788440  
C    -6.7219160    0.9519100   -0.5788730  
H    -6.8156930   -3.1393920    1.2743340  
H    -9.1618680   -2.0588500    0.1147820  
H   -10.3603330    0.8927180   -1.4681230  
H    -8.0375810    2.8176180   -1.5859340  
H    -6.0784480    1.8070360   -0.7544490  
H    -4.4075670   -2.5296620    1.5939810  
C    -0.8077580   -2.0439370   -0.1941750  
C    -2.1524110   -1.9193500   -0.0930180  
C    -2.4489670   -0.5677230    0.3258670  
C    -1.1435550    0.1115640    0.4499770  
N    -0.1641260   -0.8486100    0.1679630  
C    -0.9798150    1.4359940    0.7093610  
C    -2.1717440    2.2396460    0.9050340  
O    -2.1460830    3.4472390    1.0964780  
C    -3.5741340    1.5292220    0.8569950  
O    -4.5600870    2.2143670    1.0703730  
C    -3.6468480    0.0738500    0.5570630  
H    -2.8749740   -2.6863580   -0.3249220  
H    -0.0171120    1.9243970    0.7714570  
H    -0.2108120   -2.8839100   -0.5122450  
C     2.7353470   -2.0728980   -2.7916400  
C     3.8803470   -1.5606970   -2.2828480  
C     3.4903510   -0.9121690   -1.0361720  
C     2.0190440   -1.1499850   -0.9533450  
N     1.5869210   -1.8294520   -1.9753420  
C     1.2264510   -0.6613710    0.1650710  
C     1.9018070   -0.0285590    1.1713950  
O     1.3101610    0.4332080    2.2864240  
C     3.3629540    0.2394800    1.1003130  
O     3.8676220    0.8837060    2.0201790  
C     4.1650430   -0.2615180   -0.0569140  
H     4.8762270   -1.6062630   -2.6989480  
H     2.0283880    0.8696800    2.7973900  
H     2.6024840   -2.6304550   -3.7106040  
C     7.0503830    1.8431910   -2.7645580  
C     5.9006880    1.3241110   -2.2704940  
C     6.2862760    0.6686790   -1.0267720  
C     7.7642450    0.9155910   -0.9304590  
N     8.2007830    1.5995180   -1.9479800  
C     8.5417720    0.4410560    0.1829410  
C     7.8975240   -0.2449850    1.1555170  
O     8.4993970   -0.7567030    2.2389580  
C     6.4210650   -0.5304190    1.0847550  
O     5.9381170   -1.2373420    1.9628530  
C     5.6151930   -0.0013070   -0.0566930  
H     4.9078370    1.3772730   -2.6927740  
H     9.6078570    0.6346560    0.2218240  
H     7.7941920   -1.2163090    2.7448320  
H     7.1827530    2.4088170   -3.6792880  
