62


C    -3.2081810    1.3951400    0.8205410  
C    -4.0488190    0.4377730    0.2894490  
C    -3.1957710   -0.6686970   -0.0846620  
C    -1.8633010   -0.2989150    0.2255370  
N    -1.8960070    0.9769080    0.7513380  
C    -0.7432010   -1.1246110   -0.0464920  
C    -1.0488030   -2.4011020   -0.5488050  
O    -0.0665340   -3.3260400   -0.7222370  
C    -2.3805530   -2.7763470   -0.8577970  
O    -2.4878590   -4.0605350   -1.3663300  
C    -3.4477520   -1.9266140   -0.6612330  
H    -1.1589880    1.2753240    1.3863340  
H    -0.4914690   -4.1206990   -1.0909650  
H    -3.4243070   -4.2853740   -1.4678150  
H    -4.4611440   -2.2381130   -0.8951850  
H    -3.4575400    2.3414070    1.2814340  
C     1.3876970    1.0043390    3.2250070  
C     2.6799560    0.8573320    2.8474260  
C     2.6300800    0.1737050    1.5612550  
C     1.1769950   -0.0446720    1.3153540  
N     0.4644670    0.4593900    2.2921700  
C     0.6677070   -0.7174480    0.1251640  
C     1.6097510   -0.9437830   -0.8445760  
O     1.3167420   -1.4128340   -2.0668750  
C     3.0705420   -0.7113320   -0.6455760  
O     3.8200540   -0.9928680   -1.5830720  
C     3.5841180   -0.1709550    0.6505730  
H     3.5625900    1.2209180    3.3535290  
H     2.1813540   -1.5131430   -2.5218520  
H     1.0007540    1.4853970    4.1152850  
C     5.5778480   -0.4304700    2.1134670  
C     5.0171220   -0.0960700    0.9057900  
C     6.1288900    0.3409530    0.0491580  
C     7.3546600    0.2307310    0.8790960  
N     6.9411930   -0.2445030    2.1133030  
C     8.6085310    0.5461160    0.4715420  
C     8.7869200    1.0555480   -0.8852380  
O     9.8745260    1.3652960   -1.3450990  
C     7.5044630    1.2154390   -1.7758610  
O     7.6192180    1.6640510   -2.9043380  
C     6.2029550    0.8182530   -1.2184300  
H     9.4840300    0.4499490    1.1063510  
H     5.3399000    0.9022590   -1.8664500  
H     5.0815260   -0.8262570    2.9893890  
H     7.5613090   -0.4991270    2.8671470  
C    -6.3411640    3.7574540   -1.4426230  
C    -7.6015300    3.2505130   -1.2554960  
C    -7.4512330    1.9666110   -0.6302370  
C    -6.0598800    1.7511940   -0.4548310  
N    -5.4101150    2.8640070   -0.9497260  
C    -5.5048370    0.5821680    0.1129660  
C    -6.4300190   -0.3898430    0.5002120  
O    -6.0020650   -1.5593990    1.0735550  
C    -7.8248070   -0.1938990    0.3298160  
O    -8.5923450   -1.2619460    0.7716130  
C    -8.3478950    0.9611800   -0.2182250  
H    -8.5290150    3.7341690   -1.5304860  
H    -4.4075690    2.9385950   -1.0312960  
H    -6.8023340   -2.0482370    1.3338620  
H    -9.5256960   -1.0040910    0.7699150  
H    -9.4230950    1.0797830   -0.3377650  
H    -6.0238980    4.6926820   -1.8824060  
