60


C     4.8969630    2.5626000    2.4346980  
C     6.0365270    2.9403490    1.7757260  
C     6.2155570    2.0236940    0.6861540  
C     5.1367340    1.1030000    0.7327820  
N     4.3531720    1.4537600    1.8103880  
C     5.0148250    0.0150220   -0.1666400  
C     6.0087260   -0.0883980   -1.1505440  
O     5.9096080   -1.0499130   -2.1050010  
C     7.0804320    0.8360470   -1.2139490  
O     7.9568190    0.5901230   -2.2517590  
C     7.1977030    1.8769220   -0.3127640  
H     6.6783850    3.7701970    2.0367390  
H     3.5042610    0.9853500    2.0871010  
H     6.7062180   -0.9914570   -2.6616990  
H     8.6776470    1.2367990   -2.2338830  
H     8.0326130    2.5713940   -0.3796980  
H     4.4158940    2.9908230    3.3025040  
C     0.5308070    0.2156560   -0.0189640  
C     1.8515840    0.5780540   -0.0833610  
C     2.5929280   -0.6614780   -0.0226430  
C     1.5417660   -1.7141560    0.0734950  
N     0.3428720   -1.1974580    0.0765300  
C     1.8624280   -3.1156270    0.1225760  
C     3.1704920   -3.4555020    0.0788750  
O     3.6197870   -4.7161680    0.1211160  
C     4.2694740   -2.4192800    0.0209290  
O     5.4180100   -2.8319150    0.1275210  
C     3.9256590   -0.9642470   -0.0880010  
H     2.2627330    1.5714840   -0.1908690  
H     1.0730160   -3.8557940    0.1882790  
H     4.6003840   -4.6460470    0.1301470  
C    -0.6517080    1.0356960   -0.0474850  
C    -0.8180910    2.3981110   -0.1209590  
C    -2.2293760    2.6650240   -0.1151060  
C    -2.9041150    1.3423540   -0.0299970  
N    -1.8995210    0.4107310    0.0082220  
C    -4.2630450    1.1633020   -0.0384350  
C    -5.0990610    2.3816600   -0.0547210  
O    -6.3107810    2.3462380    0.0749210  
C    -4.3992110    3.7795400   -0.1858410  
O    -5.0958180    4.7792120   -0.2746230  
C    -2.9403810    3.8265260   -0.1892620  
H    -0.0311750    3.1360630   -0.1792300  
H    -2.4650290    4.7993460   -0.2696060  
H    -1.9945570   -0.5930510    0.0868420  
C    -4.0806730   -2.5091760    2.5541170  
C    -3.8288510   -1.2690860    2.0654430  
C    -4.6885690   -1.1408900    0.8932840  
C    -5.4157520   -2.4460320    0.8405370  
N    -5.0544280   -3.2394480    1.8112960  
C    -6.4058200   -2.7262710   -0.1660860  
C    -6.6579320   -1.7651450   -1.0834320  
O    -7.5447260   -1.8910660   -2.0830200  
C    -5.9086630   -0.4580030   -1.0942170  
O    -6.1001940    0.2863310   -2.0485790  
C    -4.9219360   -0.1485420   -0.0066650  
H    -3.1601510   -0.5202280    2.4650170  
H    -6.9207630   -3.6804650   -0.1703620  
H    -7.4710450   -1.0618090   -2.6047730  
H    -3.6412630   -2.9787680    3.4265790  
