64


C    -3.2620750    1.1441050   -1.7385630  
C    -4.5410170    1.6117640   -1.7200240  
C    -5.2366750    0.9157320   -0.6704130  
C    -4.3208010    0.0067720   -0.0863770  
N    -3.0981200    0.1528130   -0.7616870  
C    -4.6604320   -0.7863060    1.0146530  
C    -5.9528510   -0.6848680    1.5072610  
O    -6.3305940   -1.4488120    2.5732480  
C    -6.8876960    0.2035790    0.9175670  
O    -8.1314720    0.1904900    1.5171730  
C    -6.5433290    1.0023020   -0.1579710  
H    -4.9538520    2.3546360   -2.3891640  
H    -3.9745080   -1.4849090    1.4750120  
H    -7.2626270   -1.2436460    2.7601570  
H    -8.7214020    0.8020410    1.0523150  
H    -7.2667100    1.6920580   -0.5882660  
H    -2.4362550    1.3758190   -2.3943300  
C     1.0056550    1.6490760   -0.1151160  
C    -0.3416750    1.6075620   -0.3784290  
C    -0.6892750    0.2087110   -0.4310580  
C     0.6026310   -0.5073690   -0.2422450  
N     1.5743260    0.3390410   -0.0400930  
C     0.7202030   -1.9615150   -0.2492810  
C    -0.4769970   -2.6242910   -0.2337370  
O    -0.5931660   -3.9521140   -0.0932030  
C    -1.8051010   -1.9473810   -0.3982910  
O    -2.8012210   -2.6690160   -0.4606620  
C    -1.8713430   -0.4671960   -0.5018570  
H    -1.0368910    2.4351000   -0.3864340  
H    -1.5539670   -4.1378120   -0.1871980  
C     0.8807620    5.5468750   -2.1416880  
C     1.9336020    6.1338740   -1.4900620  
C     2.4363030    5.1704090   -0.5526940  
C     1.6332190    4.0093360   -0.6761920  
N     0.6883660    4.2716210   -1.6432540  
C     1.8547650    2.8180400    0.0604810  
C     2.9352940    2.8520920    0.9580210  
O     3.2041910    1.7933570    1.7726240  
C     3.7368980    4.0140980    1.0967980  
O     4.7418340    3.8774750    2.0372400  
C     3.5050890    5.1619830    0.3643970  
H     2.3095550    7.1337280   -1.6575940  
H     0.0523660    3.5807260   -2.0114110  
H     3.9855980    2.0375030    2.3004860  
H     5.2568830    4.6959530    2.0862810  
H     4.1387060    6.0368750    0.4954430  
H     0.2362240    5.9335930   -2.9182930  
C     4.4876460   -1.4930720    2.1429550  
C     5.1213920   -2.6196590    1.6891190  
C     4.2651310   -3.2016240    0.6955350  
C     3.1061420   -2.3814040    0.6130380  
N     3.2587130   -1.3600990    1.5278670  
C     2.0166560   -2.6757760   -0.2474160  
C     2.2081390   -3.7648890   -1.1138340  
O     1.2801330   -4.0542210   -2.0695470  
C     3.3675500   -4.5760130   -1.0437850  
O     3.3713420   -5.6196880   -1.9566610  
C     4.3791070   -4.3284230   -0.1390510  
H     6.0803960   -2.9959880    2.0187820  
H     2.7790580   -0.4698260    1.4091880  
H     1.5810260   -4.8638490   -2.5176150  
H     4.1901660   -6.1266080   -1.8573210  
H     5.2532220   -4.9756750   -0.0937940  
H     4.8101300   -0.7622440    2.8717980  
