60


C     6.1477990    2.0976380    1.4141180  
C     5.3595710    1.2848900    0.6163400  
C     6.2595150    0.3286330    0.0004550  
C     7.5629680    0.6202450    0.4737090  
N     7.4582010    1.7034740    1.3295370  
C     8.6979360   -0.0921040    0.0715640  
C     8.5169300   -1.1216300   -0.8390720  
O     9.5869180   -1.8497070   -1.2619930  
C     7.2225370   -1.4168690   -1.3450640  
O     7.2074000   -2.4532960   -2.2551640  
C     6.1051280   -0.7075390   -0.9435870  
H     8.2205830    2.1076960    1.8515310  
H     9.6952830    0.1342770    0.4341770  
H     9.2595810   -2.5025600   -1.9049380  
H     6.3087190   -2.5825270   -2.5929530  
H     5.1311150   -0.9423700   -1.3656520  
H     5.8495450    2.9074220    2.0646720  
C     3.1860920    2.5737010    0.3865100  
C     3.9248860    1.4313450    0.4591080  
C     2.9086600    0.3510310    0.4448020  
C     1.6059070    1.0593030    0.3344570  
N     1.7870970    2.3491560    0.3131340  
C     0.3319910    0.3373270    0.2836810  
C     0.4284670   -1.0280300    0.4050070  
O    -0.6303110   -1.8686520    0.3849390  
C     1.7201850   -1.7472830    0.5687250  
O     1.6788520   -2.9785180    0.6641140  
C     2.9782090   -0.9840720    0.5939090  
H    -0.2365920   -2.7675290    0.4847050  
H     3.9013300   -1.5398730    0.7227190  
H     3.5495980    3.5933000    0.3608740  
C    -0.9303310    1.0384010    0.1201720  
C    -1.1643320    2.3839930   -0.0451440  
C    -2.5813030    2.5715140   -0.1919820  
C    -3.1928950    1.2251120   -0.0960070  
N    -2.1532120    0.3496960    0.1046770  
C    -4.5297330    0.9625500   -0.2214600  
C    -5.4206270    2.1249480   -0.4180750  
O    -6.6355530    2.0269640   -0.4311600  
C    -4.7829600    3.5549440   -0.5530450  
O    -5.5175830    4.5077800   -0.7660330  
C    -3.3358960    3.6864590   -0.4072800  
H    -0.4025170    3.1460330   -0.0598560  
H    -2.9035580    4.6784900   -0.4947450  
H    -2.2311630   -0.6555600    0.1502710  
C    -4.5280980   -2.2486900    2.8745650  
C    -4.3225240   -1.0971410    2.1852140  
C    -4.9851040   -1.2359830    0.9022060  
C    -5.6075050   -2.5818710    0.9076210  
N    -5.2703640   -3.1524390    2.1211590  
C    -6.3713260   -3.0931210   -0.0925460  
C    -6.5929030   -2.2720720   -1.2734930  
O    -7.2903090   -2.6217300   -2.2136730  
C    -5.8782040   -0.8741350   -1.3464220  
O    -5.9155970   -0.2570240   -2.3943670  
C    -5.1192750   -0.3840890   -0.1616780  
H    -3.7797120   -0.2317110    2.5335760  
H    -6.8390870   -4.0718400   -0.0473310  
H    -4.2010050   -2.5201070    3.8696630  
H    -5.6273170   -4.0333210    2.4565970  
