66


C     2.3941930   -1.2148060   -1.7646550  
C     3.4246970   -0.4488350   -1.2667240  
C     2.8109480    0.5058420   -0.3714540  
C     1.4137790    0.2542780   -0.3702620  
N     1.1900630   -0.7854490   -1.2474660  
C     0.4798880    1.0196190    0.3687820  
C     1.0340030    2.0780720    1.0887770  
O     0.2099430    2.9177910    1.8211990  
C     2.4208690    2.3542630    1.0928430  
O     2.7670510    3.4470230    1.8713920  
C     3.3171160    1.5844490    0.3783170  
H     0.2995410   -1.2449530   -1.3669590  
H     0.7874830    3.5836220    2.2376750  
H     3.7115500    3.6325510    1.7638950  
H     4.3796840    1.8143840    0.3804960  
H     2.4336320   -2.0514640   -2.4481260  
C     5.3758300   -0.6367520   -2.8767890  
C     4.8444820   -0.5618140   -1.6088190  
C     5.9670710   -0.6369720   -0.6986870  
C     7.1433300   -0.7535730   -1.4832870  
N     6.7512750   -0.7580910   -2.8066850  
C     8.4213180   -0.8605640   -0.9195440  
C     8.5136170   -0.8572700    0.4636440  
O     9.7359280   -0.9597000    1.0661730  
C     7.3462560   -0.7550350    1.2651300  
O     7.5986240   -0.7714430    2.6270120  
C     6.0864510   -0.6483730    0.7056910  
H     7.3722690   -0.8060490   -3.5986660  
H     9.3232180   -0.9522360   -1.5164930  
H     9.5792290   -0.9727230    2.0260830  
H     6.7586950   -0.8263120    3.1061610  
H     5.2042650   -0.5793790    1.3383130  
H     4.8726000   -0.5915650   -3.8323990  
C    -1.8879850   -2.7815450    0.8308640  
C    -0.8873890   -1.8429510    0.8232460  
C    -1.4941380   -0.5773090    0.5024690  
C    -2.8859320   -0.8222090    0.3462550  
N    -3.0861120   -2.1749590    0.5249250  
C    -3.8393460    0.1780730    0.0441530  
C    -3.2955740    1.4528460   -0.0891320  
O    -4.1113510    2.5236330   -0.3939750  
C    -1.9146150    1.7322200    0.0534510  
O    -1.5976020    3.0613380   -0.1500670  
C    -0.9767660    0.7371060    0.3265590  
H     0.1541960   -2.0257720    1.0434790  
H    -3.9969310   -2.6085330    0.5620550  
H    -3.5115920    3.2983030   -0.4092050  
H    -0.9739000    3.3278840    0.5618140  
H    -1.8458530   -3.8423190    1.0348280  
C    -6.8065890   -2.1505580    2.5199130  
C    -5.6896280   -1.4874600    2.0801030  
C    -6.0046820   -0.9219020    0.7921170  
C    -7.3525240   -1.2739750    0.5148540  
N    -7.8076590   -2.0325000    1.5750650  
C    -8.0331550   -0.8566710   -0.6350840  
C    -7.3346820   -0.0416960   -1.5093360  
O    -7.9325920    0.4292720   -2.6385950  
C    -5.9821450    0.3233390   -1.2630880  
O    -5.4330410    1.1114390   -2.2533470  
C    -5.2805880   -0.1245400   -0.1416760  
H    -4.7630850   -1.3832400    2.6260690  
H    -8.7431600   -2.3956630    1.6670640  
H    -9.0652060   -1.1211350   -0.8417530  
H    -7.2594700    0.9914810   -3.0687350  
H    -4.9363440    1.8376130   -1.8149530  
H    -6.9781160   -2.6941060    3.4383700  
