62


C     5.5942160   -1.2228790   -2.6728510  
C     5.0593780   -0.9223000   -1.4418870  
C     6.1395990   -0.8943660   -0.4901340  
C     7.3189850   -1.1909980   -1.2184040  
N     6.9541030   -1.3960360   -2.5357450  
C     8.5812550   -1.2528420   -0.6140750  
C     8.6503960   -1.0096160    0.7480640  
O     9.8542720   -1.0503250    1.3850200  
C     7.4749400   -0.7146530    1.4931280  
O     7.7096920   -0.5037800    2.8370180  
C     6.2302870   -0.6575490    0.8963110  
H     7.5891790   -1.6091470   -3.2889050  
H     9.4885070   -1.4747500   -1.1664790  
H     9.6950810   -0.8314180    2.3196040  
H     6.8975710   -0.1953320    3.2656400  
H     5.3439990   -0.4287310    1.4830130  
H     5.1054990   -1.3186990   -3.6314470  
C     2.6806290   -1.6392350   -1.4447760  
C     1.4606040   -1.1111130   -1.1028220  
C     1.6977570    0.2065020   -0.5780340  
C     3.0996000    0.4205770   -0.6529060  
N     3.6854060   -0.7282150   -1.1733070  
C     3.7063540    1.6315000   -0.3073680  
C     2.8709980    2.6536940    0.1156900  
O     3.3924730    3.8605630    0.4578400  
C     1.4636250    2.4775020    0.2058760  
O     0.8069430    3.5852920    0.6757460  
C     0.8468850    1.2541570   -0.0981810  
H     0.5076480   -1.6001510   -1.2447480  
H     4.7747220    1.7950410   -0.3886970  
H     2.6271850    4.4279300    0.6739160  
H    -0.0246120    3.6793560    0.1528190  
H     2.9345070   -2.6048120   -1.8581320  
C    -1.2291640   -2.0588990    1.8277710  
C    -2.5281430   -1.7379190    1.5506010  
C    -2.5205190   -0.5013760    0.8197760  
C    -1.1032650   -0.1131120    0.6955400  
N    -0.3769890   -1.1011950    1.3253430  
C    -0.5990390    1.0216650    0.0898470  
C    -1.6249490    1.9760710   -0.3210050  
O    -1.3891340    3.1134150   -0.7265530  
C    -3.1504180    1.5901480   -0.2326890  
O    -3.9399830    2.4555500   -0.5915670  
C    -3.5464650    0.2751990    0.2903960  
H    -3.3943480   -2.2851600    1.8840350  
H    -0.8347380   -2.9048420    2.3747640  
H     0.6311950   -1.1546620    1.2948970  
C    -4.9321220   -0.1418410    0.2328820  
C    -5.4839320   -1.4069200    0.3410740  
C    -6.9017690   -1.2925530    0.1691620  
C    -7.1737010    0.1485250   -0.0596100  
N    -5.9547070    0.7827320    0.0049600  
C    -8.4092690    0.6660170   -0.2819150  
C    -9.5519600   -0.2417420   -0.2958040  
O   -10.6995140    0.1327980   -0.4876630  
C    -9.2874300   -1.7732620   -0.0511770  
O   -10.2349590   -2.5466630   -0.0570650  
C    -7.9116180   -2.2109970    0.1745830  
H    -4.9438020   -2.3324820    0.4587830  
H    -8.5902740    1.7230560   -0.4499400  
H    -7.7398210   -3.2704780    0.3400220  
H    -5.7509670    1.7451650   -0.2324960  
