62


C     4.5065890    0.4558380   -0.0484900  
C     4.2618130   -0.6430850   -0.8374650  
C     5.2908000   -1.6124750   -0.5858690  
C     6.1586540   -1.0536110    0.3819250  
N     5.7120790    0.2401090    0.6595810  
C     7.2629160   -1.7389350    0.8932680  
C     7.5043750   -3.0163340    0.4054020  
O     8.5666280   -3.7304430    0.8726230  
C     6.6580550   -3.5845990   -0.5833670  
O     7.0360410   -4.8528450   -0.9750730  
C     5.5641500   -2.9014200   -1.0835820  
H     3.4683070   -0.7200290   -1.5680360  
H     5.8354420    0.6421450    1.5821140  
H     7.9285080   -1.3160740    1.6387790  
H     8.5674810   -4.5859880    0.4093330  
H     6.4177700   -5.1862350   -1.6420790  
H     4.9268250   -3.3579900   -1.8380030  
C     0.1227400    1.5294080   -0.1249980  
C     1.3519220    0.8541910   -0.1147220  
C     2.3789840    1.8176930   -0.0206830  
C     1.7424900    3.0958390    0.0438260  
N     0.3942460    2.8898210   -0.0280640  
C     2.4555890    4.2918960    0.1811910  
C     3.8353590    4.1941350    0.2551560  
O     4.5874050    5.3170290    0.3733030  
C     4.4973060    2.9311880    0.1956350  
O     5.8692380    3.0354290    0.2620200  
C     3.8037640    1.7323860    0.0556370  
H     1.4798090   -0.2158420   -0.1102810  
H    -0.3439830    3.5756330    0.0613390  
H     1.9774320    5.2640150    0.2283340  
H     5.5216300    5.0405650    0.3688710  
H     6.2644760    2.1671490    0.0544580  
C    -1.7353980   -2.4484260   -1.0841900  
C    -0.8163340   -1.4540120   -0.9658690  
C    -1.5591140   -0.2906030   -0.5050400  
C    -2.9487010   -0.7777380   -0.4102970  
N    -3.0470780   -2.0426930   -0.7392260  
C    -4.0627550    0.0785110   -0.0229230  
C    -3.7541430    1.3778320    0.2467780  
O    -4.6670450    2.2840930    0.6440280  
C    -2.3702670    1.9114300    0.1461610  
O    -2.2344050    3.1238730    0.3607890  
C    -1.2157120    1.0044840   -0.1852920  
H     0.2317900   -1.5026290   -1.2188740  
H    -4.1869980    3.1367030    0.7011810  
H    -1.5749220   -3.4676430   -1.4153490  
C    -6.1238260   -3.2564760    2.1058320  
C    -5.2016870   -2.3829600    1.6298860  
C    -5.8826920   -1.4834440    0.7234250  
C    -7.3050720   -1.9105500    0.7167300  
N    -7.3821030   -2.9918550    1.5696490  
C    -8.2993180   -1.3080640    0.0141810  
C    -7.9566370   -0.1578020   -0.8053200  
O    -8.7768830    0.4750510   -1.4535470  
C    -6.4501070    0.2900820   -0.8633430  
O    -6.1435390    1.1729230   -1.6436440  
C    -5.4542920   -0.4051140   -0.0034410  
H    -4.1473850   -2.3778790    1.8545610  
H    -9.3356310   -1.6300820    0.0483820  
H    -5.9978210   -4.0782350    2.7982790  
H    -8.2289560   -3.4917270    1.7885600  
