64


C    -0.3779910    1.9208130    0.5868410  
C     0.9139290    1.4712140    0.4679610  
C     0.8402130    0.0909240    0.0838450  
C    -0.5324510   -0.2373440   -0.0410490  
N    -1.2561160    0.8997630    0.2641730  
C    -1.0140770   -1.5166920   -0.4039680  
C    -0.0181170   -2.4712220   -0.6531940  
O    -0.3660920   -3.7429520   -1.0117580  
C     1.3568340   -2.1611960   -0.5581520  
O     2.1792180   -3.2335800   -0.8481580  
C     1.8254560   -0.8931050   -0.1956010  
H     1.8028310    2.0714950    0.5886650  
H    -2.2518560    0.9218700    0.4315620  
H     0.4657410   -4.2386040   -1.1209930  
H     3.0919700   -3.0142590   -0.5827230  
C    -0.3993610    3.8749720    2.1018020  
C    -1.0629090    5.0642240    2.2038930  
C    -1.9906490    5.1317150    1.1081900  
C    -1.8389010    3.9387950    0.3581130  
N    -0.8587940    3.1691090    0.9889970  
C    -2.5659130    3.6851190   -0.8118350  
C    -3.4816380    4.6447090   -1.2172770  
O    -4.2155250    4.4444850   -2.3500720  
C    -3.6608310    5.8368770   -0.4680510  
O    -4.6102140    6.6910260   -0.9961740  
C    -2.9281020    6.0901440    0.6770420  
H    -0.9174480    5.8058030    2.9775220  
H    -2.4280970    2.7920110   -1.4107150  
H    -4.7914500    5.2202660   -2.4618380  
H    -4.6776340    7.4821680   -0.4416060  
H    -3.0723550    7.0169030    1.2291410  
H     0.3565590    3.4301430    2.7322630  
C     3.2544810   -0.6203730   -0.0680590  
C     3.9476910    0.1406190    0.8444420  
C     5.3471060    0.0383180    0.5419700  
C     5.4664790   -0.8105740   -0.5843120  
N     4.1883730   -1.2631900   -0.9136830  
C     6.6942480   -1.1099540   -1.1791050  
C     7.8319190   -0.5479070   -0.6153740  
O     9.0554770   -0.8042180   -1.1589820  
C     7.7342810    0.2874160    0.5286130  
O     8.9518780    0.7578280    0.9788880  
C     6.5149040    0.5820150    1.1117870  
H     3.5054980    0.6658100    1.6795450  
H     3.9426650   -1.4733490   -1.8743410  
H     6.7896340   -1.7560100   -2.0458050  
H     9.7146730   -0.3262530   -0.6265670  
H     8.8143260    1.3366930    1.7432020  
H     6.4638930    1.2282820    1.9856960  
C    -3.4201670   -0.9743030   -1.0144500  
C    -2.4471810   -1.7938750   -0.5150780  
C    -3.2012990   -2.9782190   -0.0349910  
C    -4.6215530   -2.6628510   -0.3540440  
N    -4.7371380   -1.4973100   -0.9292230  
C    -5.6918000   -3.5722270   -0.0362090  
C    -5.3754610   -4.7281790    0.5944920  
O    -6.2701720   -5.6641590    0.9582580  
C    -3.9570110   -5.0625930    0.9517140  
O    -3.7458970   -6.1299890    1.5277630  
C    -2.8742590   -4.1178150    0.6019890  
H    -6.7134060   -3.3145070   -0.2929340  
H    -5.7411370   -6.3718810    1.3876870  
H    -1.8611710   -4.4094970    0.8507940  
H    -3.2841190   -0.0098740   -1.4901980  
