60


C    -5.8207890   -3.4874550    1.2387370  
C    -5.0909830   -2.3465820    1.0226470  
C    -5.9572840   -1.3967950    0.3793340  
C    -7.2216920   -2.0313710    0.2445790  
N    -7.1027750   -3.3062890    0.7600930  
C    -8.3435560   -1.3948520   -0.2936160  
C    -8.1895850   -0.0721100   -0.6784900  
O    -9.2427690    0.6169150   -1.1922860  
C    -6.9442460    0.5986230   -0.5471260  
O    -6.9704330    1.8973810   -1.0001960  
C    -5.8006700   -0.0457710   -0.0596540  
H    -4.0566150   -2.2039760    1.2981900  
H    -7.8552360   -3.9722850    0.8372460  
H    -9.3096450   -1.8795760   -0.3910320  
H    -8.9108180    1.5226210   -1.3473580  
H    -6.4877530    2.4405990   -0.3358450  
H    -5.5311940   -4.4225080    1.6970710  
C    -1.8028150   -1.3074840   -1.4771580  
C    -3.1307930   -1.1847430   -1.2376100  
C    -3.3293180    0.0236450   -0.4702630  
C    -1.9836070    0.6147170   -0.2882080  
N    -1.0762640   -0.2588330   -0.8925460  
C    -1.7331870    1.7957890    0.3326740  
C    -2.8707130    2.5286620    0.8624050  
O    -2.7712090    3.5789960    1.4760080  
C    -4.3119790    1.9579290    0.5981650  
O    -5.2512990    2.6996580    0.8766590  
C    -4.4783700    0.6147830    0.0099780  
H    -3.9034030   -1.8675060   -1.5537360  
H    -0.7427020    2.2161070    0.4601770  
H    -1.2626050   -2.0751460   -2.0143360  
C     1.0473850   -0.1925630   -2.1651770  
C     0.3055910   -0.0781700   -1.0339550  
C     1.2839120    0.1080450    0.0533660  
C     2.5976590    0.1124270   -0.6495020  
N     2.4416150   -0.0762040   -1.9301070  
C     3.8688640    0.2850860    0.0624590  
C     3.7556590    0.3881900    1.4271370  
O     4.8062630    0.5826990    2.2529180  
C     2.4598690    0.3293400    2.1494160  
O     2.4721830    0.4384440    3.3784460  
C     1.1990700    0.1788130    1.3914030  
H     4.4125800    0.6347630    3.1535490  
H     0.2738530    0.1585640    1.9584040  
H     0.6953910   -0.3614780   -3.1754860  
C     5.2682120    0.7453850   -1.9865200  
C     5.1178290    0.3378840   -0.6836030  
C     6.4876290   -0.0543850   -0.2783660  
C     7.3148880    0.2230270   -1.4927590  
N     6.5907290    0.6960160   -2.4723920  
C     8.7285190   -0.0301060   -1.5358160  
C     9.3081800   -0.5702130   -0.4370950  
O    10.6105920   -0.8700610   -0.3359560  
C     8.5013240   -0.8964340    0.7897330  
O     9.0930080   -1.3968820    1.7440360  
C     7.0512500   -0.6106740    0.8117550  
H     9.2891230    0.1989470   -2.4351880  
H    10.7234260   -1.2464320    0.5650450  
H     6.5201440   -0.8422850    1.7254820  
H     4.4841090    1.0837310   -2.6477560  
