64


C     0.3264880    4.5871380   -0.4667230  
C    -0.3572290    3.3864360   -0.3149640  
C    -1.7578640    3.7374310   -0.1567570  
C    -1.8436530    5.1479770   -0.2204310  
N    -0.5556740    5.6295320   -0.4117790  
C    -3.0479820    5.8479500   -0.0888740  
C    -4.1965500    5.0987610    0.1190750  
O    -5.4007220    5.7230610    0.2605540  
C    -4.1284890    3.6824360    0.1921170  
O    -5.3516230    3.0743740    0.4035710  
C    -2.9352610    2.9971700    0.0572260  
H    -0.3092320    6.6019010   -0.5185080  
H    -3.1117030    6.9303120   -0.1336110  
H    -6.0639560    5.0303590    0.4253120  
H    -5.2114140    2.1316940    0.5792330  
H    -2.8913380    1.9136090    0.1085170  
H     1.3803440    4.7613470   -0.6311110  
C     0.2295430    2.0750630   -0.3119090  
C     1.5494960    1.6953600   -0.2497340  
C     1.5554610    0.2598000   -0.2969050  
C     0.1084130   -0.1147350   -0.4035950  
N    -0.6512560    0.9417560   -0.3963040  
C    -0.3521830   -1.4993910   -0.5073720  
C     0.6486400   -2.4269120   -0.4686920  
O     0.4447970   -3.7563550   -0.5714800  
C     2.1034870   -2.0891800   -0.2962520  
O     2.8719640   -3.0478030   -0.1833590  
C     2.5479530   -0.6786660   -0.2524440  
H     2.4187500    2.3342060   -0.1848880  
H     1.3498000   -4.1397340   -0.4835870  
C     4.6756990    1.6338870    2.8648230  
C     5.9506410    1.4423900    2.4005510  
C     5.8490590    0.6574660    1.2023750  
C     4.4693560    0.4015600    0.9889310  
N     3.7803950    0.9976690    2.0245150  
C     3.9818830   -0.3767620   -0.0861400  
C     4.9432950   -0.8667970   -0.9746510  
O     4.5522320   -1.5618690   -2.0785590  
C     6.3241930   -0.6120130   -0.7768020  
O     7.1345040   -1.1655150   -1.7528040  
C     6.7864080    0.1301060    0.2930380  
H     6.8578630    1.8101520    2.8600750  
H     2.7751160    1.0515660    2.0866760  
H     5.3598750   -1.8716630   -2.5237990  
H     8.0631640   -1.0241350   -1.5175930  
H     7.8526760    0.3062740    0.4220540  
H     4.3218630    2.1710250    3.7335620  
C    -2.6625780   -1.0083880   -1.3779400  
C    -1.7766160   -1.8013560   -0.6701790  
C    -2.5535860   -2.9208250   -0.1672760  
C    -3.8869460   -2.7376230   -0.6148370  
N    -3.9177020   -1.5651650   -1.3485480  
C    -4.9305760   -3.6153860   -0.3001430  
C    -4.6271890   -4.7084320    0.4959410  
O    -5.6032820   -5.6026920    0.8331880  
C    -3.3040990   -4.9037450    0.9673320  
O    -3.1530680   -6.0310430    1.7566570  
C    -2.2777360   -4.0321990    0.6543980  
H    -4.7191700   -1.2119100   -1.8475080  
H    -5.9475650   -3.4700830   -0.6506390  
H    -5.1805530   -6.2926090    1.3732660  
H    -2.2151200   -6.1465480    1.9689380  
H    -1.2716570   -4.2187840    1.0142300  
H    -2.4753700   -0.0819440   -1.8970900  
