62


C    -3.7845550    1.5450940    1.2889970  
C    -2.4639040    1.7374670    0.9783550  
C    -2.1385710    0.8159790   -0.0691470  
C    -3.3179660    0.0766470   -0.3470110  
N    -4.3187220    0.5383270    0.5011660  
C    -3.3764110   -0.9251480   -1.3221860  
C    -2.2134700   -1.2055310   -2.0263160  
O    -2.2272510   -2.1625870   -2.9962680  
C    -1.0162890   -0.4998810   -1.7617650  
O     0.0359870   -0.8803920   -2.5677600  
C    -0.9493290    0.5163870   -0.7934150  
H    -1.8030240    2.4439590    1.4578240  
H    -4.2891270   -1.4609450   -1.5572190  
H    -1.3463200   -2.1675310   -3.4101200  
H     0.7464140   -0.2166060   -2.5092350  
H    -4.4112380    2.0435320    2.0133050  
C     0.2826210    1.2559730   -0.5694340  
C     0.4932920    2.5706570   -0.2537120  
C     1.9092230    2.8015100   -0.1551880  
C     2.5572880    1.5047350   -0.4226330  
N     1.5388640    0.6143300   -0.7597960  
C     3.9005380    1.2401250   -0.3158440  
C     4.7473440    2.4151410    0.0136320  
O     5.9619620    2.3494770    0.1036970  
C     4.0764290    3.8230130    0.2312840  
O     4.8066490    4.7655420    0.5021380  
C     2.6325330    3.9235190    0.1284130  
H    -0.2752210    3.3235380   -0.1585120  
H     2.1711210    4.8878160    0.3157140  
H     1.6501890   -0.3680630   -0.5210940  
C     3.9986200   -1.0603770   -1.3860850  
C     4.4751940   -0.0792860   -0.5531360  
C     5.6561420   -0.7196010    0.0885290  
C     5.6972520   -2.0842980   -0.5071550  
N     4.7337750   -2.2637120   -1.3723020  
C     6.6966270   -3.0526970   -0.1432710  
C     7.6103430   -2.6997140    0.7917680  
O     8.5918870   -3.5009030    1.2351280  
C     7.5865620   -1.3404400    1.4283900  
O     8.4370350   -1.0920870    2.2806480  
C     6.5593840   -0.3547190    1.0183740  
H     6.6929440   -4.0314040   -0.6100270  
H     9.0807800   -2.9691410    1.9013130  
H     6.6107760    0.6261140    1.4730360  
H     3.1594740   -0.9920760   -2.0674340  
C    -5.8448000   -3.4616820    1.4180530  
C    -7.1771420   -3.1653460    1.2998650  
C    -7.2730650   -1.7743310    0.9559300  
C    -5.9447370   -1.2802040    0.8800810  
N    -5.0956820   -2.3242400    1.1734140  
C    -5.6561440    0.0610890    0.5655270  
C    -6.7335680    0.9144830    0.3341650  
O    -6.5124780    2.2246120    0.0307340  
C    -8.0639550    0.4291620    0.4239450  
O    -9.0159760    1.4001470    0.1769060  
C    -8.3450820   -0.8900440    0.7247170  
H    -7.9971970   -3.8550100    1.4439830  
H    -4.0890210   -2.2763760    1.1445110  
H    -7.3844310    2.6322310   -0.1147410  
H    -9.8967100    0.9973280    0.1683060  
H    -9.3758230   -1.2321930    0.7885480  
H    -5.3561700   -4.3946910    1.6603190  
