62


C    -0.9546150   -4.7450620    0.1537240  
C    -1.3627550   -3.4187160    0.0564280  
C    -2.8151470   -3.4457270    0.0260050  
C    -3.2081980   -4.8019420    0.1055160  
N    -2.0486130   -5.5620150    0.1839350  
C    -4.5448150   -5.2142900    0.0852060  
C    -5.5108720   -4.2250900   -0.0252610  
O    -6.8306950   -4.5635270   -0.0558470  
C    -5.1347960   -2.8585750   -0.1133640  
O    -6.2047630   -1.9911440   -0.2197390  
C    -3.8113670   -2.4586580   -0.0885730  
H    -2.0184250   -6.5660720    0.2779210  
H    -4.8443980   -6.2556830    0.1418980  
H    -7.3359320   -3.7391790   -0.1661170  
H    -5.8757820   -1.1015030   -0.4184420  
H    -3.5321740   -1.4114250   -0.1507070  
H     0.0432740   -5.1533250    0.2276980  
C    -0.5012300   -2.2723720   -0.0037850  
C     0.8579490   -2.1908690   -0.1997250  
C     1.1893730   -0.7976450   -0.1465170  
C    -0.1177850   -0.1155980    0.1160800  
N    -1.0927150   -0.9745660    0.1742450  
C    -0.2457860    1.3338880    0.2820680  
C     0.9299020    2.0189590    0.1628470  
O     1.0376830    3.3551430    0.3253330  
C     2.2462730    1.3743780   -0.1396660  
O     3.2177730    2.1359320   -0.2369700  
C     2.3540390   -0.0897930   -0.2984110  
H     1.5447160   -3.0091920   -0.3614430  
H     1.9960670    3.5373500    0.1843850  
C     3.7612530   -1.6841450   -1.6175240  
C     3.6297360   -0.6967160   -0.6787520  
C     4.9811770   -0.4511890   -0.1580570  
C     5.8814850   -1.3845620   -0.8813070  
N     5.0747370   -2.0995750   -1.7461470  
C     7.2218820   -1.4813070   -0.6917990  
C     7.8429060   -0.6239860    0.3109410  
O     9.0398940   -0.6369360    0.5556310  
C     6.9097540    0.3514400    1.1141460  
O     7.4000090    1.0638780    1.9753190  
C     5.4746050    0.3725820    0.8003180  
H     7.8528270   -2.1728070   -1.2419950  
H     4.8577300    1.0787510    1.3419570  
H     2.9904330   -2.1221360   -2.2371200  
H     5.4091400   -2.7657800   -2.4249690  
C    -2.5191200    1.3264420    1.3599330  
C    -1.5424660    1.9365360    0.5894510  
C    -2.0865250    3.2261530    0.1991760  
C    -3.3799800    3.3225200    0.7718330  
N    -3.6092360    2.1507150    1.4722870  
C    -4.2226880    4.4241250    0.5877770  
C    -3.7536710    5.4607330   -0.2037040  
O    -4.5285980    6.5642090   -0.4161730  
C    -2.4691440    5.3798990   -0.7994720  
O    -2.1405650    6.4824850   -1.5678760  
C    -1.6425160    4.2871350   -0.6153570  
H    -4.4222030    1.9606490    2.0374310  
H    -5.2098890    4.4912060    1.0338730  
H    -4.0120440    7.1713060   -0.9739880  
H    -1.2212770    6.4036790   -1.8626900  
H    -0.6580350    4.2628390   -1.0696450  
H    -2.5002700    0.3578240    1.8332330  
