64


C    -1.8505350   -0.7073190   -2.2508590  
C    -2.0876650   -1.4851930   -1.1375850  
C    -3.2368190   -0.8984310   -0.4768740  
C    -3.6351960    0.2280790   -1.2407280  
N    -2.7742360    0.3157690   -2.3154400  
C    -4.7004730    1.0578090   -0.8652260  
C    -5.3775650    0.7386160    0.3028710  
O    -6.4254380    1.5107040    0.7151330  
C    -4.9899200   -0.3856060    1.0818510  
O    -5.7599770   -0.5671970    2.2141810  
C    -3.9375040   -1.1998200    0.7095520  
H    -2.8163240    1.0141380   -3.0410320  
H    -5.0086710    1.9218860   -1.4452260  
H    -6.7588280    1.1224540    1.5427850  
H    -5.4077880   -1.3075310    2.7303830  
H    -3.6482900   -2.0476930    1.3258380  
H    -1.0933990   -0.8186380   -3.0141870  
C     2.2783700   -1.9332170   -0.1030500  
C     1.0372230   -1.4670680   -0.5386870  
C     0.1082580   -2.5385990   -0.4384730  
C     0.8282420   -3.6635970    0.0534300  
N     2.1286900   -3.2683920    0.2430990  
C     0.2166350   -4.8998960    0.2976550  
C    -1.1439140   -4.9898710    0.0500770  
O    -1.7978250   -6.1680490    0.2614210  
C    -1.8815160   -3.8689600   -0.4223430  
O    -3.2269760   -4.1241280   -0.6055770  
C    -1.2887230   -2.6386900   -0.6790180  
H     0.8113920   -0.5026990   -0.9684470  
H     2.9251160   -3.8306930    0.5174890  
H     0.7580110   -5.7640300    0.6674610  
H    -2.7250220   -6.0293700    0.0004200  
H    -3.6357420   -3.3443330   -1.0180010  
C     3.2512930    2.3406900    0.0753800  
C     4.6142910    2.2537550    0.2120380  
C     4.9557550    0.8586400    0.2277840  
C     3.6888430    0.1168320    0.0865390  
N     2.6950190    1.0705980   -0.0090190  
C     3.5496900   -1.2516500    0.0595430  
C     4.8016420   -2.0063320    0.2948120  
O     4.8287080   -3.2210380    0.4552380  
C     6.1753850   -1.2368000    0.3686900  
O     7.1946520   -1.9106730    0.4500080  
C     6.1545290    0.2090460    0.3504240  
H     5.2999430    3.0793720    0.3278110  
H     7.0999690    0.7353140    0.4315920  
H     1.7134930    0.8686050   -0.0899560  
C     2.9054560    4.6803390   -0.5642300  
C     1.8597960    5.5350150   -0.7216140  
C     0.6692720    4.8518450   -0.2849210  
C     1.0582730    3.5625670    0.1507580  
N     2.4481540    3.4589620   -0.0433850  
C     0.1381500    2.6590500    0.6988500  
C    -1.2000020    3.0342400    0.7351420  
O    -2.1124140    2.1705890    1.2511120  
C    -1.6072340    4.3073220    0.2615020  
O    -2.9627770    4.5318360    0.3485270  
C    -0.6865920    5.2183950   -0.2280820  
H     1.9202120    6.5392390   -1.1183030  
H     0.4042570    1.7021560    1.1317610  
H    -3.0033600    2.5319240    1.0997830  
H    -3.1657730    5.4337840    0.0588650  
H    -1.0098300    6.2023470   -0.5615510  
H     3.9489430    4.7917280   -0.8158450  
