62


C     4.4774210   -0.9213800   -1.9938920  
C     5.2906060   -2.0208530   -1.9926770  
C     6.0848770   -1.9608050   -0.7981140  
C     5.6968060   -0.7865960   -0.1012410  
N     4.7075960   -0.1555830   -0.8522460  
C     6.2545780   -0.4220280    1.1350550  
C     7.2353270   -1.2503950    1.6635520  
O     7.8080970   -0.9414740    2.8613500  
C     7.6440870   -2.4211660    0.9725370  
O     8.6290970   -3.1367970    1.6244610  
C     7.0794600   -2.7845250   -0.2368820  
H     5.3269590   -2.7834290   -2.7587150  
H     5.9232910    0.4429080    1.6999750  
H     8.4490120   -1.6442390    3.0657370  
H     8.8359500   -3.9383430    1.1215830  
H     7.4007690   -3.6933740   -0.7420550  
H     3.7544310   -0.5816130   -2.7212480  
C     0.4176440    0.9855580   -0.3873960  
C     1.6141390    0.2768330   -0.5654860  
C     2.6789980    1.2035300   -0.4771440  
C     2.1027690    2.4872630   -0.2340670  
N     0.7459680    2.3217940   -0.1907650  
C     2.8731440    3.6422110   -0.0588050  
C     4.2495940    3.5013040   -0.1341110  
O     5.0527510    4.5827530    0.0283930  
C     4.8565500    2.2357980   -0.3997620  
O     6.2257190    2.2882380   -0.4936480  
C     4.0909460    1.0918510   -0.5692750  
H     1.7110560   -0.7916790   -0.6724740  
H     0.0369800    3.0106000    0.0302760  
H     2.4394270    4.6157190    0.1411490  
H     5.9736860    4.2711330   -0.0367060  
H     6.6041570    1.3947690   -0.4178540  
C    -1.5989680   -2.7713250   -1.7177130  
C    -0.7076690   -1.7600470   -1.5278580  
C    -1.3794570   -0.7193460   -0.7882070  
C    -2.7443790   -1.1998520   -0.5607710  
N    -2.8023220   -2.4654750   -1.1031290  
C    -3.7860340   -0.5137780    0.0520980  
C    -3.4595220    0.8551620    0.4467680  
O    -4.2383800    1.6264720    0.9875450  
C    -2.0078830    1.4145460    0.1802590  
O    -1.8417050    2.6044490    0.4183040  
C    -0.9461570    0.5264290   -0.3420680  
H     0.2994070   -1.7311310   -1.9100830  
H    -1.4809350   -3.7078650   -2.2453690  
H    -3.6700250   -2.9663200   -1.2318810  
C    -5.3511560   -2.4433620    0.5512250  
C    -5.0805060   -1.1147180    0.3143790  
C    -6.4327160   -0.4850740    0.3170040  
C    -7.3598880   -1.6195730    0.5606410  
N    -6.7132290   -2.7495640    0.7092370  
C    -8.7845040   -1.4443650    0.6250490  
C    -9.2814290   -0.1979230    0.4326550  
O   -10.5903350    0.1091130    0.4538250  
C    -8.3784360    0.9654730    0.1676980  
O    -8.8961010    2.0691850   -0.0081370  
C    -6.9122630    0.7603800    0.1309000  
H    -9.4247340   -2.2993220    0.8126600  
H   -10.6290840    1.0763290    0.2848950  
H    -6.2952150    1.6380430   -0.0125650  
H    -4.6302520   -3.2412440    0.6881560  
