64


C     5.0687430   -0.6920600   -2.3336520  
C     5.0529010   -0.1609890   -1.0587840  
C     6.2201310   -0.6902970   -0.3886310  
C     6.8920420   -1.5313870   -1.3105500  
N     6.1650810   -1.5174810   -2.4850810  
C     8.0662190   -2.2253070   -0.9894300  
C     8.5714870   -2.0636870    0.2903710  
O     9.7166190   -2.7092670    0.6589160  
C     7.9086170   -1.2275810    1.2287240  
O     8.5339500   -1.1700620    2.4618940  
C     6.7491340   -0.5490320    0.9092520  
H     6.4388860   -1.9672090   -3.3443810  
H     8.5838610   -2.8674360   -1.6948550  
H     9.9088350   -2.4467130    1.5757360  
H     8.0834190   -0.5171980    3.0177050  
H     6.2687700    0.1008590    1.6350800  
H     4.4045420   -0.4999610   -3.1653220  
C     0.7087340   -0.6500070   -1.1036420  
C     0.3402910    0.5344240   -0.4786640  
C     1.5791210    1.2313430   -0.1846060  
C     2.6372980    0.4168760   -0.6534150  
N     2.0733380   -0.7111270   -1.2181610  
C     4.0085460    0.7273530   -0.5173250  
C     4.2819370    1.9247820    0.1443920  
O     5.5730210    2.3343430    0.3212810  
C     3.2352270    2.7536110    0.6284070  
O     3.6864040    3.9065810    1.2481820  
C     1.9021280    2.4331710    0.4749170  
H     2.6107220   -1.4719890   -1.6062470  
H     5.5300910    3.2218650    0.7200550  
H     2.9487170    4.5282520    1.3395870  
H     1.1270500    3.1057200    0.8252650  
H     0.0839670   -1.4142230   -1.5450500  
C    -3.0287490   -1.8564030    0.9452370  
C    -4.0112130   -0.9092950    0.9365510  
C    -3.4123960    0.3383500    0.4882620  
C    -1.9954240    0.0291340    0.2253960  
N    -1.8349320   -1.3263670    0.4907090  
C    -1.0395750    0.9233110   -0.1825380  
C    -1.5119080    2.3191960   -0.3407700  
O    -0.7791830    3.2350160   -0.6770810  
C    -3.0306580    2.6624550   -0.0707550  
O    -3.3816920    3.8264920   -0.1950150  
C    -3.9269360    1.5897390    0.3327550  
H    -4.9702930    1.8231820    0.5154240  
H    -3.0984780   -2.8962600    1.2354660  
H    -0.9246030   -1.7495650    0.6042490  
C    -5.7670020   -1.4074130    2.6289330  
C    -7.1282600   -1.5247320    2.6609290  
C    -7.6080920   -1.2745720    1.3299060  
C    -6.4742670   -1.0094470    0.5214030  
N    -5.3467110   -1.0933130    1.3363150  
C    -6.5669850   -0.7431750   -0.8501550  
C    -7.8336330   -0.7313810   -1.4138280  
O    -7.9824460   -0.4752140   -2.7467630  
C    -8.9823290   -0.9864460   -0.6189760  
O   -10.1709870   -0.9407480   -1.3243950  
C    -8.8843190   -1.2571840    0.7333220  
H    -7.7241040   -1.7553200    3.5336300  
H    -5.7002790   -0.5454650   -1.4708730  
H    -8.9358930   -0.4940950   -2.9378970  
H   -10.9118760   -1.0785720   -0.7161240  
H    -9.7784870   -1.4564510    1.3210770  
H    -5.0326280   -1.4986460    3.4166030  
