64


C     1.5287130   -2.0434780   -0.2033570  
C     2.7759200   -1.4443840   -0.3275530  
C     3.7654850   -2.4434540   -0.0761130  
C     3.0700170   -3.6505360    0.2037470  
N     1.7239910   -3.3764420    0.1305670  
C     3.7306380   -4.8522840    0.4910510  
C     5.1161270   -4.8346500    0.4938290  
O     5.8117240   -5.9771230    0.7654830  
C     5.8284760   -3.6351070    0.2157050  
O     7.2024530   -3.7825810    0.2593640  
C     5.1761810   -2.4507930   -0.0653030  
H     2.9687940   -0.4326460   -0.6559470  
H     0.9712020   -4.0480790    0.1577840  
H     3.2048130   -5.7772010    0.7042110  
H     6.7575750   -5.7571480    0.7078570  
H     7.6247220   -2.9440700    0.0209440  
H     5.7424610   -1.5456680   -0.2761340  
C     0.1427480    2.0977460    0.2995390  
C    -1.1725410    1.9124710   -0.0451570  
C    -1.3215300    0.5172510   -0.3456880  
C    -0.0525320   -0.0906330   -0.1893220  
N     0.8333260    0.9019040    0.1908200  
C     0.1938210   -1.4726590   -0.3593640  
C    -0.9438710   -2.2339220   -0.6609530  
O    -0.8432940   -3.5935940   -0.8032580  
C    -2.2176200   -1.6493370   -0.8606920  
O    -3.1882270   -2.5498290   -1.2359130  
C    -2.4247480   -0.2803000   -0.7180370  
H    -1.9320360    2.6783780   -0.1030400  
H     1.7342780    0.7141610    0.6085010  
H    -1.7386010   -3.9210790   -1.0073260  
H    -4.0734210   -2.1763110   -1.0805270  
C     0.2669440    4.1331530    1.7082760  
C     1.0905680    5.1868610    1.9226670  
C     2.2429050    5.0186640    1.0624300  
C     2.0130760    3.7638570    0.3035940  
N     0.7916590    3.2546980    0.7481740  
C     2.8602160    3.2736710   -0.6368990  
C     4.0965330    4.0061420   -0.9067200  
O     4.9203280    3.6345330   -1.7283570  
C     4.3710600    5.3250010   -0.0970640  
O     5.4041550    5.9423030   -0.3022850  
C     3.3645540    5.7618930    0.8741860  
H     0.9255240    5.9971220    2.6178800  
H     2.6638350    2.3725420   -1.2071940  
H     3.5536130    6.6839200    1.4155830  
H    -0.6812760    3.8869220    2.1664930  
C    -3.9987660    1.2551620   -1.9019650  
C    -5.3398330    1.5228970   -1.9037000  
C    -5.9415870    0.6865090   -0.9038750  
C    -4.8963140   -0.0719380   -0.3146230  
N    -3.7060840    0.2873590   -0.9424310  
C    -5.1202470   -0.9847600    0.7290550  
C    -6.4272300   -1.1459200    1.1689430  
O    -6.6977970   -2.0189980    2.1807620  
C    -7.4855650   -0.4048630    0.5810010  
O    -8.7254080   -0.6783080    1.1248280  
C    -7.2570230    0.5054510   -0.4352840  
H    -5.8439930    2.2295700   -2.5486400  
H    -4.3191570   -1.5252450    1.2224200  
H    -7.6551370   -1.9786020    2.3492090  
H    -9.3970510   -0.1263050    0.6977640  
H    -8.0831290    1.0710320   -0.8620330  
H    -3.2021860    1.6485810   -2.5168370  
