60


C     3.7869590    0.1770010    0.0352540  
C     2.5752020    0.8508380    0.2151300  
C     2.8560320    2.2381580    0.2325580  
C     4.2655650    2.3858810    0.0515320  
N     4.7984750    1.1296010   -0.0659020  
C     4.8926460    3.6366610    0.0199320  
C     4.0896550    4.7554080    0.1795820  
O     4.6445780    5.9950170    0.1649390  
C     2.6783300    4.6286750    0.3662850  
O     2.0358070    5.8416990    0.5085780  
C     2.0604350    3.3985430    0.3910880  
H     1.6187340    0.3633440    0.3209040  
H     5.7739630    0.8896610   -0.1697510  
H     5.9622910    3.7581710   -0.1137690  
H     3.9288260    6.6370800    0.3181850  
H     1.1137110    5.6972390    0.7685290  
H     0.9853380    3.3205280    0.5395750  
C     1.0397450   -3.2528820    0.1345640  
C     1.9318990   -4.2947310    0.1464890  
C     3.2408600   -3.6922270    0.0747180  
C     2.9737480   -2.2234270    0.0417300  
N     1.7013820   -1.9779290    0.0615840  
C     4.0636510   -1.2369830   -0.0144790  
C     5.3272300   -1.7751190   -0.1023070  
O     6.4527710   -1.0164590   -0.1812170  
C     5.6131590   -3.2199010   -0.0953230  
O     6.7987090   -3.5799270   -0.1650250  
C     4.5003700   -4.1773600    0.0030430  
H     1.7149830   -5.3538750    0.1696520  
H     7.1852850   -1.6754710   -0.2177020  
H     4.7516550   -5.2338740    0.0087880  
C    -0.3984310   -3.2931290    0.1757180  
C    -1.2250220   -4.3521590    0.4520500  
C    -2.5693580   -3.8429090    0.3369060  
C    -2.3917310   -2.4015230   -0.0276280  
N    -1.1350860   -2.0896950   -0.1100320  
C    -3.5223600   -1.4979530   -0.2549810  
C    -4.7562640   -2.0765130   -0.1351480  
O    -5.9129860   -1.4306870   -0.3727360  
C    -4.9604660   -3.5097080    0.2491080  
O    -6.1239780   -3.9143870    0.3277800  
C    -3.8011450   -4.3786840    0.4869290  
H    -0.9435530   -5.3599810    0.7244120  
H    -6.6150360   -2.1003800   -0.2022780  
H    -3.9966570   -5.4121750    0.7553940  
C    -2.1645830    0.3288180   -1.3031350  
C    -3.2711490   -0.1019750   -0.6133210  
C    -4.0452350    1.1022760   -0.2955850  
C    -3.3007080    2.2423550   -0.8922070  
N    -2.1831110    1.6952620   -1.4906520  
C    -3.6725860    3.5452950   -0.8210210  
C    -4.8831760    3.8817350   -0.0813240  
O    -5.2937230    5.0254360    0.0469810  
C    -5.6725780    2.7034230    0.5915810  
O    -6.6807490    2.9581980    1.2317180  
C    -5.1709280    1.3333820    0.4298540  
H    -3.1035980    4.3513300   -1.2748060  
H    -5.7456300    0.5397500    0.8882540  
H    -1.3349860   -0.2605930   -1.6618870  
H    -1.4689710    2.2198390   -1.9721660  
