60


C     5.3289470    0.2075200   -2.3718390  
C     6.6084910   -0.1392440   -2.6829750  
C     7.2956360   -0.4089970   -1.4478410  
C     6.3713840   -0.1920720   -0.3968920  
N     5.1575460    0.1988500   -0.9819220  
C     6.6943910   -0.4317200    0.9422910  
C     7.9829660   -0.8642980    1.2261550  
O     8.3440510   -1.1017330    2.5219490  
C     8.9252740   -1.0644400    0.1885630  
O    10.1633100   -1.4939010    0.6260830  
C     8.5944650   -0.8464580   -1.1386370  
H     7.0202770   -0.2032520   -3.6809710  
H     5.9969290   -0.2830820    1.7555000  
H     9.2717310   -1.3935730    2.5129970  
H    10.7523100   -1.6099990   -0.1339610  
H     9.3249130   -1.0249170   -1.9253790  
H     4.4986260    0.4674280   -3.0082220  
C     1.1468130   -1.1104870   -1.8732460  
C     0.4074450   -0.4802750   -0.9126760  
C     1.4102700    0.2789480   -0.1318250  
C     2.7028620   -0.0238410   -0.8050320  
N     2.5336420   -0.8379190   -1.8100820  
C     3.9639210    0.5271930   -0.3278130  
C     3.9051530    1.3425840    0.7717170  
O     4.9764990    1.9693820    1.2933250  
C     2.6339890    1.6092390    1.4869470  
O     2.6624140    2.3553900    2.4689050  
C     1.3689800    1.0205420    0.9880620  
H     4.6301260    2.4648790    2.0682670  
H     0.4706810    1.2353960    1.5578980  
H     0.7784240   -1.7541520   -2.6628790  
C    -1.8004760   -1.7018340   -0.8192610  
C    -1.0156610   -0.5927330   -0.6790870  
C    -1.9728780    0.4746940   -0.3071270  
C    -3.2945430   -0.2168870   -0.2628170  
N    -3.1770530   -1.4787690   -0.5712660  
C    -4.5238810    0.4863810    0.0535220  
C    -4.4131570    1.8258380    0.2904900  
O    -5.4459080    2.6037040    0.6367270  
C    -3.1028900    2.5522170    0.2117520  
O    -3.1040140    3.7609400    0.4339150  
C    -1.8727320    1.8024350   -0.1169810  
H    -5.0792800    3.5119750    0.7195470  
H    -0.9513450    2.3717620   -0.1847570  
H    -1.4735000   -2.7034070   -1.0714850  
C    -6.3033720   -2.9730700    2.2899840  
C    -5.4147290   -2.0543600    1.8473710  
C    -6.1351840   -1.2800090    0.8421710  
C    -7.4984370   -1.9031940    0.8179970  
N    -7.5913680   -2.8856430    1.6660080  
C    -8.5422650   -1.4150390   -0.0450460  
C    -8.2535780   -0.3644610   -0.8455440  
O    -9.1220170    0.1877450   -1.7085710  
C    -6.8930600    0.2814480   -0.8550510  
O    -6.7095950    1.1887850   -1.6610720  
C    -5.8276570   -0.2076750    0.0720480  
H    -4.3859500   -1.9207950    2.1459660  
H    -9.5174370   -1.8889700   -0.0401950  
H    -8.6231520    0.9049600   -2.1576410  
H    -6.1495850   -3.7400530    3.0397760  
