60


C     0.4534850    4.6670610   -0.5367620  
C     0.0324330    3.3395000   -0.5790630  
C     1.1610460    2.5766270   -1.0896040  
C     2.2136330    3.4922260   -1.3167250  
N     1.7415920    4.7539400   -0.9731530  
C     3.4723950    3.1094100   -1.7928150  
C     3.6725830    1.7586950   -2.0393540  
O     4.8813920    1.3204530   -2.4905040  
C     2.6261420    0.8225930   -1.8214430  
O     2.9782630   -0.4804490   -2.0997210  
C     1.3797770    1.2152170   -1.3681880  
H     2.2724340    5.6097390   -1.0390580  
H     4.2787900    3.8141220   -1.9675550  
H     4.8058360    0.3588010   -2.6211720  
H     2.2467700   -1.0808520   -1.8806690  
H     0.5772510    0.5001940   -1.2340920  
H    -0.0840440    5.5487910   -0.2182640  
C    -1.2479740    2.8496930   -0.1631460  
C    -2.3407990    3.5222060    0.3423000  
C    -3.3328140    2.5320410    0.6122030  
C    -2.6932890    1.2348630    0.1844320  
N    -1.4809820    1.4330590   -0.2506390  
C    -3.3719810   -0.0431150    0.2680640  
C    -4.6110410    0.0015230    0.8484720  
O    -5.3510540   -1.0717480    1.0997920  
C    -5.2804390    1.2929660    1.3008380  
O    -6.4049040    1.1682590    1.7960330  
C    -4.5875190    2.5545520    1.1405230  
H    -2.4395870    4.5850170    0.5150820  
H    -6.1874080   -0.7162690    1.4882070  
H    -5.0950820    3.4572870    1.4643290  
C     0.6583730   -1.9164930    0.5173020  
C     0.4162590   -3.0180520   -0.2760840  
C    -0.9586920   -2.9663770   -0.6924370  
C    -1.5258670   -1.7334260   -0.0975360  
N    -0.5218060   -1.1766400    0.6668290  
C    -2.8059870   -1.2869570   -0.2901480  
C    -3.6395590   -2.0902370   -1.2167870  
O    -4.7283940   -1.7193130   -1.6195610  
C    -3.0908510   -3.4657080   -1.7449110  
O    -3.8403230   -4.1850990   -2.3890890  
C    -1.7043050   -3.8109630   -1.4599920  
H     1.1346870   -3.7874740   -0.5069810  
H    -1.3105780   -4.7358630   -1.8701490  
H    -0.5284650   -0.1928450    0.9106620  
C     4.6990200   -3.6691580    0.3411780  
C     5.4052680   -2.8236260    1.1225650  
C     4.4424860   -1.8264270    1.5730530  
C     3.1475300   -2.2497760    0.9435630  
N     3.3132650   -3.3194170    0.2261480  
C     1.9023400   -1.5014670    1.1480480  
C     2.0178340   -0.3852690    1.9381410  
O     1.0002220    0.4361590    2.2345780  
C     3.3095850    0.0553610    2.5658560  
O     3.2788720    1.0796160    3.2481320  
C     4.5318380   -0.7291120    2.3469170  
H     6.4568160   -2.8571380    1.3705420  
H     1.3958580    1.1502060    2.7880400  
H     5.4449570   -0.3765230    2.8162900  
H     5.0492250   -4.5470320   -0.1875680  
