62


C     4.8332200   -0.2600030   -0.0713540  
C     5.7014930   -0.5407330   -1.1001480  
C     7.0356480   -0.2635070   -0.6477970  
C     6.9338380    0.1927670    0.6882850  
N     5.5793300    0.2544960    1.0131270  
C     8.0490010    0.5280170    1.4602670  
C     9.2977780    0.4110260    0.8649600  
O    10.4199880    0.7217650    1.5751920  
C     9.4182950   -0.0232120   -0.4811110  
O    10.7221750   -0.0765980   -0.9339990  
C     8.3103210   -0.3561360   -1.2398220  
H     5.4087110   -0.8526310   -2.0929790  
H     5.2604800    0.1178690    1.9650100  
H     7.9754740    0.8745040    2.4860900  
H    11.1816750    0.5845490    0.9858380  
H    10.7334760   -0.3744510   -1.8555660  
H     8.4274830   -0.6905760   -2.2686590  
C     1.8629220   -3.1425300   -1.8110590  
C     3.0187550   -2.5110740   -1.4330680  
C     2.6415430   -1.3627990   -0.6569890  
C     1.2260100   -1.3622650   -0.5856960  
N     0.7784730   -2.4635000   -1.2874190  
C     0.4725600   -0.3863780    0.1006610  
C     1.2153870    0.6177910    0.7240480  
O     0.5732170    1.6068730    1.4124890  
C     2.6298260    0.6380680    0.6702750  
O     3.1854230    1.7108170    1.3428290  
C     3.3742880   -0.3343460   -0.0045210  
H     4.0231420   -2.8352350   -1.6616760  
H    -0.1888260   -2.6354800   -1.5144400  
H     1.2602090    2.2270160    1.7165720  
H     4.1259280    1.7856870    1.0961630  
H     1.7172830   -4.0343190   -2.4041490  
C    -1.7555540   -1.4999380    0.5597730  
C    -0.9981400   -0.4370320    0.1613420  
C    -1.9437020    0.6114930   -0.2256580  
C    -3.3003380    0.0614890   -0.0046780  
N    -3.1153150   -1.2191670    0.4730220  
C    -4.4719250    0.7153130   -0.2711040  
C    -4.3568460    2.0947470   -0.7884580  
O    -5.3233620    2.8174890   -0.9569310  
C    -2.9247470    2.6720580   -1.0779490  
O    -2.8302160    3.7865360   -1.5662860  
C    -1.7584090    1.8532750   -0.7409210  
H    -0.7739460    2.2709050   -0.9178510  
H    -1.4263990   -2.4606540    0.9343910  
H    -3.8631520   -1.8488870    0.7179570  
C    -6.5684640   -0.9885130    3.2799680  
C    -5.6579740   -0.4214390    2.4459980  
C    -6.2600130   -0.3570850    1.1272950  
C    -7.6170720   -0.9370790    1.2696000  
N    -7.7291500   -1.3240070    2.5930840  
C    -8.5383990   -1.0218370    0.2752990  
C    -8.1735010   -0.5196150   -1.0415580  
O    -8.9385870   -0.5131980   -1.9936050  
C    -6.7114890    0.0180020   -1.2480200  
O    -6.3376930    0.2651330   -2.3791900  
C    -5.8070470    0.1328220   -0.0694990  
H    -4.6798920   -0.0567270    2.7215410  
H    -9.5365740   -1.4244810    0.4172710  
H    -6.4938620   -1.1906220    4.3404080  
H    -8.5757200   -1.6698240    3.0172150  
