60


C     5.6928350   -2.9951050   -2.9677570  
C     6.9084170   -3.0557120   -2.3391810  
C     6.7901450   -2.3053630   -1.1212160  
C     5.4604670   -1.8141510   -1.0617950  
N     4.8121100   -2.2615550   -2.1937380  
C     4.9748850   -0.9966260   -0.0127270  
C     5.8993080   -0.6924430    0.9932520  
O     5.5210840    0.0693520    2.0643260  
C     7.2285640   -1.1818750    0.9496850  
O     7.9939900   -0.7869310    2.0315420  
C     7.6828900   -1.9809550   -0.0818710  
H     7.7867780   -3.5731590   -2.6993660  
H     3.8845630   -1.9775510   -2.4696050  
H     6.2896710    0.1213280    2.6602270  
H     8.8632640   -1.2117630    1.9889180  
H     8.7096910   -2.3405210   -0.0910860  
H     5.3692210   -3.4239900   -3.9055520  
C     2.4688760   -1.2671730   -0.2964980  
C     3.5802530   -0.5422200    0.0101680  
C     3.0548110    0.8113240    0.2916460  
C     1.5811540    0.7065250    0.0669830  
N     1.2610700   -0.5232120   -0.2448060  
C     0.6772880    1.8389360    0.2091770  
C     1.2581880    2.9803010    0.7058360  
O     0.5711320    4.0767550    1.0324420  
C     2.7333460    3.1114590    0.9432450  
O     3.1498470    4.1901530    1.3627000  
C     3.6217590    1.9617030    0.6918640  
H     1.2424970    4.7409330    1.3074900  
H     4.6768960    2.0818020    0.9038800  
H     2.4155130   -2.3228160   -0.5345800  
C    -2.5788750   -1.1489890    0.6031490  
C    -3.6531330   -0.4123710    0.1611330  
C    -3.1048950    0.8814360   -0.2583720  
C    -1.6475700    0.8155490    0.0250500  
N    -1.4078110   -0.4393540    0.5585160  
C    -0.7470370    1.8298110   -0.1745380  
C    -1.2811650    2.9965750   -0.9288300  
O    -0.5661220    3.8141420   -1.4780890  
C    -2.8314030    3.1532520   -1.0752950  
O    -3.2745880    4.2187520   -1.4735460  
C    -3.6792690    2.0105120   -0.7474610  
H    -4.7423650    2.1045050   -0.9288570  
H    -2.5770540   -2.1794160    0.9338920  
H    -0.4675280   -0.8412200    0.4618120  
C    -6.0481560   -2.9003680    2.9799800  
C    -5.0554330   -2.1284470    2.4712910  
C    -5.5411690   -1.6902770    1.1655310  
C    -6.8882620   -2.3060120    1.0649220  
N    -7.1786830   -3.0187510    2.1205590  
C    -7.7396610   -2.0985760   -0.0797480  
C    -7.2765670   -1.3056500   -1.0712130  
O    -7.9687900   -1.0092060   -2.1868320  
C    -5.9145360   -0.6744750   -1.0123790  
O    -5.5757260    0.0074330   -1.9774750  
C    -5.0217360   -0.9113100    0.1702840  
H    -4.1218050   -1.8554620    2.9419870  
H    -8.7193860   -2.5616060   -0.1193050  
H    -7.3753810   -0.4367020   -2.7193360  
H    -6.0739100   -3.4035630    3.9393090  
