64


C     0.5316730    0.1193680   -1.2198120  
C     0.2807950    1.2487740   -0.4652970  
C     1.4787070    1.4797250    0.3207010  
C     2.4047230    0.4611130   -0.0175720  
N     1.7991750   -0.3464710   -0.9591420  
C     3.6773250    0.3239530    0.5750870  
C     4.0042890    1.2755920    1.5414850  
O     5.2241650    1.2452670    2.1396810  
C     3.0830140    2.2947880    1.9073950  
O     3.5627980    3.1448610    2.8846690  
C     1.8371270    2.4104280    1.3211390  
H     2.2201790   -1.1733760   -1.3557890  
H     5.2309360    1.9449570    2.8158640  
H     2.8591230    3.7491270    3.1641940  
H     1.1489980    3.1901240    1.6382060  
H    -0.0977120   -0.3655370   -1.9523040  
C    -4.0942580    0.1300220   -0.2175310  
C    -2.6923470    0.1227150   -0.2414150  
C    -2.2497540    1.4524670   -0.4123790  
C    -3.4196210    2.2724410   -0.4754960  
N    -4.5062540    1.4513630   -0.3629020  
C    -3.3606040    3.6640830   -0.6078920  
C    -2.0984880    4.2303830   -0.6790840  
O    -1.9672860    5.5745420   -0.8214220  
C    -0.9177450    3.4297080   -0.6222860  
O     0.2412120    4.1680870   -0.7419200  
C    -0.9544740    2.0489720   -0.4903300  
H    -2.0666920   -0.7415050   -0.0863140  
H    -5.4795950    1.7171410   -0.2965560  
H    -4.2422110    4.2937500   -0.6550840  
H    -1.0140350    5.7654830   -0.8808860  
H     1.0026100    3.5628090   -0.7563900  
C     5.5293370   -0.5921550   -3.3259330  
C     6.1977010   -1.7309890   -2.9602410  
C     5.9236500   -1.9547630   -1.5679470  
C     5.0684270   -0.9069380   -1.1404170  
N     4.8310700   -0.0995020   -2.2368440  
C     4.5952660   -0.7747010    0.1827910  
C     5.0143740   -1.7541850    1.0839780  
O     4.5792000   -1.7226780    2.3739400  
C     5.8711600   -2.8096130    0.6719430  
O     6.1821600   -3.6950760    1.6884020  
C     6.3237170   -2.9251220   -0.6281830  
H     6.8133800   -2.3416310   -3.6064370  
H     4.3446520    0.7829100   -2.2009460  
H     4.9990950   -2.4694550    2.8350190  
H     6.7911840   -4.3695680    1.3537670  
H     6.9777270   -3.7468340   -0.9135760  
H     5.4801290   -0.0878730   -4.2807710  
C    -3.8375790   -4.3624740   -0.3421070  
C    -3.5025940   -3.0524340   -0.4937240  
C    -4.6967150   -2.3015520   -0.1321320  
C    -5.6747580   -3.3494090    0.2053770  
N    -5.1708760   -4.5556820    0.0945650  
C    -7.0281670   -3.0461810    0.5979510  
C    -7.4061020   -1.7490230    0.6228430  
O    -8.6531610   -1.3317670    0.9349960  
C    -6.4566900   -0.6549660    0.2735850  
O    -6.9202230    0.4932410    0.2696090  
C    -5.0152250   -0.9622680   -0.0482110  
H    -2.5647810   -2.6584670   -0.8551270  
H    -7.7144790   -3.8503860    0.8399210  
H    -8.6310030   -0.3560880    0.8475150  
H    -3.2172270   -5.2319100   -0.5253910  
