60


C    -2.6157800   -2.5826020    2.5588970  
C    -2.9379590   -1.3500420    2.0501950  
C    -3.8664600   -1.5599390    0.9710350  
C    -4.0778770   -2.9620700    0.8870610  
N    -3.2913340   -3.5573360    1.8530230  
C    -4.9733080   -3.5477740   -0.0137310  
C    -5.6910990   -2.6885080   -0.8295150  
O    -6.5998450   -3.1808950   -1.7133590  
C    -5.5046710   -1.2798280   -0.7722760  
O    -6.2820990   -0.5847960   -1.6671410  
C    -4.5734530   -0.6889990    0.0873440  
H    -2.5721630   -0.4043450    2.4230640  
H    -3.2719050   -4.5444170    2.0555730  
H    -5.1408120   -4.6184950   -0.0707500  
H    -7.0019840   -2.3970490   -2.1358380  
H    -6.6219490    0.2113700   -1.1926460  
H    -1.9589300   -2.8486340    3.3749740  
C    -0.7623750    1.4953390   -0.1491410  
C    -1.2342900    2.7800940    0.0107760  
C    -2.6642570    2.7163150    0.1154780  
C    -3.0227150    1.2807470    0.0295810  
N    -1.8397340    0.6047860   -0.1340580  
C    -4.2997330    0.7675280    0.0885360  
C    -5.3633300    1.7727600    0.1174840  
O    -6.5567750    1.5105450   -0.0423960  
C    -5.0081850    3.2908530    0.3323100  
O    -5.9227950    4.0790570    0.5145320  
C    -3.6079240    3.6868940    0.2765240  
H    -0.6380460    3.6751730    0.0892710  
H    -3.3663000    4.7396620    0.3812780  
H    -1.7257200   -0.4000490   -0.0919810  
C     3.0935940    3.4120160   -1.3817670  
C     1.7684550    3.2183130   -1.1600580  
C     1.6577260    1.8549690   -0.6721510  
C     3.0758480    1.3653160   -0.6621430  
N     3.9036390    2.2803400   -1.0733170  
C     3.4319940    0.0171320   -0.2668710  
C     2.3975560   -0.8213030    0.0066570  
O     2.5573270   -2.1092650    0.3441100  
C     0.9667790   -0.3766150   -0.0300000  
O     0.1179330   -1.2472910    0.1734130  
C     0.6159020    1.0520000   -0.2943900  
H     0.9625600    3.9051820   -1.3669660  
H     1.6515180   -2.4716030    0.4536050  
H     3.5764800    4.3016520   -1.7685020  
C     6.7285110    1.3921430    2.2758360  
C     7.7759210    0.6717740    1.8149630  
C     7.2212540   -0.1699920    0.7589340  
C     5.7729340    0.2132150    0.7133960  
N     5.4892670    1.1104550    1.6083730  
C     4.8451240   -0.4086040   -0.2166360  
C     5.3463980   -1.3903810   -1.0134570  
O     4.6218340   -2.0591570   -1.9201890  
C     6.7963660   -1.8001820   -0.9756150  
O     7.1502080   -2.6895080   -1.7472390  
C     7.7185640   -1.1330870   -0.0403750  
H     8.8036380    0.6903880    2.1497500  
H     5.2502910   -2.6874310   -2.3418590  
H     8.7526280   -1.4640800   -0.0409610  
H     6.7244470    2.1305420    3.0687010  
