62


C     6.7596070    1.3098720    3.1134580  
C     5.6700400    1.0065990    2.3371790  
C     6.1588450    0.3986210    1.1323140  
C     7.5762420    0.3489250    1.2505350  
N     7.9109380    0.9247590    2.4582930  
C     8.4042020   -0.2260520    0.2853820  
C     7.7856970   -0.8000580   -0.8170710  
O     8.5350730   -1.3883260   -1.7852990  
C     6.3751790   -0.7947980   -0.9576680  
O     5.9346410   -1.3879810   -2.1209300  
C     5.5371740   -0.1682430   -0.0239330  
H     4.6413760    1.2052320    2.5982230  
H     8.8468490    1.0036070    2.8241380  
H     9.4849820   -0.2606280    0.3775240  
H     7.8974520   -1.7437100   -2.4340650  
H     5.1909440   -1.9794300   -1.8768770  
H     6.8095840    1.7770570    4.0867410  
C     2.5340870    3.1140100    0.3616570  
C     3.7070830    2.4512230    0.2469240  
C     3.3439430    1.0617320   -0.0278130  
C     1.8598470    1.0830700   -0.0668450  
N     1.3928280    2.2727470    0.1807650  
C     1.0602520   -0.1196590   -0.3170430  
C     1.7951510   -1.2519570   -0.5086890  
O     1.2245000   -2.4684920   -0.7660310  
C     3.2715530   -1.2878080   -0.5408590  
O     3.7828200   -2.3786320   -0.8555890  
C     4.0766710   -0.0758500   -0.2045690  
H     4.7095590    2.8415440    0.3364810  
H     1.9835630   -3.0746180   -0.9264200  
H     2.3711200    4.1661440    0.5590120  
C    -1.9721710    2.4391960   -2.4509080  
C    -0.8092180    1.8796820   -2.0000540  
C    -1.1648950    0.8667250   -1.0481230  
C    -2.5813890    0.8659980   -0.9622770  
N    -3.0448560    1.8484950   -1.8066190  
C    -3.3244540   -0.0446870   -0.1699940  
C    -2.5571300   -1.0292560    0.4707330  
O    -3.1550640   -1.9974470    1.2261250  
C    -1.1456210   -1.0573330    0.3935310  
O    -0.5796110   -2.0621950    1.1495000  
C    -0.4133430   -0.0968050   -0.3176700  
H     0.1875100    2.1659720   -2.2962980  
H    -4.0116330    1.9452670   -2.0776240  
H    -2.4206670   -2.5487740    1.5656720  
H     0.0845420   -2.5264170    0.5939590  
H    -2.1343410    3.2280310   -3.1714520  
C    -4.7721980    0.0348290   -0.0484830  
C    -5.6104380    1.1119900   -0.2496960  
C    -6.9586910    0.6856770    0.0075820  
C    -6.8687550   -0.7483680    0.3811410  
N    -5.5344330   -1.0805290    0.3084450  
C    -7.9343540   -1.5202770    0.7160600  
C    -9.2615680   -0.9135110    0.7088450  
O   -10.2775290   -1.5297530    0.9960070  
C    -9.3815700    0.6042010    0.3103190  
O   -10.4883340    1.1245090    0.2957320  
C    -8.1595310    1.3299370   -0.0281100  
H    -5.3065260    2.1271550   -0.4564740  
H    -7.8493690   -2.5677420    0.9885950  
H    -8.2546900    2.3775890   -0.2978330  
H    -5.1150550   -1.9337950    0.6492600  
