62


C     4.1850440   -0.4283670   -0.0830320  
C     5.2564880   -1.2721100    0.1994400  
C     6.4572940   -0.5304760    0.0052090  
C     6.0722670    0.7789640   -0.3974850  
N     4.7001770    0.8112360   -0.4360390  
C     7.0043260    1.7853260   -0.6830090  
C     8.3462750    1.4641390   -0.5633070  
O     9.2964900    2.4028240   -0.8300360  
C     8.7507090    0.1574920   -0.1630520  
O    10.1210760    0.0024260   -0.0920560  
C     7.8322590   -0.8323140    0.1197210  
H     5.1907840   -2.3276220    0.4233230  
H     4.1249460    1.5629370   -0.7867670  
H     6.7162210    2.7854190   -0.9892580  
H    10.1642720    1.9853690   -0.6911370  
H    10.3326290   -0.9047560    0.1733410  
H     8.1648230   -1.8229060    0.4235880  
C     1.9082890   -3.3671650    2.2541990  
C     0.6680760   -3.1179400    1.7218210  
C     0.8268330   -2.0722480    0.7554610  
C     2.2007930   -1.7304980    0.7407340  
N     2.8367940   -2.5499890    1.6493890  
C     2.7554350   -0.6929570   -0.0478230  
C     1.8196140    0.0488870   -0.7869740  
O     2.2431410    1.0926550   -1.5691370  
C     0.4463530   -0.2646570   -0.7936470  
O    -0.2852130    0.5447520   -1.6338750  
C    -0.0905380   -1.3316500   -0.0490020  
H    -0.2505300   -3.6038800    2.0135340  
H     3.7857160   -2.4073440    1.9609270  
H     1.4611740    1.4284730   -2.0435970  
H    -1.1751890    0.1661160   -1.7639600  
H     2.2082030   -4.0688250    3.0194640  
C    -1.4935000   -1.6690630   -0.1134690  
C    -2.1284940   -2.8789520    0.0077290  
C    -3.5386120   -2.6909370   -0.1757440  
C    -3.7228200   -1.2434350   -0.3973350  
N    -2.4565770   -0.6571000   -0.4326260  
C    -4.9400610   -0.6458110   -0.5375170  
C    -6.1341550   -1.5147380   -0.5866240  
O    -7.2503840   -1.0685620   -0.7950530  
C    -5.9383820   -3.0612300   -0.4016280  
O    -6.9347640   -3.7696630   -0.4386650  
C    -4.5905540   -3.5622240   -0.1972750  
H    -1.6355970   -3.8317000    0.1326790  
H    -4.4647950   -4.6302490   -0.0519980  
H    -2.3448030    0.2637170   -0.0083230  
C    -5.8808110    1.3635040   -1.6822720  
C    -5.8233770    2.7123840   -1.5912200  
C    -4.9944960    3.0384340   -0.4512160  
C    -4.5703470    1.7403020    0.1332020  
N    -5.1084840    0.7482180   -0.6766640  
C    -3.8296850    1.6248640    1.2709480  
C    -3.3864960    2.8456860    1.9439700  
O    -2.7351210    2.8331970    2.9765720  
C    -3.7712840    4.2260740    1.3016850  
O    -3.3670100    5.2545900    1.8194160  
C    -4.6162410    4.2187260    0.1035140  
H    -6.3161430    3.4183110   -2.2438550  
H    -3.6179950    0.6770000    1.7555510  
H    -4.9226750    5.1787920   -0.3008370  
H    -6.4113570    0.7387840   -2.3844370  
