64


C    -4.1686850   -0.6340720    1.8356160  
C    -4.5854200   -0.0253900    0.6672990  
C    -5.5858840   -0.9002460    0.0932760  
C    -5.7210170   -2.0113470    0.9639680  
N    -4.8523770   -1.8150120    2.0190420  
C    -6.5937180   -3.0771910    0.7091850  
C    -7.3454180   -3.0220350   -0.4529570  
O    -8.2153880   -4.0315560   -0.7536210  
C    -7.2204670   -1.9199930   -1.3395280  
O    -8.0352210   -2.0068050   -2.4557450  
C    -6.3580790   -0.8714920   -1.0847910  
H    -4.7092810   -2.4532270    2.7859180  
H    -6.6954760   -3.9270980    1.3763700  
H    -8.6383830   -3.7997940   -1.5982520  
H    -7.9105530   -1.2167100   -3.0017140  
H    -6.2942480   -0.0307390   -1.7691060  
H    -3.4541010   -0.2954650    2.5728440  
C    -0.4060550    1.3046670    0.3476930  
C    -0.6601850    2.5649370   -0.2061530  
C    -2.0627990    2.6958200   -0.3591440  
C    -2.6490360    1.4870500    0.1196740  
N    -1.6283250    0.6762930    0.5351860  
C    -4.0406210    1.2344370    0.1332180  
C    -4.8313400    2.2681120   -0.3714920  
O    -6.1899550    2.1461490   -0.3880680  
C    -4.2616430    3.4803370   -0.8646820  
O    -5.2081730    4.3785910   -1.3235480  
C    -2.9054080    3.7139570   -0.8611950  
H     0.0765420    3.3273020   -0.4096630  
H    -1.7083960   -0.2396970    0.9562290  
H    -6.5468740    2.9908960   -0.7150410  
H    -4.7794750    5.2230630   -1.5265010  
H    -2.4984440    4.6483060   -1.2414950  
C     3.8596130    2.0654750   -0.7223570  
C     2.5037120    2.0449190   -0.6984880  
C     2.0864920    1.0868440    0.3049870  
C     3.3177700    0.5178940    0.8696520  
N     4.3661990    1.1754740    0.2328210  
C     3.4010380   -0.4458820    1.8289950  
C     2.1612480   -0.9931110    2.3256090  
O     2.0773420   -1.8467810    3.1983300  
C     0.8162850   -0.4690410    1.6922800  
O    -0.2092890   -1.0572110    2.0083810  
C     0.8359440    0.6843690    0.7449240  
H     1.8566850    2.6080170   -1.3517420  
H     4.3425040   -0.8077510    2.2259980  
H     4.5505300    2.6243980   -1.3377500  
C     6.5087280    1.5189420    1.3685400  
C     7.7668810    0.9985720    1.2708780  
C     7.7514600    0.0133500    0.2207990  
C     6.4360630   -0.0323060   -0.2996160  
N     5.6921590    0.9018300    0.4186870  
C     6.0492280   -0.8810970   -1.3402260  
C     7.0249400   -1.7114220   -1.8718770  
O     6.7102530   -2.5626950   -2.8886810  
C     8.3530800   -1.6847830   -1.3675120  
O     9.2055620   -2.5670730   -2.0020800  
C     8.7235930   -0.8400310   -0.3374320  
H     8.6154320    1.2811130    1.8788840  
H     5.0376080   -0.9153960   -1.7291080  
H     7.5143580   -3.0660070   -3.1042620  
H    10.0767610   -2.5379920   -1.5798730  
H     9.7471220   -0.8370930    0.0320730  
H     6.0912590    2.2713770    2.0214240  
