62


C     2.0758610   -0.8764880   -1.3731440  
C     1.0660580    0.0351670   -1.2183070  
C     1.4836370    0.9715280   -0.2122640  
C     2.7805710    0.5638930    0.2046850  
N     3.1259010   -0.5751360   -0.5155160  
C     3.5268890    1.2570780    1.1663060  
C     2.9614870    2.4163500    1.6810450  
O     3.6365000    3.1502470    2.6034790  
C     1.6791850    2.8611690    1.2676210  
O     1.2642440    4.0172600    1.8949310  
C     0.8982270    2.1400540    0.3575150  
H     0.1366600    0.0421160   -1.7679080  
H     4.4965620    0.9206200    1.5171890  
H     3.0649880    3.9182890    2.7974600  
H     0.9081610    4.6099190    1.1985490  
H     2.1620670   -1.7214100   -2.0409310  
C    -3.0601580    0.0521560    0.1575330  
C    -1.7244620    0.3282050    0.3891050  
C    -1.5555160    1.6831650   -0.0062910  
C    -2.9229990    2.1087460   -0.4702510  
N    -3.7930930    1.1390830   -0.3731710  
C    -3.1938540    3.4323910   -0.9451780  
C    -2.1621930    4.3064290   -0.9085130  
O    -2.2511910    5.5826180   -1.2819460  
C    -0.7795280    3.9197630   -0.3950990  
O     0.0277790    4.8668660   -0.3456680  
C    -0.4780700    2.5496100   -0.0057840  
H    -0.9580380   -0.3175350    0.7852140  
H    -4.1831930    3.7090810   -1.2901770  
H    -1.3588540    5.9655780   -1.1122450  
C    -3.0872470   -2.2708090    0.9135980  
C    -3.9483270   -3.3016560    1.0520700  
C    -5.2497540   -2.8571980    0.6017930  
C    -5.0872180   -1.4470780    0.1755300  
N    -3.7220600   -1.1281610    0.3890280  
C    -6.0998900   -0.6919800   -0.3092900  
C    -7.4330240   -1.3028950   -0.4206410  
O    -8.3943600   -0.6870050   -0.8490380  
C    -7.6195940   -2.7926220    0.0260590  
O    -8.7200410   -3.3117830   -0.0609650  
C    -6.4418170   -3.5011610    0.5351220  
H    -3.7076400   -4.2844860    1.4319790  
H    -5.9684440    0.3359880   -0.6162790  
H    -6.5662960   -4.5338360    0.8463540  
H    -2.0335350   -2.2263650    1.1438080  
C     4.0909170   -4.8016330    0.4538460  
C     3.4266630   -3.6198190    0.2504370  
C     4.4119620   -2.6451150   -0.1236010  
C     5.6710380   -3.3007850   -0.1276320  
N     5.4417770   -4.6149620    0.2262750  
C     6.8717160   -2.6453470   -0.4270300  
C     6.8002700   -1.2971780   -0.7390450  
O     7.9358080   -0.6059930   -1.0404150  
C     5.5539400   -0.6161400   -0.7680390  
O     5.6439100    0.7041280   -1.1473840  
C     4.3661420   -1.2737380   -0.4611080  
H     2.3635880   -3.4592070    0.3572820  
H     6.1521280   -5.3240120    0.3172930  
H     7.8354980   -3.1436390   -0.4157900  
H     7.6720390    0.3173360   -1.2013630  
H     4.8363770    1.1821060   -0.8931430  
H     3.7135640   -5.7713720    0.7461510  
