62


C     5.9671220   -1.1851930   -1.9135730  
C     7.3128240   -0.9963670   -1.9235190  
C     7.6578800   -0.2681300   -0.7295790  
C     6.4576330   -0.0104790   -0.0262220  
N     5.4051590   -0.5795290   -0.7748910  
C     6.4528800    0.6135860    1.2245520  
C     7.6719590    1.0218010    1.7473330  
O     7.7069840    1.6466520    2.9581220  
C     8.8787180    0.7966350    1.0388010  
O    10.0043780    1.2599500    1.6849820  
C     8.8829140    0.1542810   -0.1872840  
H     7.9897210   -1.3181390   -2.7033370  
H     5.5504980    0.8165710    1.7848310  
H     8.6360180    1.8628070    3.1484530  
H    10.7870890    1.0948260    1.1385830  
H     9.8180760   -0.0334700   -0.7105040  
H     5.3149550   -1.6421080   -2.6419960  
C     2.4170460   -3.8160770   -1.0100000  
C     3.6075070   -3.1670320   -1.0415640  
C     3.3040380   -1.7914160   -0.6625120  
C     1.8446390   -1.7964300   -0.4370630  
N     1.3299530   -2.9790520   -0.6392080  
C     1.1172870   -0.6022610   -0.0177240  
C     1.8566030    0.5198310    0.2156490  
O     1.3371180    1.6797310    0.6655190  
C     3.3226940    0.5686440   -0.0239150  
O     3.8862700    1.6487200    0.1440680  
C     4.0527880   -0.6692240   -0.4664010  
H     4.5821380   -3.5737110   -1.2688070  
H     2.0902180    2.3099130    0.6865600  
H     2.2194420   -4.8605760   -1.2167830  
C    -0.9528410   -1.6640100    0.8191250  
C    -2.2953710   -1.4037940    0.8105360  
C    -2.5038230   -0.1886990    0.0764020  
C    -1.2250250    0.2604390   -0.3235660  
N    -0.2768140   -0.6562490    0.1439640  
C    -1.0268410    1.4032030   -1.1072630  
C    -2.1414920    2.1443090   -1.4546590  
O    -2.0010770    3.2748930   -2.2005010  
C    -3.4443940    1.7536760   -1.0536390  
O    -4.4075250    2.5985300   -1.4768980  
C    -3.6680560    0.5645580   -0.2973640  
H    -3.0301720   -2.0189730    1.3032700  
H    -0.0478620    1.7322830   -1.4286780  
H    -2.8989930    3.6341880   -2.3241770  
H    -5.2881620    2.2498350   -1.1268860  
H    -0.4036400   -2.4861230    1.2477070  
C    -5.0078270    0.1585260    0.0327570  
C    -5.5096730   -0.9817970    0.6336610  
C    -6.9236880   -0.8283360    0.6981830  
C    -7.1925020    0.5112480    0.0742790  
N    -6.0801320    1.0674020   -0.3096250  
C    -8.5166570    1.0445320   -0.0533170  
C    -9.5313960    0.2768040    0.4150210  
O   -10.8173110    0.6213900    0.3736030  
C    -9.3008300   -1.0907380    1.0514260  
O   -10.3194710   -1.6789070    1.4328180  
C    -7.9519610   -1.5976000    1.1659930  
H    -4.9663920   -1.8500040    0.9653980  
H    -8.6844420    2.0157010   -0.5052370  
H   -11.2893110   -0.1429910    0.7870960  
H    -7.8141870   -2.5726460    1.6218060  
