62


C    -5.0766610   -1.1080240   -2.2736040  
C    -6.3668270   -0.8875070   -2.6683800  
C    -7.0578310   -0.2982110   -1.5561710  
C    -6.1179180   -0.1782750   -0.4996460  
N    -4.9016670   -0.6852160   -0.9562540  
C    -6.4447880    0.3877020    0.7429570  
C    -7.7507220    0.8214060    0.9241670  
O    -8.1198710    1.3783340    2.1125720  
C    -8.7067350    0.6967930   -0.1181700  
O    -9.9597880    1.1703770    0.2170000  
C    -8.3752880    0.1524950   -1.3457460  
H    -6.7815820   -1.1248230   -3.6385170  
H    -5.7199080    0.5257270    1.5380480  
H    -9.0575780    1.6262940    2.0372420  
H   -10.5552570    1.0817110   -0.5418060  
H    -9.1222050    0.0777470   -2.1336760  
H    -4.2468490   -1.5570400   -2.8000950  
C    -0.8779270    0.9807160   -1.6605900  
C    -2.1942490    0.6561000   -1.7559480  
C    -2.5030070   -0.2146200   -0.6515000  
C    -1.3147010   -0.4096020    0.0892050  
N    -0.3004680    0.3320270   -0.5544980  
C    -1.2951680   -1.1173850    1.2935280  
C    -2.4871670   -1.6821810    1.7254470  
O    -2.5102950   -2.3954600    2.8838000  
C    -3.6808670   -1.5475910    0.9739740  
O    -4.7618790   -2.2029810    1.5041140  
C    -3.7003150   -0.8129880   -0.2108730  
H    -2.8738730    0.9812420   -2.5306300  
H    -0.4021520   -1.2624440    1.8854890  
H    -3.4262410   -2.6948390    3.0223170  
H    -5.5803810   -1.9107950    1.0667310  
H    -0.2513450    1.5706320   -2.3116650  
C     2.3450550    3.8592330   -0.3586030  
C     1.2301630    3.1004760   -0.5077120  
C     1.6564200    1.7327230   -0.2359700  
C     3.0950020    1.8605230    0.0621260  
N     3.4945050    3.1022410   -0.0073810  
C     3.9238470    0.7108910    0.4084760  
C     3.2948400   -0.4960600    0.5143650  
O     3.9160570   -1.6305260    0.8947470  
C     1.8548580   -0.6682110    0.2007840  
O     1.3973320   -1.8090980    0.2525060  
C     1.0211680    0.5270820   -0.1730250  
H     0.2297210    3.4292810   -0.7483840  
H     3.2358520   -2.3358210    0.8222820  
H     2.4422540    4.9326550   -0.4626570  
C     5.8608320    1.9489430    1.3501780  
C     7.2110960    1.8617620    1.3908970  
C     7.6013380    0.7012800    0.6241880  
C     6.3436290    0.0947160    0.1230970  
N     5.2986530    0.8857420    0.6204690  
C     6.3021300   -0.9750750   -0.7074150  
C     7.5653610   -1.6059270   -1.0964500  
O     7.6134880   -2.5739240   -1.8391830  
C     8.9035600   -1.0075790   -0.5356770  
O     9.9626930   -1.5348760   -0.8385170  
C     8.8171320    0.1764970    0.3194680  
H     7.8772500    2.5436710    1.8995290  
H     5.3868390   -1.4050410   -1.0908690  
H     9.7461350    0.6137970    0.6725520  
H     5.2026980    2.6891010    1.7771660  
