62


C     3.8578000   -2.5318220   -0.4994250  
C     4.2036490   -1.2050720   -0.2495990  
C     5.6541710   -1.1783010   -0.1584540  
C     6.1076140   -2.5024610   -0.3574620  
N     4.9844420   -3.2957230   -0.5609840  
C     7.4589550   -2.8619160   -0.3370380  
C     8.3786480   -1.8488900   -0.1093330  
O     9.7108650   -2.1342150   -0.0785080  
C     7.9424070   -0.5125590    0.0919290  
O     8.9722730    0.3812290    0.3053750  
C     6.6036280   -0.1663240    0.0711450  
H     5.0005810   -4.2882390   -0.7426200  
H     7.8043140   -3.8789840   -0.4909810  
H    10.1803400   -1.2975630    0.0842170  
H     8.6065390    1.2722140    0.4116770  
H     6.2731200    0.8562900    0.2227950  
H     2.8813200   -2.9725040   -0.6413560  
C     3.2850060   -0.1142350   -0.1196710  
C     1.9038730   -0.1154490   -0.1906140  
C     1.4940730    1.2436010   -0.0225730  
C     2.7830280    1.9935380    0.1538490  
N     3.8160780    1.2012430    0.1038470  
C     2.8150820    3.4187520    0.3377950  
C     1.6268520    4.0639250    0.3496160  
O     1.4862430    5.3836510    0.5107880  
C     0.2981860    3.3351270    0.2138710  
O    -0.7052680    4.0368030    0.3448830  
C     0.2766010    1.8805500   -0.0086290  
H     1.2577280   -0.9573070   -0.3950580  
H     3.7600120    3.9374930    0.4542720  
H     0.5099720    5.5288730    0.5093740  
C    -1.4267710   -1.4955350    2.2720030  
C    -2.6498450   -1.5494630    1.6514880  
C    -2.6693090   -0.5121610    0.6517800  
C    -1.4060540    0.1309770    0.7147630  
N    -0.6842180   -0.4709140    1.7251590  
C    -1.0246310    1.1966980   -0.1283860  
C    -1.9649510    1.5559900   -1.0960760  
O    -1.6671720    2.5119970   -2.0100420  
C    -3.2356190    0.9258270   -1.1874990  
O    -4.0250120    1.4378890   -2.1869940  
C    -3.6394070   -0.0770170   -0.3015060  
H    -3.4275240   -2.2704530    1.8586580  
H     0.2901530   -0.2854180    1.9124020  
H    -2.4542650    2.5767940   -2.5860930  
H    -4.4848240    0.6744670   -2.6132660  
H    -1.0181570   -2.1109480    3.0610710  
C    -6.4749680   -0.6855660    2.9846930  
C    -7.4913860   -1.3013470    2.3283840  
C    -7.1073720   -1.3907310    0.9355120  
C    -5.7594530   -0.7748800    0.8371790  
N    -5.4473590   -0.3535200    2.1081450  
C    -5.0069970   -0.6485230   -0.3101880  
C    -5.6816940   -1.0815930   -1.5336950  
O    -5.2452600   -0.8725840   -2.6674140  
C    -7.0614210   -1.8364300   -1.4464720  
O    -7.5210930   -2.3137670   -2.4712300  
C    -7.7330790   -1.9084650   -0.1548460  
H    -8.4209460   -1.6466180    2.7565160  
H    -8.7026810   -2.3937340   -0.1089240  
H    -6.3867100   -0.4308840    4.0325650  
H    -4.5358890   -0.0065520    2.3714840  
