60


C    -3.2696150   -0.9782580    1.4571620  
C    -4.0546230   -0.1385460    0.6601160  
C    -5.2191690   -0.9278880    0.2792710  
C    -5.0510370   -2.2098000    0.8560700  
N    -3.8612110   -2.1934850    1.5740240  
C    -5.9476270   -3.2656770    0.6755650  
C    -7.0576190   -3.0259320   -0.1206540  
O    -7.9696600   -4.0112270   -0.3288530  
C    -7.2444120   -1.7529080   -0.7207200  
O    -8.3888340   -1.6645790   -1.4826600  
C    -6.3491530   -0.7155910   -0.5347230  
H    -3.5199490   -2.9508850    2.1478930  
H    -5.8045650   -4.2439540    1.1222100  
H    -8.6653350   -3.6494200   -0.9054960  
H    -8.4814270   -0.7660510   -1.8333380  
H    -6.5356380    0.2526770   -0.9842920  
H    -2.3631790   -0.7438520    1.9953660  
C    -0.1196220    1.8962430    0.0620240  
C    -1.0843530    0.9222480    0.1668400  
C    -2.3405070    1.6256610    0.2367610  
C    -1.9644120    3.0507520    0.1377040  
N    -0.6688660    3.2100490    0.0476560  
C    -2.9459150    4.1066190    0.1282870  
C    -4.2475340    3.7488550    0.1782360  
O    -5.2686650    4.6220620    0.1388490  
C    -4.6775040    2.3096850    0.2646460  
O    -5.8898850    2.1020410    0.2768230  
C    -3.6536750    1.2174380    0.3617380  
H    -0.9380680   -0.1477980    0.1412110  
H    -2.6344050    5.1429310    0.0605430  
H    -6.0829680    4.0770670    0.1975000  
C     1.3055950    1.7672340   -0.0509120  
C     2.1257820    0.6560480   -0.0480640  
C     3.4753760    1.1064470   -0.1855900  
C     3.4090750    2.5905030   -0.2632720  
N     2.0751230    2.9167080   -0.1850250  
C     4.4867970    3.4094290   -0.3679940  
C     5.8129760    2.8080880   -0.4042570  
O     6.8425120    3.4627020   -0.4632740  
C     5.9182540    1.2435320   -0.3752920  
O     7.0122640    0.7295710   -0.5437760  
C     4.6852630    0.4438890   -0.2071030  
H     1.8001030   -0.3692020    0.0384730  
H     4.4100100    4.4915980   -0.4042160  
H     1.6640760    3.8394440   -0.1890070  
C     3.0240410   -3.1314870   -2.3748830  
C     3.2599560   -1.8468010   -2.0114150  
C     4.1831240   -1.9325590   -0.8848620  
C     4.4042110   -3.3999520   -0.7170170  
N     3.7227940   -4.0944330   -1.5868910  
C     5.2978010   -3.9272850    0.2815860  
C     5.9392940   -3.0438460    1.0793270  
O     6.7900360   -3.3906290    2.0590310  
C     5.7076440   -1.5596720    0.9709750  
O     6.2168160   -0.8532190    1.8338440  
C     4.8191960   -1.0135940   -0.1086160  
H     2.8684360   -0.9441420   -2.4574650  
H     5.4396130   -4.9985180    0.3722980  
H     7.0542130   -2.5453230    2.4847430  
H     2.3918890   -3.4874910   -3.1802410  
