64


C    -4.3160540   -0.1471930    0.1006470  
C    -5.2025010   -0.4088360    1.1176510  
C    -6.4107440   -0.9251820    0.5369500  
C    -6.2145010   -0.9621490   -0.8637550  
N    -4.9546730   -0.4225790   -1.1320730  
C    -7.1799700   -1.4439460   -1.7505360  
C    -8.3793950   -1.8890330   -1.2105300  
O    -9.3545290   -2.3731030   -2.0315550  
C    -8.6034360   -1.8381000    0.1901290  
O    -9.8465100   -2.3026650    0.5720730  
C    -7.6416720   -1.3617280    1.0635570  
H    -5.0300390   -0.1948180    2.1632660  
H    -4.4092980   -0.7505670   -1.9212010  
H    -7.0315980   -1.4781900   -2.8250420  
H   -10.1071380   -2.6256240   -1.4692340  
H    -9.9312140   -2.2499720    1.5355070  
H    -7.8342590   -1.3359990    2.1342100  
C    -0.8849390   -0.5756280    2.9663580  
C    -2.0862970   -0.7123530    2.3193120  
C    -2.0379260    0.1285800    1.1576080  
C    -0.7581520    0.7434900    1.1456620  
N    -0.0858120    0.3034230    2.2660990  
C    -0.3225590    1.6509250    0.1520830  
C    -1.2750620    1.9314790   -0.8262490  
O    -0.9871040    2.8511160   -1.8181890  
C    -2.5539190    1.3335810   -0.8479130  
O    -3.3385310    1.7573100   -1.9039290  
C    -2.9691890    0.4205860    0.1249480  
H    -2.9061230   -1.3439150    2.6273230  
H     0.8570120    0.5715140    2.5021360  
H    -1.7861860    2.9183200   -2.3743640  
H    -4.2508810    1.4374530   -1.7686400  
H    -0.5295240   -1.0336170    3.8787870  
C     3.7899370   -0.1126340    0.5603380  
C     2.4366990    0.0618070    0.4053300  
C     2.1983070    1.4803020    0.3644160  
C     3.4631970    2.1148250    0.4782220  
N     4.4174830    1.1221930    0.6081540  
C     3.6329760    3.5014460    0.4154240  
C     2.4910280    4.2575810    0.2076320  
O     2.5733390    5.6107790    0.1169910  
C     1.2096810    3.6504190    0.0846930  
O     0.1855710    4.5522780   -0.0989570  
C     1.0257610    2.2705240    0.1872400  
H     1.7114420   -0.7282880    0.2771720  
H     5.3989850    1.2660110    0.7900130  
H     4.6008370    3.9849710    0.4954450  
H     1.6628590    5.9166910   -0.0605210  
H    -0.4014300    4.1968970   -0.8025780  
C     4.1758330   -2.3542660    1.5504320  
C     5.0401950   -3.3918430    1.4422630  
C     6.0384260   -3.0222310    0.4608930  
C     5.6691710   -1.6651470   -0.0133110  
N     4.5274880   -1.2960380    0.7001580  
C     6.3459340   -0.9792330   -0.9694030  
C     7.5317180   -1.5986470   -1.5598610  
O     8.2011560   -1.0558970   -2.4251140  
C     7.9571010   -3.0237320   -1.0510920  
O     8.9549510   -3.5475170   -1.5205540  
C     7.1276570   -3.6693050   -0.0299940  
H     4.9990280   -4.3203030    1.9930430  
H     6.0449160   -0.0025970   -1.3323580  
H     7.4167960   -4.6625470    0.3000100  
H     3.3038440   -2.2389690    2.1796540  
