62


C    -3.9902830   -0.4827650   -0.9346860  
C    -4.6770900   -1.6673700   -0.8615090  
C    -3.7404360   -2.6655070   -0.4218860  
C    -2.4948350   -2.0178870   -0.2271040  
N    -2.6744280   -0.6758030   -0.5292080  
C    -1.3280120   -2.6813430    0.2069760  
C    -1.4605920   -4.0532320    0.4488540  
O    -0.3967500   -4.7577530    0.9163770  
C    -2.7004600   -4.7149840    0.2612880  
O    -2.6585110   -6.0628300    0.5621440  
C    -3.8338870   -4.0456510   -0.1637650  
H    -5.7331060   -1.7973720   -1.0515440  
H    -1.9266490   -0.0320250   -0.7454690  
H    -0.6505640   -5.6972050    0.9237950  
H    -3.4770410   -6.4871450    0.2653960  
H    -4.7736070   -4.5785020   -0.2920470  
C    -0.2276580    0.9015000    2.4991740  
C     1.0881610    0.9977950    2.1690760  
C     1.4092460   -0.1210000    1.3086500  
C     0.1495900   -0.8816480    1.1476700  
N    -0.7944880   -0.2216910    1.9141110  
C    -0.0302540   -1.9941850    0.3709190  
C     1.1501880   -2.4359150   -0.3913040  
O     1.1112280   -3.3033440   -1.2456380  
C     2.5318270   -1.7269560   -0.1354580  
O     3.5239830   -2.2197500   -0.6468150  
C     2.5833070   -0.5127820    0.7072470  
H     1.7585730    1.7907980    2.4627280  
H    -0.8410610    1.5730390    3.0856330  
H    -1.7476270   -0.5317260    2.0246590  
C     4.3245370    0.5721060    2.1631850  
C     3.8644990    0.1547210    0.9449080  
C     4.8943970    0.5378690   -0.0292080  
C     5.9682140    1.2124090    0.7419580  
N     5.5549320    1.2011520    2.0604450  
C     7.1068780    1.7242530    0.2092200  
C     7.2981340    1.6315950   -1.2332330  
O     8.2859150    2.0647910   -1.8075540  
C     6.1625200    0.9488510   -2.0780800  
O     6.2846460    0.8866850   -3.2906710  
C     4.9874910    0.4136070   -1.3766840  
H     7.8775120    2.2075710    0.8020940  
H     4.2366870   -0.0884220   -1.9750540  
H     3.8618690    0.4473080    3.1330620  
H     6.1110010    1.5187440    2.8390360  
C    -5.2153280    1.0778340   -2.4254170  
C    -5.4865230    2.4163660   -2.4700380  
C    -4.8371070    3.0231190   -1.3400080  
C    -4.1822020    1.9848650   -0.6324990  
N    -4.4170430    0.7917930   -1.3180380  
C    -3.4717620    2.2130080    0.5514910  
C    -3.4002480    3.5147000    1.0191750  
O    -2.7090230    3.7825650    2.1704100  
C    -4.0355680    4.5708020    0.3176040  
O    -3.8713290    5.8102140    0.9058760  
C    -4.7498940    4.3392200   -0.8449930  
H    -6.0714140    2.9176370   -3.2289640  
H    -2.9842770    1.4185130    1.1010780  
H    -2.7749660    4.7404620    2.3274790  
H    -4.3180830    6.4844590    0.3729420  
H    -5.2381300    5.1627270   -1.3624020  
H    -5.4942910    0.2779930   -3.0957790  
