62


C     4.3005200   -0.0157580   -0.0217500  
C     3.4030240    1.0209570   -0.2652790  
C     4.1216860    2.2442810   -0.1816700  
C     5.4749550    1.9139830    0.1159880  
N     5.5527870    0.5479280    0.2087380  
C     6.4724050    2.8855660    0.2669530  
C     6.0988850    4.2111620    0.1143600  
O     7.0269880    5.1989150    0.2491480  
C     4.7491780    4.5611320   -0.1835180  
O     4.5467990    5.9228680   -0.3020430  
C     3.7677410    3.6043520   -0.3313780  
H     2.3580130    0.9039570   -0.5005140  
H     6.3878270   -0.0005650    0.3520560  
H     7.5048820    2.6408990    0.4932980  
H     6.5702170    6.0461480    0.1062970  
H     3.6155070    6.0952770   -0.5049280  
H     2.7433870    3.8928910   -0.5582010  
C     0.5903050   -2.4400160   -0.0479900  
C     1.1343330   -3.6982700   -0.1549430  
C     2.5561170   -3.5335270   -0.1383520  
C     2.7751020   -2.0537760   -0.0406300  
N     1.6334350   -1.4396070    0.0359870  
C     4.1093440   -1.4534990   -0.0169540  
C     5.1349830   -2.3658140    0.0149880  
O     6.4405200   -2.0165550    0.0767220  
C     4.9493940   -3.8441130   -0.0494320  
O     5.9796280   -4.5350610   -0.0333000  
C     3.6053750   -4.3959960   -0.1384340  
H     0.6159680   -4.6432620   -0.1708570  
H     6.9176370   -2.8827320    0.0688330  
H     3.5034070   -5.4753160   -0.1853280  
C    -3.3626740   -4.4165010   -0.9549820  
C    -2.0199020   -4.1553130   -0.8203940  
C    -1.8925610   -2.8294030   -0.2931850  
C    -3.2062860   -2.3329610   -0.1276230  
N    -4.0780720   -3.3257700   -0.5222440  
C    -3.5187480   -1.0175440    0.3036200  
C    -2.4119410   -0.1959190    0.5412040  
O    -2.5878140    1.0865700    0.9710790  
C    -1.0796620   -0.6562420    0.3969400  
O    -0.1586050    0.2873030    0.7199210  
C    -0.7743490   -1.9852970    0.0119960  
H    -1.2288780   -4.8290980   -1.1085030  
H    -5.0765410   -3.2058560   -0.6002300  
H    -1.6918810    1.4448520    1.1207690  
H     0.7482210   -0.1084270    0.5558200  
H    -3.8674190   -5.2983530   -1.3227620  
C    -5.9343770   -1.3362880    0.9987090  
C    -4.9012770   -0.5899070    0.4987430  
C    -5.5411200    0.7030280    0.1550720  
C    -6.9703860    0.5155360    0.5330820  
N    -7.1844530   -0.6736040    1.0303520  
C    -7.9498780    1.5522010    0.3450410  
C    -7.5405250    2.7166480   -0.2133760  
O    -8.3444350    3.7651460   -0.4539490  
C    -6.1113770    2.9290510   -0.6239050  
O    -5.8141300    4.0108950   -1.1283860  
C    -5.1217200    1.8502560   -0.4099040  
H    -8.9795660    1.3827200    0.6397560  
H    -7.7661750    4.4490530   -0.8578950  
H    -4.0958390    2.0530990   -0.6918260  
H    -5.8756410   -2.3406200    1.4028860  
