62


C    -2.7935560   -1.1514850   -1.7020360  
C    -4.0748630   -1.5964860   -1.5456430  
C    -4.0511320   -2.6278490   -0.5451650  
C    -2.7059500   -2.7780850   -0.1266270  
N    -1.9378480   -1.8581280   -0.8460680  
C    -2.3249940   -3.6793330    0.8736920  
C    -3.3203470   -4.4556790    1.4466240  
O    -3.0012270   -5.3554460    2.4207760  
C    -4.6726170   -4.3261400    1.0321100  
O    -5.5439130   -5.1661400    1.6980130  
C    -5.0457530   -3.4267120    0.0512320  
H    -4.9370370   -1.2444810   -2.0957870  
H    -1.2973760   -3.8131760    1.1885710  
H    -3.8205770   -5.8193160    2.6649000  
H    -6.4298480   -5.0830200    1.3154340  
H    -6.0882760   -3.3347850   -0.2467060  
H    -2.3803140   -0.4290110   -2.3914690  
C     0.0710500    1.8312930    0.0772510  
C     1.3684530    1.3958330    0.0209250  
C     1.3447840   -0.0033650   -0.2962350  
C    -0.0784020   -0.3546790   -0.4460970  
N    -0.8160660    0.8089640   -0.2533340  
C    -0.5620780   -1.6003390   -0.7090120  
C     0.4409230   -2.6542080   -0.9318080  
O     0.1505450   -3.8068800   -1.1896940  
C     1.9653750   -2.2564300   -0.8902950  
O     2.7527430   -3.1367500   -1.2398710  
C     2.3694490   -0.9181230   -0.4603950  
H     2.2537310    1.9982130    0.1439890  
H    -1.7843480    0.7833850    0.0384120  
C     4.4056080    1.0826620    3.0161590  
C     3.4892970    0.4832710    2.1896780  
C     4.1778860    0.1049590    0.9841710  
C     5.5322150    0.4978790    1.1544670  
N     5.6354100    1.1090920    2.3887980  
C     6.5296680    0.2396060    0.2088890  
C     6.1493760   -0.4613600   -0.9241900  
O     7.0672460   -0.7731030   -1.8773150  
C     4.8037660   -0.8730990   -1.1255770  
O     4.6032070   -1.5366900   -2.3139770  
C     3.7879670   -0.5700990   -0.2130720  
H     2.4494910    0.3117560    2.4260050  
H     6.4958370    1.4296160    2.8043940  
H     7.5654960    0.5333460    0.3448950  
H     6.5807690   -1.2949320   -2.5450490  
H     4.0267620   -2.3106030   -2.1132020  
H     4.2862210    1.4899900    4.0103550  
C     0.3276730    3.9699070    1.2487740  
C    -0.3396970    5.1290080    1.4315570  
C    -1.5800090    5.0494890    0.6862550  
C    -1.5873060    3.7206930    0.0268900  
N    -0.3969460    3.0858100    0.4207080  
C    -2.5676040    3.2993040   -0.8094930  
C    -3.7136790    4.1851850   -1.0450140  
O    -4.6349000    3.8771870   -1.7821580  
C    -3.7426120    5.5750620   -0.3209210  
O    -4.6976960    6.3144240   -0.4873160  
C    -2.5989880    5.9306050    0.5266700  
H    -0.0148560    5.9622050    2.0379600  
H    -2.5554340    2.3544990   -1.3391220  
H    -2.6051040    6.9085550    0.9981120  
H     1.2715540    3.6370620    1.6573130  
