62


C     0.9428980    5.5733780   -1.9369130  
C     2.1050320    6.0877250   -1.4239220  
C     2.6687750    5.0806890   -0.5716570  
C     1.7900600    3.9700780   -0.5977260  
N     0.7433000    4.3032210   -1.4283670  
C     2.0442260    2.7517240    0.0851610  
C     3.2380150    2.7106730    0.8328710  
O     3.5329070    1.6305720    1.5919030  
C     4.1179290    3.8238110    0.8703360  
O     5.2313790    3.6160980    1.6632460  
C     3.8518030    4.9951410    0.1894090  
H     2.5140530    7.0672810   -1.6294930  
H     0.0339880    3.6523210   -1.7291930  
H     4.4184880    1.7728280    1.9708500  
H     5.8234060    4.3797170    1.5986910  
H     4.5445100    5.8327580    0.2423000  
H     0.2249420    6.0092870   -2.6169350  
C     1.1303060    1.6273410    0.0043130  
C    -0.2412510    1.6506870   -0.1127150  
C    -0.6622970    0.2790690   -0.1996880  
C     0.6130880   -0.4948660   -0.1266810  
N     1.6436940    0.2873800   -0.0130770  
C     0.6540480   -1.9589910   -0.2037240  
C    -0.5723500   -2.5420050   -0.3136040  
O    -0.7457400   -3.8922990   -0.4096680  
C    -1.8663860   -1.8091960   -0.3371960  
O    -2.8880490   -2.5066250   -0.4104800  
C    -1.8919270   -0.3281920   -0.2993280  
H    -0.8871850    2.5130720   -0.0316750  
H    -1.7251230   -4.0069050   -0.4532450  
C    -3.3268910    1.5782740   -1.1079920  
C    -3.1467110    0.3883520   -0.4493460  
C    -4.4992820    0.0767680    0.0773710  
C    -5.3362910    1.2248300   -0.3758780  
N    -4.6393860    2.0830980   -1.0772300  
C    -6.7327700    1.3298240   -0.0552060  
C    -7.2834760    0.3508220    0.7027200  
O    -8.5692520    0.3198780    1.0835050  
C    -6.4658330   -0.8109830    1.1924850  
O    -7.0309430   -1.6577290    1.8819790  
C    -5.0328650   -0.9001880    0.8348230  
H    -7.3059840    2.1785250   -0.4113030  
H    -8.6636390   -0.4992620    1.6182830  
H    -4.4916470   -1.7702100    1.1843020  
H    -2.5764340    2.1226900   -1.6671570  
C     4.2940120   -1.9889850    2.4872680  
C     3.0805020   -1.7016960    1.9215590  
C     2.9479800   -2.5220930    0.7511700  
C     4.1331290   -3.3029980    0.6667890  
N     4.9392140   -2.9486810    1.7276230  
C     4.3595430   -4.2572010   -0.3300940  
C     3.3466880   -4.4513100   -1.2540970  
O     3.4889200   -5.3736530   -2.2469610  
C     2.1388990   -3.7103090   -1.1861330  
O     1.2439110   -4.0141210   -2.1947530  
C     1.9190140   -2.7218720   -0.2151420  
H     2.3852910   -0.9565820    2.2734230  
H     5.8251030   -3.3743590    1.9487860  
H     5.2701660   -4.8449130   -0.3896930  
H     2.6530600   -5.3388490   -2.7504710  
H     0.3749110   -4.1963870   -1.7779630  
H     4.7636040   -1.5829310    3.3722980  
