62


C     3.2314850    0.2385540   -0.7264030  
C     1.8611610    0.3166380   -0.6339700  
C     1.5370770    1.6746680   -0.2811750  
C     2.7690410    2.3729170   -0.1725040  
N     3.7872720    1.4687230   -0.4234630  
C     2.8534860    3.7377900    0.1090640  
C     1.6550170    4.4205050    0.2534890  
O     1.6549300    5.7574870    0.4949800  
C     0.4044330    3.7525090    0.1607210  
O    -0.6758270    4.5752580    0.3623790  
C     0.3113480    2.3732910   -0.0621740  
H     1.1805100   -0.5016270   -0.8166050  
H     4.7543680    1.7058140   -0.5875510  
H     3.7960900    4.2701120    0.1817990  
H     0.7137010    6.0190890    0.5158530  
H    -1.3580520    4.3228280   -0.3064510  
C    -0.8266090   -1.3201680    1.9838740  
C    -2.0917600   -1.4906350    1.5184590  
C    -2.3922290   -0.3557880    0.6681310  
C    -1.1757630    0.4893870    0.6669430  
N    -0.2824470   -0.1351190    1.5084020  
C    -0.9838060    1.6535650   -0.0463830  
C    -2.1641450    2.1299760   -0.7591870  
O    -2.2324070    3.2266160   -1.3172940  
C    -3.4678930    1.2489930   -0.8046230  
O    -4.4344000    1.7023200   -1.3867900  
C    -3.5050640   -0.0325700   -0.0635960  
H    -2.7459400   -2.3232070    1.7278590  
H    -0.2427360   -1.9544850    2.6376340  
H     0.6875720    0.1367420    1.5857180  
C    -6.2905900   -1.4683360    3.0503240  
C    -7.1804210   -2.1296150    2.2669970  
C    -6.7204580   -2.0127230    0.8984280  
C    -5.4674150   -1.2210300    0.9513340  
N    -5.2575070   -0.9342790    2.2863430  
C    -4.7252430   -0.8488280   -0.1347660  
C    -5.1951170   -1.3298640   -1.4536850  
O    -4.5538100   -1.1673790   -2.4763970  
C    -6.5406890   -2.1386980   -1.5292920  
O    -6.9555670   -2.4817410   -2.6249610  
C    -7.2336710   -2.4537400   -0.2815910  
H    -8.0709960   -2.6433390    2.5982500  
H    -8.1575230   -3.0204880   -0.3447110  
H    -6.2931590   -1.3242130    4.1227340  
H    -4.5093740   -0.3542350    2.6329140  
C     3.7699750   -1.7027240   -2.1590310  
C     4.7423680   -2.6578850   -2.2367550  
C     5.6825560   -2.3994530   -1.1806430  
C     5.2189550   -1.2593960   -0.4775530  
N     4.0409200   -0.8356030   -1.0984480  
C     5.8803480   -0.7459390    0.6458530  
C     7.0446910   -1.3827810    1.0500300  
O     7.7275170   -0.9188630    2.1371120  
C     7.5332460   -2.5145260    0.3469820  
O     8.7027900   -3.0333760    0.8683610  
C     6.8673250   -3.0275380   -0.7512580  
H     4.7933010   -3.4496470   -2.9715530  
H     5.5164380    0.1057050    1.2094820  
H     8.5041770   -1.4924770    2.2556250  
H     8.9830350   -3.7957720    0.3407530  
H     7.2524870   -3.9039150   -1.2688780  
H     2.9027890   -1.5248680   -2.7780550  
