64


C    -0.8092740    0.9888470    0.2056370  
C    -1.0926800    2.3336650   -0.0247180  
C    -2.5017120    2.4624880   -0.1057190  
C    -3.0589640    1.1601530    0.0754330  
N    -2.0146190    0.2932230    0.2386980  
C    -4.4509860    0.8927370    0.0305480  
C    -5.2538060    2.0150920   -0.1875690  
O    -6.6184650    1.8862710   -0.2637630  
C    -4.7129310    3.3197190   -0.3647700  
O    -5.6798720    4.2897580   -0.5757540  
C    -3.3593030    3.5600400   -0.3321000  
H    -0.3493980    3.1085840   -0.1209540  
H    -2.0965580   -0.6589970    0.5649650  
H    -6.9800230    2.7897350   -0.3160440  
H    -5.2711270    5.1661780   -0.5228370  
H    -2.9635630    4.5619800   -0.4826960  
C     3.2870590    2.5941160    0.1537600  
C     4.0436120    1.4764260    0.3319510  
C     3.0455340    0.3924190    0.4666710  
C     1.7275450    1.0680880    0.3205700  
N     1.8878210    2.3498600    0.1498930  
C     0.4619170    0.3252580    0.3895260  
C     0.5912540   -1.0209480    0.6501460  
O    -0.4716850   -1.8652720    0.7569340  
C     1.8801060   -1.6978730    0.8420440  
O     1.8801160   -2.9180230    1.0689850  
C     3.1321780   -0.9185350    0.7493870  
H    -0.0656990   -2.7422670    0.9433110  
H     4.0648790   -1.4504450    0.9094150  
H     3.6371790    3.6079760    0.0023050  
C     6.2962580    2.2583000    1.1283250  
C     5.4889980    1.3673730    0.4467970  
C     6.3770640    0.3701420   -0.1183700  
C     7.6965050    0.7207550    0.2635590  
N     7.6127710    1.8768600    1.0178000  
C     8.8221710   -0.0168280   -0.1218910  
C     8.6141760   -1.1318190   -0.9184050  
O     9.6746640   -1.8902330   -1.3189810  
C     7.3027040   -1.4887620   -1.3303450  
O     7.2590060   -2.6105830   -2.1351660  
C     6.1948090   -0.7548860   -0.9483460  
H     8.3899670    2.3361320    1.4664180  
H     9.8316140    0.2516730    0.1725180  
H     9.3210840   -2.6134350   -1.8652620  
H     6.3387950   -2.8161210   -2.3572990  
H     5.2046910   -1.0404810   -1.2949030  
H     6.0141410    3.1222240    1.7131450  
C    -7.3452760   -1.3344170   -2.5046610  
C    -7.2866030   -2.5357200   -1.8507590  
C    -6.3916890   -2.3634800   -0.7408710  
C    -5.9281390   -1.0210320   -0.7836630  
N    -6.4995890   -0.4272860   -1.8918120  
C    -5.0074210   -0.4818890    0.1470610  
C    -4.6059010   -1.3594110    1.1603680  
O    -3.7348840   -0.9353280    2.1318390  
C    -5.0597630   -2.7005890    1.2144290  
O    -4.5366420   -3.4207470    2.2773730  
C    -5.9325440   -3.2171710    0.2781290  
H    -7.8074000   -3.4420630   -2.1282710  
H    -6.5870240    0.5755260   -1.9743790  
H    -3.6088330   -1.6833800    2.7418970  
H    -4.9749430   -4.2827710    2.3255940  
H    -6.2555900   -4.2549520    0.3334630  
H    -7.9141650   -1.0439860   -3.3771190  
