62


C    -2.7990290    1.4028970    0.8709380  
C    -1.5491130    0.8760630    0.6838680  
C    -1.7033570   -0.3433110   -0.0597370  
C    -3.0942890   -0.4846200   -0.3148560  
N    -3.7525890    0.5877500    0.2766610  
C    -3.6267990   -1.5252050   -1.0882600  
C    -2.7241190   -2.4360170   -1.6200720  
O    -3.1666470   -3.4592060   -2.3956920  
C    -1.3290570   -2.3231160   -1.3831540  
O    -0.5882540   -3.3222620   -1.9702120  
C    -0.7908590   -1.3076860   -0.5826610  
H    -0.6263900    1.3125380    1.0363400  
H    -4.6803930   -1.5954020   -1.3378570  
H    -2.3626090   -3.9288850   -2.6919690  
H     0.1944040   -2.8898750   -2.3839940  
H    -3.1133890    2.2948190    1.3931210  
C     1.4221580   -0.8313330    3.2357020  
C     0.4755890   -1.0245540    2.2809780  
C     1.1444560   -1.0470570    0.9995880  
C     2.5836110   -0.8589860    1.2923700  
N     2.6895440   -0.7624810    2.6665870  
C     3.5905650   -0.7690940    0.3677240  
C     3.1716270   -0.9248890   -1.0293150  
O     3.9307930   -0.8232140   -1.9784490  
C     1.6724270   -1.2984350   -1.3368230  
O     1.4382820   -1.6636160   -2.4873170  
C     0.6558030   -1.2160710   -0.2799720  
H    -0.5832630   -1.1462700    2.4434720  
H     1.3094120   -0.7569280    4.3091910  
H     3.5243890   -0.4413370    3.1337750  
C     5.7010900   -1.2769690    1.6557830  
C     5.0007340   -0.5666380    0.7203740  
C     5.9384470    0.4219260    0.1748830  
C     7.2242560    0.2138700    0.8841570  
N     7.0056250   -0.8204000    1.7757840  
C     8.3564620    0.9291710    0.6645820  
C     8.3172690    2.0000770   -0.3257920  
O     9.2812170    2.7018030   -0.5907150  
C     6.9580850    2.2591640   -1.0710170  
O     6.8913330    3.1674890   -1.8823290  
C     5.8085530    1.3977530   -0.7576720  
H     9.2874420    0.7505910    1.1939290  
H     4.8918980    1.5660480   -1.3106140  
H     5.3685590   -2.1186250    2.2500490  
H     7.7242100   -1.2616970    2.3284650  
C    -6.2697300    3.9981360   -1.0481840  
C    -5.2066350    3.1676980   -0.8068530  
C    -5.7306470    1.9940250   -0.1668210  
C    -7.1347760    2.1705000   -0.0483220  
N    -7.4319720    3.4040320   -0.5905550  
C    -7.9817470    1.2036650    0.5069600  
C    -7.3972000    0.0318720    0.9611310  
O    -8.1695720   -0.9482590    1.5105430  
C    -5.9933920   -0.1663740    0.8820860  
O    -5.5584380   -1.3538430    1.4329120  
C    -5.1591730    0.7990330    0.3246020  
H    -4.1749200    3.3625860   -1.0616710  
H    -8.3565360    3.7980700   -0.6645380  
H    -9.0565220    1.3325220    0.5816550  
H    -7.5722170   -1.6862480    1.7276850  
H    -4.7058930   -1.6109250    1.0411840  
H    -6.2994060    4.9726080   -1.5147670  
