62


C    -1.3370270    2.4337340   -0.4016760  
C    -1.7350600    1.2351960   -0.9144070  
C    -1.9805780    2.6110300    3.1835770  
C    -3.1938150    1.5974670   -0.6458280  
N    -2.6461620    2.8580520   -0.0094340  
C    -4.0761830    1.6894790   -1.8701020  
C    -5.0711850    0.7905540   -1.7246490  
O    -6.0467640    0.4527950   -2.5980400  
C    -4.9560840    0.1296260   -0.4045220  
O    -5.8467650   -0.8509400   -0.1090990  
C    -3.9161390    0.6445830    0.2727700  
H    -1.2594960    0.3417130   -1.2933180  
H    -2.9645390    3.7577610   -0.3647440  
H    -3.8512250    2.2943600   -2.7380880  
H    -6.5833540   -0.2405450   -2.1751970  
H    -5.4842130   -1.3956970    0.6210790  
H    -3.5685840    0.4032070    1.2650800  
C     2.8592610    0.9827740   -0.0667240  
C     1.4824150    1.0840640   -0.1624530  
C     1.1354900    2.4661350   -0.1346830  
C     2.4019500    3.2115200    0.0037410  
N     3.4018730    2.2671020    0.0291420  
C     2.5022100    4.5661200    0.0949370  
C     1.2807540    5.3524900    0.0650690  
O     1.2588510    6.5713060    0.1622430  
C    -0.0855640    4.5947520   -0.1075830  
O    -1.1111150    5.2565560   -0.1826210  
C    -0.0846840    3.1198020   -0.2027380  
H     0.8122010    0.2456030   -0.2298900  
H     3.4484530    5.0874260    0.1999970  
H     4.3917670    2.4517240    0.0943940  
C     1.8276820   -3.2846350   -0.1846190  
C     3.0638440   -3.8591530   -0.3423350  
C     3.9872570   -2.7676050   -0.3002480  
C     3.1271290   -1.5462330   -0.1310040  
N     1.8689810   -1.8684420   -0.0399750  
C     3.6972550   -0.1976400   -0.0909300  
C     5.0721710   -0.1559730   -0.1095610  
O     5.7907000    0.9785700   -0.0536480  
C     5.9499610   -1.3668770   -0.2284520  
O     7.1714160   -1.1511530   -0.2438010  
C     5.3438070   -2.6779950   -0.3383430  
H     3.3080430   -4.9080650   -0.4206260  
H     6.7312830    0.6651990   -0.0985870  
H     6.0029870   -3.5334150   -0.4444430  
C     0.3508760   -5.1294770   -0.8248800  
C    -0.9658140   -5.4538690   -0.7192490  
C    -1.6133800   -4.3969810    0.0182190  
C    -0.6215390   -3.4375330    0.3368060  
N     0.5949580   -3.8973150   -0.2063030  
C    -0.9092740   -2.3237460    1.1290170  
C    -2.2208680   -2.1509520    1.5569240  
O    -2.0446540    1.4725870    3.1841030  
C    -3.2251370   -3.0615580    1.1869340  
O    -4.5165570   -2.7725740    1.6067010  
C    -2.9367310   -4.1945150    0.4335240  
H    -1.4340040   -6.3376040   -1.1305880  
H    -0.1391910   -1.6157550    1.4053240  
H    -2.4781980   -1.3110220    2.1909940  
H    -5.0681150   -3.5615540    1.4802920  
H    -3.7167680   -4.9063280    0.1714530  
H     1.1565100   -5.6374640   -1.3330400  
