66


C    -1.6565930   -0.6841270    0.6603040  
C    -2.9448420   -0.2467480    0.8501310  
C    -2.9659290    1.1666560    0.5783730  
C    -1.6435560    1.5281460    0.2234020  
N    -0.8521130    0.3851500    0.2894430  
C    -1.2923400    2.8375520   -0.1263870  
C    -2.2941970    3.7938740   -0.1066800  
O    -2.0085310    5.0869980   -0.4402050  
C    -3.6236270    3.4474450    0.2586420  
O    -4.5042140    4.5127430    0.2374750  
C    -3.9697750    2.1546110    0.6004550  
H    -0.2807160    3.1166790   -0.3959680  
H    -2.8375290    5.5905580   -0.3677110  
H    -5.3952140    4.1968490    0.4488280  
H    -4.9919790    1.9039400    0.8730860  
H    -1.2340700   -1.6707350    0.7850070  
C     0.9997300   -1.8279130   -2.9691530  
C     2.3011270   -1.5017640   -2.6887560  
C     2.2872310   -0.6399930   -1.5386330  
C     0.9283500   -0.4900430   -1.1640330  
N     0.1659930   -1.2209330   -2.0474720  
C     0.5209980    0.2771950   -0.0581290  
C     1.5209590    0.9103680    0.6755920  
O     1.1952840    1.6764540    1.7535290  
C     2.8814230    0.7814630    0.2977780  
O     3.7389460    1.4996060    1.1105470  
C     3.2999310    0.0144370   -0.7885730  
H     3.1728360   -1.8446920   -3.2270350  
H    -0.8413360   -1.2697540   -2.0342270  
H     2.0246490    2.0728460    2.0747160  
H     4.6333050    1.4665250    0.7305710  
H     0.5888870   -2.4508710   -3.7509600  
C    -4.0652970   -1.7610890    2.4785040  
C    -5.2487220   -2.4413890    2.5787440  
C    -6.0068140   -2.1440110    1.3965060  
C    -5.2161120   -1.2687680    0.6064680  
N    -4.0256140   -1.0415900    1.2887490  
C    -5.6374130   -0.7894090   -0.6412370  
C    -6.8861930   -1.1884930   -1.0920240  
O    -7.3486570   -0.7463780   -2.3016060  
C    -7.6949710   -2.0548290   -0.3113110  
O    -8.9141070   -2.3602770   -0.8933230  
C    -7.2724010   -2.5337990    0.9151270  
H    -5.5494520   -3.0744780    3.4025550  
H    -5.0288500   -0.1290850   -1.2488160  
H    -8.2254350   -1.1459000   -2.4333120  
H    -9.3980350   -2.9711130   -0.3184610  
H    -7.9082610   -3.2024390    1.4929780  
H    -3.2288860   -1.6983910    3.1599750  
C     5.2590730    0.1371040   -2.4048620  
C     4.7269830   -0.0704530   -1.1493680  
C     5.8505920   -0.3778510   -0.2841010  
C     7.0226630   -0.3322710   -1.0828910  
N     6.6280750   -0.0184060   -2.3677170  
C     8.2993590   -0.5979400   -0.5723420  
C     8.3968420   -0.9212620    0.7717500  
O     9.6168000   -1.1857420    1.3213340  
C     7.2339330   -0.9860370    1.5857690  
O     7.4929460   -1.3306480    2.8981670  
C     5.9746560   -0.7241790    1.0796800  
H     7.2463090    0.0916590   -3.1562890  
H     9.1963780   -0.5646540   -1.1822810  
H     9.4698990   -1.4013500    2.2585420  
H     6.6600340   -1.3813330    3.3902570  
H     5.0988530   -0.7905750    1.7203970  
H     4.7560860    0.4058310   -3.3226990  
