64


C     2.3728690   -1.3225930   -1.5909840  
C     2.5980230   -2.6549870   -1.3774990  
C     3.6053910   -2.7582540   -0.3597870  
C     3.9515290   -1.4334740    0.0154250  
N     3.1870460   -0.5610460   -0.7553780  
C     4.8955650   -1.1538920    1.0169500  
C     5.5138130   -2.2334350    1.6330700  
O     6.4370940   -2.0158730    2.6125330  
C     5.1897680   -3.5637220    1.2588720  
O     5.8917800   -4.5259490    1.9587120  
C     4.2464180   -3.8340650    0.2838640  
H     2.1116930   -3.4702530   -1.8957220  
H     5.1220520   -0.1463130    1.3493200  
H     6.7335450   -2.8867020    2.9289780  
H     5.5909060   -5.4067330    1.6908180  
H     4.0062060   -4.8630380    0.0228830  
H     1.7153820   -0.8232960   -2.2878220  
C     0.0543880    2.5457700   -0.1219720  
C     0.7500860    1.3381080   -0.2319600  
C     2.0998930    1.6437200   -0.5320830  
C     2.2078250    3.0644840   -0.5920640  
N     0.9612070    3.5763400   -0.3479500  
C     3.4185750    3.7213540   -0.8377680  
C     4.5395380    2.9300150   -1.0350590  
O     5.7446950    3.5079930   -1.2781560  
C     4.4595840    1.5057980   -1.0091400  
O     5.6519560    0.8782000   -1.2810220  
C     3.2580990    0.8577450   -0.7587230  
H     0.3448240    0.3554460   -0.0569250  
H     0.7024850    4.5479290   -0.2411190  
H     3.5086600    4.8016510   -0.8689080  
H     6.3956290    2.7883800   -1.3656510  
H     5.6137570   -0.0535830   -1.0032730  
C    -3.6671770   -0.0032600    0.1169660  
C    -2.3712560    0.4311610   -0.1202320  
C    -2.3274380    1.8135100    0.2090090  
C    -3.7099440    2.1347570    0.6429230  
N    -4.4784350    1.0798210    0.5920960  
C    -4.1223000    3.4523100    1.0440090  
C    -3.1921220    4.4279650    0.9738010  
O    -3.4213890    5.7107270    1.2794390  
C    -1.7702070    4.1566710    0.5226060  
O    -1.0448910    5.1635480    0.4734700  
C    -1.3349020    2.7919280    0.1879210  
H    -1.5760010   -0.1441780   -0.5573080  
H    -5.1406200    3.6419930    1.3637300  
H    -2.5648490    6.1683840    1.1172970  
C    -2.0879330   -4.1284280   -0.8987350  
C    -2.1730000   -2.7909320   -0.5879800  
C    -3.5593000   -2.4780130   -0.3992980  
C    -4.2698830   -3.6855940   -0.6034220  
N    -3.3526220   -4.6675980   -0.9148200  
C    -5.6609400   -3.8008530   -0.4702940  
C    -6.3605960   -2.6660670   -0.1064630  
O    -7.7119740   -2.7133830    0.0507500  
C    -5.6968920   -1.4275450    0.1100550  
O    -6.5376720   -0.4284330    0.4571040  
C    -4.2888320   -1.2887690   -0.0499860  
H    -1.3209040   -2.1392820   -0.4801260  
H    -3.5771000   -5.6325770   -1.1006310  
H    -6.1911730   -4.7345700   -0.6293730  
H    -7.9873690   -1.8136720    0.3073830  
H    -5.9749820    0.3940270    0.6203730  
H    -1.2211720   -4.7393390   -1.1063340  
