62


C     5.1691340    0.7293140   -0.0878760  
C     6.1892200    1.5780140   -0.4925790  
C     7.4240270    0.8860030   -0.3346520  
C     7.1151320   -0.4042930    0.1815790  
N     5.7414290   -0.4879110    0.2875630  
C     8.0978270   -1.3522800    0.4829830  
C     9.4184230   -0.9987220    0.2490140  
O    10.4162410   -1.8825630    0.5251550  
C     9.7468820    0.2809120   -0.2834860  
O    11.1021660    0.4709650   -0.4637740  
C     8.7754660    1.2157350   -0.5778400  
H     6.0459610    2.5672430   -0.9053290  
H     5.2574710   -1.1855750    0.8324440  
H     7.8687280   -2.3358010    0.8799300  
H    11.2573130   -1.4545880    0.2876680  
H    11.2612550    1.3524700   -0.8325220  
H     9.0488350    2.1884860   -0.9812420  
C     3.0740690    2.1368250    0.0755770  
C     3.7495060    0.9528180   -0.0357750  
C     2.6758380   -0.0656370   -0.1206540  
C     1.4169520    0.7108380   -0.0190430  
N     1.6737680    1.9895570    0.0803410  
C     0.1022260    0.0646240   -0.0636600  
C     0.1286160   -1.3025760   -0.2444350  
O    -0.9988050   -2.0694680   -0.3033170  
C     1.3562980   -2.0832040   -0.3924030  
O     1.2675960   -3.3128620   -0.5507620  
C     2.6616040   -1.3932280   -0.3396380  
H    -0.6580230   -2.9811560   -0.4526770  
H     3.5451870   -2.0053070   -0.4941010  
H     3.4964780    3.1285730    0.1772240  
C    -1.1156920    0.8301180    0.0670910  
C    -1.3054250    2.1983450    0.2567550  
C    -2.7018270    2.4338130    0.3169910  
C    -3.3496550    1.1722550    0.1641790  
N    -2.3717590    0.2260390    0.0166920  
C    -4.7538450    1.0236650    0.1486410  
C    -5.4938750    2.1978810    0.3050280  
O    -6.8475830    2.1350250    0.3562290  
C    -4.8596360    3.4646770    0.4617160  
O    -5.7531880    4.5068790    0.6133310  
C    -3.4893790    3.5973400    0.4691110  
H    -0.5075010    2.9198360    0.3297880  
H    -2.5057340   -0.7635560   -0.1350300  
H    -7.1823300    3.0488370    0.3806080  
H    -5.2742040    5.3486780    0.5998740  
H    -3.0253690    4.5737230    0.5903220  
C    -4.5805550   -2.8484670    2.3289870  
C    -4.4128440   -1.5617040    1.9316890  
C    -5.2138580   -1.3693020    0.7373960  
C    -5.8778420   -2.6699580    0.4762580  
N    -5.4398810   -3.5256180    1.4680420  
C    -6.7535310   -2.9100250   -0.5343200  
C    -7.0649970   -1.8171710   -1.4413170  
O    -7.8697990   -1.9107020   -2.3564840  
C    -6.3182050   -0.4468030   -1.2381050  
O    -6.4711060    0.4218170   -2.0766600  
C    -5.4214120   -0.2770820   -0.0613110  
H    -3.8006180   -0.8158770    2.4150180  
H    -7.2448110   -3.8662300   -0.6860790  
H    -4.1522710   -3.3663070    3.1770050  
H    -5.7512900   -4.4769920    1.5834800  
