66


C     0.1496610    1.6333970    0.1052260  
C    -1.0574390    0.9600860    0.2334760  
C    -0.7926780   -0.4444680    0.1402730  
C     0.6103140   -0.5821490   -0.0272480  
N     1.1473850    0.6848350   -0.0613790  
C     1.2734620   -1.8239590   -0.1122370  
C     0.4514440   -2.9450260    0.0073490  
O     0.9881880   -4.1922990   -0.0017210  
C    -0.9594490   -2.8333580    0.1594520  
O    -1.6060540   -4.0511410    0.2248490  
C    -1.6164580   -1.6039810    0.1985350  
H    -2.0094760    1.4052890    0.4806950  
H     2.1298640    0.9134020   -0.1125880  
H     0.2306940   -4.7987730    0.1087540  
H    -2.2738490   -3.9957170    0.9418690  
C    -2.4585160    5.0726480   -0.8259930  
C    -1.5543330    6.0674940   -0.5633860  
C    -0.3310900    5.4298500   -0.1658600  
C    -0.5616200    4.0296270   -0.1951780  
N    -1.8714420    3.8439960   -0.5900190  
C     0.4303590    3.0673170    0.1187950  
C     1.6907580    3.5923360    0.4327660  
O     2.7321070    2.7451250    0.7279590  
C     1.9327570    4.9859510    0.4697800  
O     3.2329740    5.3112130    0.8181790  
C     0.9450560    5.9093280    0.1871610  
H    -1.7342320    7.1307960   -0.6433050  
H    -2.2757180    2.9493880   -0.8208270  
H     3.5142420    3.2983200    0.8990810  
H     3.3410500    6.2731210    0.7946010  
H     1.1559320    6.9761070    0.2233700  
H    -3.4867680    5.1311880   -1.1541940  
C     4.5209980   -0.3321930    2.4801350  
C     5.5840540   -0.7644760    1.7296080  
C     5.0443290   -1.4271970    0.5756110  
C     3.6304880   -1.3624180    0.6833700  
N     3.3421870   -0.6926250    1.8560480  
C     2.7460230   -1.9202380   -0.2655640  
C     3.3427260   -2.5523200   -1.3570730  
O     2.5674810   -3.0845340   -2.3440300  
C     4.7554460   -2.6306910   -1.4772380  
O     5.1789220   -3.2887850   -2.6208240  
C     5.6065740   -2.0826740   -0.5373970  
H     6.6297720   -0.6309790    1.9715010  
H     2.4126900   -0.4917310    2.1908390  
H     3.1689180   -3.5161250   -2.9748600  
H     6.1440060   -3.3656270   -2.6048530  
H     6.6856230   -2.1576720   -0.6597370  
H     4.5003800    0.2064740    3.4170870  
C    -4.3666100    0.7026100   -2.3674620  
C    -5.5458930    0.3543290   -1.7596170  
C    -5.2161450   -0.5283880   -0.6771420  
C    -3.8026620   -0.6699950   -0.6712710  
N    -3.3153870    0.0893800   -1.7145090  
C    -3.0956860   -1.4906980    0.2402140  
C    -3.9011010   -2.1899280    1.1371810  
O    -3.3198310   -3.0495260    2.0531340  
C    -5.3110170   -2.0656080    1.1524520  
O    -5.9234710   -2.8367770    2.1259760  
C    -5.9788420   -1.2413630    0.2686830  
H    -6.5347520    0.6764460   -2.0558600  
H    -2.3365100    0.1702190   -1.9456630  
H    -4.0432510   -3.4290810    2.5843600  
H    -6.8820340   -2.7048870    2.0878220  
H    -7.0636420   -1.1623560    0.2945370  
H    -4.1841360    1.3338000   -3.2262050  
