64


C    -0.1254350    2.0833110   -0.1971220  
C    -1.3365140    1.4696980   -0.4225160  
C    -1.0988180    0.0589530   -0.5326420  
C     0.2915970   -0.1495430   -0.3733530  
N     0.8768930    1.0985920   -0.2208080  
C     0.9129700   -1.4189290   -0.3557790  
C     0.0262200   -2.5012440   -0.4878930  
O     0.4938370   -3.7882410   -0.4506740  
C    -1.3608390   -2.3251830   -0.6995120  
O    -2.0511330   -3.4985550   -0.9241410  
C    -1.9369630   -1.0563490   -0.7353480  
H    -2.2831730    1.9784450   -0.5316240  
H     1.7426760    1.2072120    0.2947080  
H    -0.2851720   -4.3656680   -0.5632910  
H    -2.9363640   -3.4576470   -0.5156970  
C    -2.2055190    5.4751710    1.8840200  
C    -1.8726150    4.2419180    1.3861870  
C    -0.6327980    4.3915230    0.6773940  
C    -0.2560930    5.7561330    0.7898500  
N    -1.2364970    6.3918110    1.5235000  
C     0.9232990    6.2716750    0.2405000  
C     1.7442270    5.3879040   -0.4419180  
O     2.8985720    5.8368910   -1.0151610  
C     1.3967470    4.0200990   -0.5665720  
O     2.3172660    3.2795690   -1.2910230  
C     0.2199030    3.4945000   -0.0221630  
H    -2.4350040    3.3309080    1.5277090  
H    -1.2335750    7.3678870    1.7741600  
H     1.2071850    7.3158130    0.3227550  
H     3.2916850    5.0814610   -1.4863840  
H     1.9033780    2.4434860   -1.5684100  
H    -3.0587270    5.7809840    2.4728590  
C     2.3549160   -1.5752310   -0.1884390  
C     3.3876640   -0.6621390   -0.3749620  
C     4.6149160   -1.3244210   -0.0711360  
C     4.2840130   -2.6550600    0.3016260  
N     2.9172570   -2.7743960    0.2287520  
C     5.2528150   -3.6010470    0.6625770  
C     6.5775100   -3.1962330    0.6464430  
O     7.5628090   -4.0755930    0.9888190  
C     6.9273260   -1.8673520    0.2762670  
O     8.2874180   -1.6218600    0.3118780  
C     5.9717610   -0.9362680   -0.0788280  
H     3.2969050    0.3456410   -0.7531560  
H     2.3788100   -3.6204440    0.3423610  
H     5.0051800   -4.6180240    0.9484220  
H     8.4093070   -3.6018780    0.9162460  
H     8.4563320   -0.7026340    0.0579110  
H     6.2636860    0.0744200   -0.3577270  
C    -3.8743710   -0.1809310   -2.0574250  
C    -5.2238710   -0.2869310   -2.0932250  
C    -5.6185890   -1.1249160   -0.9794310  
C    -4.3620920   -1.4910230   -0.2769460  
N    -3.3284730   -0.8941880   -0.9753410  
C    -4.3083410   -2.2688320    0.8434800  
C    -5.5604440   -2.7812810    1.3961470  
O    -5.6127350   -3.4623990    2.4082910  
C    -6.8970350   -2.4269590    0.6492170  
O    -7.9508180   -2.8713450    1.0742470  
C    -6.8243870   -1.5634040   -0.5358430  
H    -5.8847070    0.1627010   -2.8199940  
H    -3.3920360   -2.4483390    1.3988740  
H    -7.7585530   -1.3041310   -1.0251190  
H    -3.2007810    0.3436860   -2.7211450  
