60


C    -0.3691060    4.4450570   -0.0416880  
C    -0.8841590    3.1497480   -0.1157480  
C    -2.3316900    3.2896080   -0.0923410  
C    -2.6121210    4.6717310   -0.0024030  
N    -1.3916900    5.3390800    0.0248000  
C    -3.9090940    5.1907190    0.0521660  
C    -4.9556920    4.2806130    0.0162590  
O    -6.2412160    4.7231170    0.0677110  
C    -4.6944760    2.8869650   -0.0717420  
O    -5.8320980    2.1099610   -0.0989740  
C    -3.4071430    2.3836490   -0.1260790  
H    -1.2807990    6.3416040    0.0668760  
H    -4.1205270    6.2524950    0.1234830  
H    -6.8195250    3.9406560    0.0439630  
H    -5.5849660    1.1726730   -0.1015420  
H    -3.2187130    1.3175080   -0.1975890  
H     0.6590930    4.7776470   -0.0486870  
C    -0.1113240    1.9505730   -0.1996590  
C     1.2587900    1.7647680   -0.1302620  
C     1.4876300    0.3652600   -0.3051820  
C     0.1140460   -0.2022580   -0.4773320  
N    -0.8071760    0.7123180   -0.4069360  
C    -0.1139190   -1.6133050   -0.7177730  
C     0.9893590   -2.4069060   -0.7862270  
O     0.9511710   -3.7196800   -1.0138820  
C     2.3866030   -1.8725420   -0.5423860  
O     3.2716530   -2.7257660   -0.4988290  
C     2.6088240   -0.4299320   -0.3406200  
H     2.0156010    2.5284250   -0.0201340  
H     1.8923480   -4.0131530   -0.9463300  
C     4.4645100    1.9924380    2.8478670  
C     5.7472330    2.0035080    2.4041450  
C     5.7794240    1.2564760    1.1635890  
C     4.3881290    0.8047860    0.9186100  
N     3.6454520    1.2729930    1.9823240  
C     3.9848880    0.0389840   -0.1435200  
C     5.0187380   -0.2846790   -1.1529750  
O     4.7543810   -0.8197310   -2.2149690  
C     6.5070080    0.1340970   -0.8742120  
O     7.3701420   -0.2149510   -1.6635830  
C     6.7928240    0.9339590    0.3153970  
H     6.5920520    2.4706770    2.8886700  
H     7.8219680    1.2326700    0.4896400  
H     4.0409670    2.4372060    3.7387210  
H     2.6399770    1.2080290    2.0430500  
C    -2.3781590   -1.5381560   -1.7416670  
C    -3.5776730   -2.1622630   -1.6381890  
C    -3.4469930   -3.1892640   -0.6281510  
C    -2.0462510   -3.1133310   -0.1421200  
N    -1.4314890   -2.0940480   -0.8718770  
C    -1.5425620   -3.8923670    0.8463780  
C    -2.4196090   -4.8850540    1.4654720  
O    -2.0517590   -5.6207100    2.3686510  
C    -3.8982040   -5.0008060    0.9457950  
O    -4.6402740   -5.8309320    1.4480940  
C    -4.3267330   -4.0907860   -0.1172940  
H    -4.4628890   -1.9458930   -2.2191310  
H    -0.5200420   -3.8286630    1.1971780  
H    -5.3550980   -4.1629590   -0.4587330  
H    -2.0797200   -0.7195300   -2.3800010  
