64


C     1.2358830   -1.5661140    0.3899520  
C     0.5049540   -0.4621920   -0.0094510  
C     1.4764430    0.5617280   -0.3257630  
C     2.7628820    0.0107260   -0.0988720  
N     2.5804690   -1.2818950    0.3494550  
C     3.9705670    0.7314790   -0.2598670  
C     3.8041380    2.0591960   -0.6487670  
O     4.9119940    2.8710230   -0.8156130  
C     2.5301610    2.6315110   -0.8772570  
O     2.5822400    3.9610990   -1.2605120  
C     1.3667290    1.9065950   -0.7243400  
H     3.3291730   -1.9483130    0.4698590  
H     4.5822630    3.7398490   -1.1101610  
H     1.6893500    4.2678260   -1.4768580  
H     0.3972470    2.3532270   -0.9205730  
H     0.8910570   -2.5556100    0.6570580  
C    -2.4430110   -1.7505570    2.9656150  
C    -3.5823320   -1.4087810    2.2860610  
C    -3.1787300   -0.8181470    1.0420740  
C    -1.7602110   -0.8523900    1.0186130  
N    -1.3410690   -1.4286230    2.1991730  
C    -0.9628580   -0.3781700   -0.0456160  
C    -1.6791330    0.1365340   -1.1287480  
O    -1.0213610    0.6137330   -2.2265610  
C    -3.0955050    0.1609570   -1.1514270  
O    -3.6174650    0.7165460   -2.3051110  
C    -3.8799170   -0.2853570   -0.0782910  
H    -4.5917240   -1.5423690    2.6427870  
H    -0.3764390   -1.4727520    2.4897610  
H    -1.7291550    0.8601540   -2.8538250  
H    -4.3038740    0.1064270   -2.6504690  
H    -2.3224430   -2.2043780    3.9392070  
C     5.8368500   -3.1408570   -1.6032340  
C     5.0098410   -2.0570360   -1.4552260  
C     5.6425840   -1.1587060   -0.5223140  
C     6.8726650   -1.7628690   -0.1489210  
N     6.9561310   -2.9716510   -0.8108020  
C     7.7911440   -1.1584500    0.7175100  
C     7.4612820    0.0983640    1.1951830  
O     8.3119620    0.7645180    2.0242050  
C     6.2342480    0.7267430    0.8446950  
O     6.0546030    1.9592460    1.4390300  
C     5.2936410    0.1147040    0.0141350  
H     4.0765100   -1.9003460   -1.9766870  
H     7.7380390   -3.6055140   -0.7618470  
H     8.7336520   -1.6181770    0.9969630  
H     7.8786980    1.6217230    2.2013190  
H     5.7134580    2.5735610    0.7532050  
H     5.7264650   -4.0227350   -2.2184610  
C    -6.8214240    1.3670140    2.7876060  
C    -7.9955720    1.1239170    2.1644330  
C    -7.6305540    0.4732270    0.9089310  
C    -6.1362480    0.3811230    0.9618760  
N    -5.6761180    0.9155580    2.0528360  
C    -5.3512110   -0.2061720   -0.1314750  
C    -6.0908190   -0.6026700   -1.2089080  
O    -5.5366450   -1.1442730   -2.3345500  
C    -7.5692120   -0.5216220   -1.2908120  
O    -8.1161390   -0.9454640   -2.3152560  
C    -8.3262060    0.0426470   -0.1589880  
H    -8.9958590    1.3693700    2.4935060  
H    -6.3094570   -1.3473760   -2.9126710  
H    -9.4064890    0.0941290   -0.2563790  
H    -6.6562930    1.8479260    3.7441300  
