62


C    -4.3983330    0.3689380    0.0100090  
C    -5.4948430    1.1928760   -0.1177720  
C    -6.6745830    0.3850130   -0.0203980  
C    -6.2471400   -0.9513210    0.1736520  
N    -4.8551810   -0.9633750    0.1248500  
C    -7.1388460   -2.0128020    0.3472970  
C    -8.4952140   -1.7200800    0.3105170  
O    -9.4083890   -2.7170450    0.4770050  
C    -8.9433210   -0.3889790    0.0932440  
O   -10.3176010   -0.2639460    0.0708480  
C    -8.0562150    0.6579590   -0.0749150  
H    -5.4540140    2.2536420   -0.3217440  
H    -4.3163920   -1.6484290    0.6416050  
H    -6.8161660   -3.0371620    0.5025500  
H   -10.2921390   -2.3142960    0.4182930  
H   -10.5585990    0.6652250   -0.0589810  
H    -8.4214350    1.6702080   -0.2353260  
C    -1.9964770    3.8654670    1.4556930  
C    -3.0169160    2.9948170    1.1744160  
C    -2.4458450    1.8982290    0.4455590  
C    -1.0623170    2.1650570    0.3127100  
N    -0.8209330    3.3751170    0.9221170  
C    -0.1312480    1.2683390   -0.2743440  
C    -0.6806880    0.0616330   -0.7498580  
O     0.0885690   -0.8314380   -1.4186610  
C    -2.0626210   -0.2162660   -0.6301980  
O    -2.4223370   -1.4340160   -1.1827940  
C    -2.9734730    0.6730240   -0.0494410  
H    -4.0483090    3.1078150    1.4728360  
H     0.1033690    3.7464990    1.0839150  
H    -0.5048420   -1.5558930   -1.6898100  
H    -3.3875190   -1.4474840   -1.3191700  
H    -2.0069770    4.8055660    1.9885540  
C     1.2777640    1.5910250   -0.3687230  
C     1.8543130    2.8297370   -0.5358230  
C     3.2753380    2.6116080   -0.5246690  
C     3.4172720    1.1327890   -0.2980120  
N     2.2590760    0.5478400   -0.2219600  
C     4.7190430    0.4954020   -0.1772810  
C     5.7967980    1.3150600   -0.3543440  
O     7.0611610    0.8856230   -0.3471270  
C     5.6781810    2.7993600   -0.6154960  
O     6.7343180    3.4215460   -0.7584120  
C     4.3579540    3.4128740   -0.6808620  
H     1.3567700    3.7650870   -0.7535340  
H     7.6058770    1.6969610   -0.4750760  
H     4.3076780    4.4838130   -0.8508650  
C     3.2087090   -3.3270850   -1.9450360  
C     3.4462360   -2.0203280   -1.6736130  
C     4.3045270   -1.9685630   -0.5079210  
C     4.5493000   -3.3814300   -0.1178190  
N     3.8548550   -4.1526470   -1.0251750  
C     5.3320750   -3.7857470    0.9167740  
C     5.9749140   -2.7654340    1.7249820  
O     6.7177930   -3.0153610    2.6633220  
C     5.6945450   -1.2583670    1.3741670  
O     6.1288760   -0.4044760    2.1262480  
C     4.8815360   -0.9290840    0.1711290  
H     3.0248120   -1.1734000   -2.1896370  
H     5.5121750   -4.8290500    1.1575390  
H     2.6098740   -3.7672490   -2.7313950  
H     3.8594790   -5.1598360   -1.0437520  
