60


C     0.0000650    4.4978230   -0.6424010  
C     0.8974770    5.5069700   -0.5074790  
C     2.1472540    4.9305300   -0.0722610  
C     1.9550130    3.5354260    0.0416620  
N     0.6104410    3.2697250   -0.3260740  
C     2.9642690    2.6823490    0.4908860  
C     4.1994350    3.2484980    0.7908800  
O     5.2098710    2.4442720    1.2162690  
C     4.4116200    4.6423010    0.6624720  
O     5.6808110    5.0509670    0.9973800  
C     3.3955440    5.4869520    0.2399280  
H     0.7025990    6.5531280   -0.7014490  
H     2.8163460    1.6199120    0.6140000  
H     5.9872400    3.0046060    1.3846790  
H     5.7586790    6.0116630    0.8983800  
H     3.5650620    6.5582830    0.1592700  
H    -1.0265880    4.5166270   -0.9716140  
C    -0.0428470    2.0729350   -0.3875910  
C    -1.3995850    1.8485380   -0.5514710  
C    -1.5402030    0.4377300   -0.5443480  
C    -0.1431930   -0.0920490   -0.3942720  
N     0.7164470    0.8801500   -0.2901180  
C     0.1589880   -1.5220050   -0.3498940  
C    -0.9453010   -2.3332690   -0.3836140  
O    -0.8981900   -3.6706710   -0.3194840  
C    -2.3646370   -1.8394810   -0.5464550  
O    -3.2278320   -2.7193780   -0.6373660  
C    -2.6209850   -0.4088420   -0.6083180  
H    -2.1949820    2.5763950   -0.5874020  
H    -1.8429460   -3.9575210   -0.4124990  
C    -4.2828480    0.9285510   -1.8764950  
C    -5.6026430    1.2296370   -1.8504330  
C    -6.1862280    0.5306130   -0.7252310  
C    -5.0792880   -0.2204670   -0.0846110  
N    -3.9308810    0.0485940   -0.8406180  
C    -5.2184730   -0.9594170    1.0416880  
C    -6.5464250   -1.0610610    1.6493810  
O    -6.7591050   -1.7069980    2.6630670  
C    -7.7384360   -0.3006540    0.9659080  
O    -8.8535240   -0.3809860    1.4556300  
C    -7.4517530    0.4906940   -0.2334740  
H    -6.1279400    1.8633030   -2.5505310  
H    -4.4054750   -1.4982650    1.5128900  
H    -8.2735950    1.0365400   -0.6868040  
H    -3.5159610    1.2445420   -2.5704890  
C     1.5241400   -2.0147350   -0.2626760  
C     2.7100780   -1.3276220   -0.3797590  
C     3.7857040   -2.2703890   -0.2367930  
C     3.1519220   -3.5952180   -0.0276510  
N     1.7941830   -3.3740230   -0.0468110  
C     3.8392860   -4.7543170    0.1425750  
C     5.2973010   -4.7054820    0.1235660  
O     6.0008900   -5.6948170    0.2650680  
C     5.9909330   -3.3084920   -0.0888170  
O     7.2115550   -3.2499650   -0.1041370  
C     5.1406320   -2.1295190   -0.2618280  
H     2.8038620   -0.2710510   -0.5617950  
H     3.3596510   -5.7164070    0.2940530  
H     5.6263710   -1.1685180   -0.4017860  
H     1.0796620   -4.0829200    0.0165910  
