62


C    -2.3299950   -0.4864780    0.8009770  
C    -1.4147470    0.3464880    0.1911250  
C    -2.1646910    1.4820660   -0.3173650  
C    -3.5224670    1.2779120    0.0196030  
N    -3.5928020    0.0657700    0.7032100  
C    -4.5468040    2.1617840   -0.3260780  
C    -4.1886090    3.2915450   -1.0464150  
O    -5.1399650    4.1935270   -1.4104530  
C    -2.8346070    3.5117980   -1.4178430  
O    -2.6412700    4.6672960   -2.1450280  
C    -1.8301340    2.6265440   -1.0695350  
H    -5.5836890    1.9870090   -0.0625030  
H    -4.6985980    4.8947070   -1.9206120  
H    -1.7105280    4.7435310   -2.4025290  
H    -0.8067410    2.8105280   -1.3869660  
H    -2.1862010   -1.4160940    1.3317340  
C     0.6339600   -1.1126690   -0.1431810  
C     0.0092090    0.0732280    0.0944250  
C     1.1224290    1.0199050    0.3349070  
C     2.3556960    0.2009550    0.1752930  
N     2.0518250   -1.0359120   -0.0930350  
C     3.6951820    0.7757920    0.3331230  
C     3.7229630    2.1038190    0.6846690  
O     4.8561770    2.8150600    0.8790650  
C     2.4982470    2.9239600    0.8922280  
O     2.6529060    4.1092340    1.2029490  
C     1.1730440    2.3107900    0.7092450  
H     4.5452340    3.7200970    1.1191190  
H     0.3020410    2.9360660    0.8770350  
H     0.1743930   -2.0656190   -0.3737040  
C     4.8914410   -0.0252260    0.1370790  
C     5.0033220   -1.3502530   -0.2185770  
C     6.4021360   -1.6728180   -0.2850930  
C     7.1345710   -0.4286600    0.0602270  
N     6.1731710    0.5223010    0.3029790  
C     8.4887120   -0.3252170    0.1065480  
C     9.2869640   -1.5059800   -0.2000690  
O    10.5094110   -1.5105720   -0.1845560  
C     8.5316060   -2.8367880   -0.5684650  
O     9.1845540   -3.8366010   -0.8284700  
C     7.0675060   -2.8237160   -0.5852080  
H     4.1726060   -2.0111880   -0.4038070  
H     9.0080140    0.5936050    0.3609710  
H     6.5561020   -3.7469020   -0.8405930  
H     6.3388470    1.4832790    0.5613060  
C    -5.2333850   -0.2149360    2.5054660  
C    -6.3841330   -0.9283220    2.6814870  
C    -6.6230810   -1.6764240    1.4747600  
C    -5.5715180   -1.3786330    0.5752520  
N    -4.7303980   -0.4833470    1.2310990  
C    -5.4749490   -1.9289520   -0.7057260  
C    -6.4749590   -2.8100220   -1.0896090  
O    -6.4377570   -3.3803870   -2.3269940  
C    -7.5413340   -3.1267850   -0.2051720  
O    -8.4539450   -4.0183870   -0.7338750  
C    -7.6257780   -2.5752810    1.0599110  
H    -6.9976650   -0.9256230    3.5720630  
H    -4.6677770   -1.6915230   -1.3896570  
H    -7.2188800   -3.9550580   -2.4046270  
H    -9.1587710   -4.1830570   -0.0902740  
H    -8.4519550   -2.8328350    1.7196240  
H    -4.7046690    0.4675060    3.1546240  
