62


C     4.5945560   -1.4972090   -2.4357320  
C     4.5106370   -0.9511760   -1.1753260  
C     5.7437930   -1.2400510   -0.4895310  
C     6.5428640   -1.9733970   -1.4011640  
N     5.8141050   -2.1226480   -2.5670020  
C     7.8270600   -2.4302570   -1.0776140  
C     8.3083670   -2.1379780    0.1881540  
O     9.5534100   -2.5526030    0.5536120  
C     7.5158720   -1.4052160    1.1155840  
O     8.1345320   -1.2025540    2.3317840  
C     6.2483750   -0.9585250    0.7959080  
H     6.1359480   -2.5949230   -3.3973550  
H     8.4464200   -2.9884740   -1.7720590  
H     9.7123050   -2.2300730    1.4578390  
H     7.5989320   -0.6068610    2.8767360  
H     5.6590210   -0.3991880    1.5181550  
H     3.8775870   -1.4820310   -3.2438150  
C     2.1148450   -0.8237760   -0.4814100  
C     1.2194260    0.0708370    0.0270780  
C     1.9591190    1.3150860    0.2134780  
C     3.3457950    1.0564370   -0.2469030  
N     3.3894750   -0.2722950   -0.6477540  
C     4.3376200    1.9848480   -0.2536090  
C     4.0396530    3.3230330    0.2454920  
O     4.8663990    4.2230090    0.2810140  
C     2.5839830    3.6113720    0.7668860  
O     2.3157240    4.7257460    1.1902430  
C     1.6003800    2.5268400    0.7149060  
H     5.3412090    1.7735420   -0.6061270  
H     0.5998760    2.7335210    1.0806700  
H     1.9568480   -1.8578760   -0.7578260  
C    -0.6581680   -1.2834020    1.0473180  
C    -0.1817750   -0.1891260    0.3580660  
C    -1.3411760    0.6036020    0.0103690  
C    -2.4786050   -0.0650630    0.5253980  
N    -2.0293210   -1.2071440    1.1547740  
C    -3.8076290    0.3914180    0.3484330  
C    -3.9418620    1.5737510   -0.3882050  
O    -5.1779860    2.1171720   -0.5918120  
C    -2.8130940    2.2494140   -0.9174530  
O    -3.1377600    3.3946100   -1.6207740  
C    -1.5251140    1.7855890   -0.7336450  
H    -2.6300170   -1.9079400    1.5610830  
H    -5.0417350    2.9587610   -1.0633180  
H    -2.3395320    3.9227320   -1.7709200  
H    -0.6799140    2.3192890   -1.1599050  
H    -0.1125780   -2.0988180    1.5010090  
C    -5.0096660   -0.9258970    2.1580340  
C    -4.9428860   -0.3284300    0.9322610  
C    -6.2481930   -0.6572630    0.3119380  
C    -6.9548580   -1.4637060    1.3472460  
N    -6.2272050   -1.6108020    2.4199960  
C    -8.2768560   -1.9906150    1.1268740  
C    -8.8628480   -1.7514800   -0.0703510  
O   -10.0867930   -2.1865890   -0.4158900  
C    -8.1671780   -0.9599560   -1.1406180  
O    -8.7610380   -0.7874260   -2.2043060  
C    -6.8142820   -0.4189240   -0.8852420  
H    -8.7664310   -2.5654290    1.9052570  
H   -10.2296630   -1.8574570   -1.3304500  
H    -6.3579740    0.1711770   -1.6711000  
H    -4.2605110   -0.8953500    2.9413470  
