66


C     5.3453910    2.1404100   -0.8898270  
C     6.6162520    2.1168410   -1.3965740  
C     7.1976290    0.8576270   -1.0248280  
C     6.2182710    0.1490900   -0.2828490  
N     5.0843240    0.9529050   -0.2060960  
C     6.4373650   -1.1383580    0.2210000  
C     7.6736720   -1.7161080   -0.0191740  
O     7.9437760   -2.9692940    0.4547020  
C     8.6699440   -1.0195720   -0.7533300  
O     9.8489370   -1.7276380   -0.9083590  
C     8.4474090    0.2487280   -1.2554280  
H     7.0906580    2.9125590   -1.9550910  
H     5.6910810   -1.6776450    0.7922000  
H     8.8568070   -3.1816570    0.1958070  
H    10.4939330   -1.1774840   -1.3764660  
H     9.2236360    0.7620190   -1.8201660  
H     4.5932500    2.9166480   -0.9137790  
C     1.2292430    0.5157790   -2.1588390  
C     0.4982940    0.2109320   -1.0338930  
C     1.4052380    0.2098560    0.0855550  
C     2.6796500    0.5275330   -0.4396390  
N     2.5482290    0.7000130   -1.8006510  
C     3.8323580    0.6111400    0.3639010  
C     3.6791590    0.3619430    1.7259920  
O     4.7511710    0.4435370    2.5582640  
C     2.4033930    0.0203690    2.2538940  
O     2.4226960   -0.2099240    3.6150810  
C     1.2736070   -0.0552540    1.4630570  
H     3.3100100    0.9131570   -2.4266750  
H     4.4327000    0.2410270    3.4555710  
H     1.5172670   -0.3346730    3.9362130  
H     0.3091500   -0.3141300    1.8919130  
H     0.9037210    0.6182870   -3.1836700  
C    -1.4928780   -1.1222850   -1.7100690  
C    -2.8386570   -1.1266310   -1.4627010  
C    -3.1013160   -0.0518300   -0.5482750  
C    -1.8590220    0.5806460   -0.2824990  
N    -0.8788100   -0.0926700   -1.0034640  
C    -1.7387170    1.7019000    0.5490320  
C    -2.8964650    2.1791150    1.1420880  
O    -2.8409010    3.2565720    1.9808030  
C    -4.1486860    1.5592250    0.8946210  
O    -5.2042510    2.1397780    1.5675990  
C    -4.2832930    0.4529450    0.0531980  
H    -3.5608650   -1.8205060   -1.8679590  
H    -0.7900370    2.1907280    0.7394170  
H    -3.7449940    3.4076200    2.3074670  
H    -5.9908800    1.5790520    1.4495970  
H    -0.8875700   -1.7775240   -2.3201440  
C    -6.0338000   -3.6044880    0.9969600  
C    -5.1942880   -2.5281890    0.8747790  
C    -5.9338800   -1.4883050    0.2161290  
C    -7.2345870   -2.0000510   -0.0363500  
N    -7.2660190   -3.2907580    0.4511070  
C    -8.2400160   -1.2522610   -0.6625950  
C    -7.9230390    0.0400990   -1.0472160  
O    -8.8552410    0.8146140   -1.6764980  
C    -6.6314680    0.5747660   -0.7996900  
O    -6.4661410    1.8685490   -1.2515290  
C    -5.6235240   -0.1582530   -0.1708120  
H    -4.1668430   -2.4788110    1.2047650  
H    -8.0606520   -3.9090040    0.4096830  
H    -9.2326980   -1.6442420   -0.8597870  
H    -8.4201300    1.6562250   -1.8989760  
H    -5.5222960    2.0978910   -1.1897460  
H    -5.8591150   -4.5796650    1.4293670  
