60


C    -3.1361770    3.1230740   -2.2308950  
C    -3.7598770    4.0329090   -1.4202530  
C    -4.4998810    3.2894090   -0.4393530  
C    -4.2790060    1.9137420   -0.7071330  
N    -3.4296680    1.8412810   -1.7951180  
C    -4.8723790    0.8734640    0.0403260  
C    -5.7055690    1.2681610    1.0906660  
O    -6.2721200    0.3241530    1.8905480  
C    -5.9326870    2.6393930    1.3719600  
O    -6.7693190    2.8510010    2.4528180  
C    -5.3441810    3.6456670    0.6298120  
H    -3.6965230    5.1089700   -1.5056220  
H    -3.2096610    0.9946980   -2.2962500  
H    -6.8828480    0.7849670    2.4918890  
H    -6.9953020    3.7912310    2.5062760  
H    -5.5324750    4.6900640    0.8704060  
H    -2.4872050    3.2750060   -3.0816000  
C    -1.1700730   -1.5026210   -0.0857240  
C    -1.7198770   -2.7321940   -0.4150430  
C    -3.1398020   -2.5646250   -0.5416610  
C    -3.4106600   -1.1371080   -0.2628440  
N    -2.1827410   -0.5566920    0.0012910  
C    -4.6462190   -0.5558840   -0.2552520  
C    -5.7865280   -1.4367340   -0.6100520  
O    -6.9209890   -1.0203410   -0.7546770  
C    -5.5195620   -2.9674480   -0.8585650  
O    -6.4736290   -3.7018470   -1.0712970  
C    -4.1427640   -3.4453980   -0.8281240  
H    -1.1790040   -3.6355940   -0.6560150  
H    -3.9646150   -4.4996490   -1.0172530  
H    -1.9997930    0.4276720    0.1517290  
C     2.2584030   -3.9470970    1.1186830  
C     3.2503350   -3.0211840    0.9936760  
C     2.6408970   -1.7852040    0.5792620  
C     1.2019280   -2.0631770    0.4656080  
N     1.0382910   -3.3967560    0.7596110  
C     0.2169070   -1.1483720    0.1373750  
C     0.6621530    0.2485660    0.0808270  
O    -0.0978520    1.2020490   -0.0164130  
C     2.1968540    0.5714890    0.1624990  
O     2.5046800    1.7549500    0.1072380  
C     3.1712690   -0.5253970    0.3191180  
H     4.2908620   -3.1798390    1.2254340  
H     2.3141180   -4.9774560    1.4424950  
H     0.1354780   -3.8112170    0.9458330  
C     4.5887300   -0.2504950    0.2211640  
C     5.6385930   -1.1238800   -0.0108530  
C     6.8480430   -0.3580430   -0.0782740  
C     6.4525510    1.0570800    0.1272150  
N     5.0881880    1.0494200    0.3130200  
C     7.3205430    2.1005150    0.1199300  
C     8.7380440    1.8255530   -0.0988210  
O     9.5915470    2.6989930   -0.1211290  
C     9.1802390    0.3317770   -0.3150750  
O    10.3621530    0.0812530   -0.4977350  
C     8.1499500   -0.7080430   -0.2893270  
H     5.5602670   -2.1847910   -0.1878660  
H     7.0144560    3.1310950    0.2693400  
H     8.4653430   -1.7357880   -0.4425760  
H     4.4714600    1.8507950    0.3520840  
