62


C     4.1982380    1.3918020    0.1784480  
C     2.9604990    0.9929060   -0.2974310  
C     2.0686020    2.1036950   -0.1879980  
C     2.8123290    3.1730370    0.3804780  
N     4.1040750    2.7223480    0.5635540  
C     2.2545100    4.4164620    0.6776090  
C     0.9069780    4.6031250    0.3936810  
O     0.3255220    5.8100090    0.6507100  
C     0.1369410    3.5646340   -0.1739510  
O    -1.1721640    3.9207150   -0.4279530  
C     0.6879280    2.3060350   -0.4802500  
H     2.7443310    0.0214460   -0.7140990  
H     4.8054900    3.1935630    1.1146380  
H     2.8277960    5.2330640    1.1045790  
H    -0.5922870    5.7599390    0.3318410  
H    -1.5838760    3.2316890   -0.9819270  
C    -0.1180930    1.2641620   -1.0908470  
C     0.2145130    0.2915770   -1.9950290  
C    -0.9512890   -0.4995550   -2.2819700  
C    -2.0391480    0.0654220   -1.4609570  
N    -1.5192060    1.2007470   -0.8216830  
C    -3.2935320   -0.4562610   -1.3423820  
C    -3.5834550   -1.6482450   -2.1780210  
O    -4.6775660   -2.1855310   -2.1889860  
C    -2.4529850   -2.2262770   -3.1059480  
O    -2.7128160   -3.2115550   -3.7819180  
C    -1.1522140   -1.5773660   -3.0936760  
H     1.1815950    0.1781740   -2.4627080  
H    -0.3667800   -1.9989290   -3.7130310  
H    -1.8459170    1.4005480    0.1206190  
C    -4.6763950    1.4534970   -0.4297000  
C    -4.3398180    0.1301980   -0.4944030  
C    -5.2138400   -0.5575340    0.4639680  
C    -6.0681920    0.4893570    1.0759040  
N    -5.6870640    1.6823180    0.4905900  
C    -7.0152960    0.2656590    2.0218780  
C    -7.2088530   -1.0998400    2.4974140  
O    -8.0318570   -1.4019770    3.3480620  
C    -6.2977260   -2.2240370    1.8845360  
O    -6.4180380   -3.3688480    2.2886350  
C    -5.3230690   -1.8535230    0.8486040  
H    -7.6304550    1.0523390    2.4479420  
H    -4.7332380   -2.6499600    0.4106550  
H    -4.2768890    2.2794990   -1.0031520  
H    -6.1303860    2.5723380    0.6566970  
C     6.7175040    1.2130580    0.1933160  
C     5.4499500    0.6676450    0.2793160  
C     5.6300560   -0.7532220    0.4866450  
C     7.0250940   -0.9968710    0.5119800  
N     7.6586820    0.2197890    0.3372160  
C     7.5696050   -2.2725150    0.7041350  
C     6.6843920   -3.3242230    0.8786570  
O     7.1589210   -4.5879270    1.0653210  
C     5.2811920   -3.0968340    0.8731830  
O     4.5350230   -4.2400340    1.0759800  
C     4.7492750   -1.8349360    0.6845250  
H     8.6559110    0.3526380    0.2735930  
H     8.6380130   -2.4613150    0.7229720  
H     6.3894190   -5.1736490    1.1723470  
H     3.5911650   -4.0227310    1.0602430  
H     3.6731530   -1.6823880    0.7058980  
H     7.0191390    2.2323150   -0.0039090  
