62


C     4.9007500   -1.4983900   -2.5810550  
C     4.4426910   -0.9511170   -1.3964740  
C     5.6156040   -0.7379330   -0.5707080  
C     6.7375250   -1.1744320   -1.3191500  
N     6.2669960   -1.6341990   -2.5360160  
C     8.0462330   -1.1337400   -0.8245080  
C     8.2294170   -0.6477160    0.4605170  
O     9.4835720   -0.5812360    0.9905090  
C     7.1171880   -0.2254040    1.2364330  
O     7.4571500    0.2142910    2.5004260  
C     5.8262370   -0.2701800    0.7426790  
H     6.8425230   -1.9682100   -3.2934820  
H     8.9039550   -1.4676920   -1.3993300  
H     9.3981890   -0.2241550    1.8914440  
H     6.6605970    0.4985990    2.9726470  
H     4.9926090    0.0405460    1.3676040  
H     4.3429180   -1.7675670   -3.4666590  
C     1.9522740   -1.4377640   -1.4029820  
C     3.0462700   -0.6893990   -1.0921730  
C     2.4760870    0.5167890   -0.4475040  
C     1.0049200    0.2924960   -0.4532840  
N     0.7177700   -0.8425150   -1.0267560  
C     0.0556320    1.2650930    0.0986170  
C     0.6250520    2.4034080    0.6094290  
O    -0.0721250    3.3914540    1.2200410  
C     2.0842990    2.6666760    0.5833560  
O     2.4947580    3.7200660    1.0857900  
C     3.0032900    1.6674240    0.0028780  
H     0.6173390    4.0404380    1.4892930  
H     4.0617060    1.9073520   -0.0100060  
H     1.9348270   -2.4109790   -1.8782450  
C    -1.8970930   -0.2971540    0.1682940  
C    -1.3780940    0.9754980    0.0905400  
C    -2.5213420    1.8712880   -0.0454640  
C    -3.6869520    1.0701750   -0.0551090  
N    -3.2803420   -0.2723250    0.0798080  
C    -4.9737690    1.6077590   -0.1275850  
C    -5.0909010    2.9842170   -0.2502080  
O    -6.3267750    3.5539790   -0.3350800  
C    -3.9348330    3.7989000   -0.2892590  
O    -4.2002120    5.1465690   -0.4236640  
C    -2.6630610    3.2625850   -0.1901940  
H    -5.8701990    1.0022520   -0.1210010  
H    -6.1964020    4.5146310   -0.4146400  
H    -3.3672290    5.6410700   -0.4138210  
H    -1.7945160    3.9104950   -0.1822040  
H    -1.3783060   -1.2397650    0.2130820  
C    -3.2499290   -3.7359940    2.8170300  
C    -2.9320510   -2.5384470    2.2654130  
C    -3.8451620   -2.3882700    1.1373900  
C    -4.6588540   -3.6303560    1.1629780  
N    -4.3105940   -4.4140270    2.1475250  
C    -5.7129820   -3.8784940    0.2109140  
C    -5.9510520   -2.9360780   -0.7277740  
O    -6.9057440   -3.0326900   -1.6717490  
C    -5.1429500   -1.6733540   -0.8088830  
O    -5.3716360   -0.9126860   -1.7436000  
C    -4.0732100   -1.4163030    0.2122790  
H    -2.1861270   -1.8291110    2.5930110  
H    -6.2867290   -4.7968460    0.2658350  
H    -6.8071870   -2.2324580   -2.2309970  
H    -2.8040830   -4.2058190    3.6855590  
