60


C     5.3113450    0.3652980    0.0250240  
C     5.5996120   -0.9741470   -0.2435680  
C     7.0092320   -1.1097830   -0.2875430  
C     7.5641880    0.1815550   -0.0386340  
N     6.5205590    1.0481370    0.1462660  
C     8.9445890    0.4150810   -0.0098680  
C     9.7780440   -0.6686770   -0.2355000  
O    11.1277660   -0.5018040   -0.2200770  
C     9.2418260   -1.9683420   -0.4862560  
O    10.2112340   -2.9307980   -0.6893590  
C     7.8844670   -2.1982710   -0.5142270  
H     4.8554220   -1.7407450   -0.3859620  
H     6.5792210    2.0383250    0.3350490  
H     9.3741570    1.3934280    0.1777530  
H    11.5300290   -1.3694430   -0.4008920  
H     9.7890310   -3.7845260   -0.8659910  
H     7.4947480   -3.1955740   -0.7072150  
C     1.2508100   -1.2152370   -0.1703590  
C     0.4661760   -0.1023350    0.0260560  
C     1.4528410    0.9927240    0.1776080  
C     2.7730540    0.3201420    0.0543090  
N     2.6258830   -0.9641880   -0.1606590  
C     4.0433760    1.0429100    0.1695810  
C     3.9208010    2.3900960    0.4299620  
O     4.9862020    3.2233670    0.5767410  
C     2.6324680    3.0750750    0.5792690  
O     2.6372150    4.2901550    0.8250100  
C     1.3740370    2.3114060    0.4352790  
H     4.5813570    4.1041110    0.7542800  
H     0.4461920    2.8612900    0.5229770  
H     0.9085140   -2.2218700   -0.3762760  
C    -2.4696210   -2.9949270    1.6403730  
C    -1.3360950   -2.3144070    1.3258720  
C    -1.7262010   -1.1455700    0.5688090  
C    -3.1911470   -1.2030460    0.4619360  
N    -3.5781210   -2.3591980    1.0940540  
C    -4.0118210   -0.2550580   -0.1249200  
C    -3.3132150    0.8992750   -0.7169460  
O    -3.8440930    1.7342010   -1.4229150  
C    -1.7637440    1.0488220   -0.4849860  
O    -1.2595840    2.1147940   -0.7910850  
C    -0.9819130   -0.0937400    0.0578440  
H    -0.3336790   -2.5777900    1.6244830  
H    -2.5951710   -3.9006960    2.2177150  
H    -4.5440120   -2.5655640    1.3092470  
C    -5.4491740   -0.3788900   -0.1770610  
C    -6.2145630   -1.5268010   -0.2321350  
C    -7.5852700   -1.0858610   -0.2266220  
C    -7.4864260    0.4070470   -0.1293630  
N    -6.2512480    0.8134200   -0.1086500  
C    -8.6629960    1.2356310   -0.0667280  
C    -9.8670180    0.6200930   -0.1297010  
O   -11.0449200    1.2579780   -0.0935940  
C    -9.9977690   -0.8827290   -0.2499730  
O   -11.1412590   -1.3415820   -0.2967410  
C    -8.7898400   -1.7065000   -0.2928090  
H    -5.8766860   -2.5409510   -0.3994390  
H    -8.5653500    2.3124610    0.0127540  
H   -11.7219050    0.5463890   -0.1598790  
H    -8.9221910   -2.7815250   -0.3678700  
