64


C     0.9356570    1.1374600   -1.3552270  
C     2.1703610    0.6673100   -0.9790970  
C     2.5180040    1.3774660    0.2319070  
C     1.4473150    2.2556570    0.5336750  
N     0.4828270    2.1032220   -0.4595010  
C     1.4515900    3.0919130    1.6615830  
C     2.5705500    3.0524360    2.4827660  
O     2.6240120    3.8428680    3.5935410  
C     3.6604990    2.1955410    2.1802790  
O     4.7031070    2.2772320    3.0840370  
C     3.6446380    1.3629960    1.0756880  
H     0.6135810    3.7272550    1.9281530  
H     3.4739210    3.6647240    4.0321050  
H     5.4052880    1.6633740    2.8222400  
H     4.4861480    0.7078920    0.8622660  
H     0.3230950    0.8655380   -2.2026650  
C    -3.7097450    0.6167820   -0.5455410  
C    -2.3344800    0.7025840   -0.4663720  
C    -1.9820950    2.0857890   -0.5715800  
C    -3.1883720    2.8188280   -0.7103690  
N    -4.2225830    1.9009670   -0.7277470  
C    -3.2259810    4.2149870   -0.7861760  
C    -2.0128900    4.8862370   -0.7380580  
O    -1.9849010    6.2463170   -0.8073210  
C    -0.7851170    4.1790800   -0.6364400  
O     0.3310910    4.9830310   -0.6543400  
C    -0.7567700    2.7901800   -0.5534110  
H    -1.6515240   -0.1312560   -0.3989470  
H    -5.1908830    2.1396220   -0.5740950  
H    -4.1488620    4.7788340   -0.8725720  
H    -1.0521050    6.5155390   -0.7310190  
H     1.1041030    4.4864630   -0.3348020  
C     3.3169620   -0.3163500   -3.0184680  
C     2.9788200   -0.3311310   -1.6840640  
C     3.5698460   -1.5306620   -1.1315480  
C     4.2530980   -2.1901280   -2.1851870  
N     4.0773310   -1.4291790   -3.3239080  
C     4.9319570   -3.4021120   -2.0048340  
C     4.9115950   -3.9638910   -0.7374860  
O     5.5511270   -5.1477720   -0.5052510  
C     4.2217290   -3.3242740    0.3264870  
O     4.2912350   -4.0067920    1.5296070  
C     3.5571900   -2.1255100    0.1460800  
H     4.4633390   -1.6392490   -4.2306040  
H     5.4507620   -3.9130830   -2.8097260  
H     5.3662920   -5.3913500    0.4186860  
H     3.6056760   -3.6736020    2.1275860  
H     3.0304180   -1.6557200    0.9735150  
H     3.0876740    0.4217530   -3.7742090  
C    -5.7946560   -0.6799200   -1.1339600  
C    -4.5836500   -0.5400730   -0.5152370  
C    -4.3440920   -1.7940850    0.2019950  
C    -5.5159770   -2.6638770   -0.0682980  
N    -6.3643050   -1.9201090   -0.8618570  
C    -5.6641700   -3.9269350    0.4081500  
C    -4.6149160   -4.4758120    1.2597100  
O    -4.6544710   -5.6030260    1.7295180  
C    -3.3811010   -3.5587600    1.5894920  
O    -2.4997200   -3.9880050    2.3161380  
C    -3.3342740   -2.2115290    1.0059580  
H    -6.5296860   -4.5468030    0.1950210  
H    -2.4827320   -1.5865470    1.2517380  
H    -6.3100440    0.0158620   -1.7828340  
H    -7.2183470   -2.2655540   -1.2706710  
