66


C     0.0799340    0.7585470   -1.7786790  
C     1.3539800    0.3805340   -1.4537410  
C     1.7233820    1.1040840   -0.2694920  
C     0.6134390    1.9109810    0.0850260  
N    -0.3881190    1.6907910   -0.8558880  
C     0.5937930    2.7248850    1.2224240  
C     1.7301590    2.7289350    2.0148700  
O     1.7806010    3.5177420    3.1287630  
C     2.8562810    1.9353530    1.6831960  
O     3.9096900    2.0707600    2.5695530  
C     2.8848690    1.1156420    0.5502840  
H     1.9584110   -0.3355840   -1.9908130  
H    -0.2544590    3.3456770    1.4851920  
H     2.6729590    3.4157880    3.5037230  
H     4.7061550    1.6706400    2.1752060  
H    -0.5472360    0.4699610   -2.6102140  
C    -4.2544730   -0.2809870   -0.3134590  
C    -5.0208500    0.8537530   -0.4476360  
C    -4.1411550    1.9633950   -0.6857790  
C    -2.8257220    1.4457410   -0.6912600  
N    -2.9037670    0.0693780   -0.5234650  
C    -1.6899200    2.2533280   -0.8594780  
C    -1.8991140    3.6222370   -1.0389990  
O    -0.8375370    4.4544530   -1.2132400  
C    -3.2167260    4.1484200   -1.0422520  
O    -3.2587340    5.5153590   -1.2349670  
C    -4.3312250    3.3454160   -0.8772710  
H    -6.1013160    0.8794890   -0.4303840  
H    -2.1445080   -0.4541480   -0.1033730  
H    -1.1917650    5.3564220   -1.3033610  
H    -4.1788460    5.8173790   -1.2206310  
H    -5.3285960    3.7797670   -0.8814740  
C    -7.4565600   -2.1406030    2.2223260  
C    -6.6145420   -1.2506250    1.6071620  
C    -5.7282930   -2.0119230    0.7719690  
C    -6.0832260   -3.3769400    0.9323300  
N    -7.1428260   -3.4236500    1.8154040  
C    -5.4117280   -4.4224930    0.2876610  
C    -4.3555850   -4.0801490   -0.5409690  
O    -3.6714550   -5.0543940   -1.2093320  
C    -3.9775920   -2.7257070   -0.7195770  
O    -2.9164210   -2.5616120   -1.5912340  
C    -4.6416600   -1.6732960   -0.0811260  
H    -6.6130650   -0.1799060    1.7477880  
H    -7.6014700   -4.2646300    2.1279730  
H    -5.6851760   -5.4656390    0.4090280  
H    -3.0054340   -4.6043560   -1.7581300  
H    -2.8366970   -1.6185820   -1.8206240  
H    -8.2602670   -1.9684180    2.9242780  
C     4.0743670    0.3326590    0.2124310  
C     4.6588060    0.0618520   -1.0024550  
C     5.8295160   -0.7362400   -0.7679220  
C     5.9243280   -0.9316350    0.6312210  
N     4.8838980   -0.2221780    1.2282620  
C     6.9358560   -1.6931730    1.2219320  
C     7.8818180   -2.2640170    0.3810330  
O     8.8886860   -3.0218860    0.9059300  
C     7.8157290   -2.0614410   -1.0215590  
O     8.8325910   -2.6811800   -1.7236700  
C     6.8106400   -1.3072350   -1.6013110  
H     4.3177210    0.4438400   -1.9545960  
H     4.4752190   -0.5199920    2.1059040  
H     7.0089280   -1.8488650    2.2935270  
H     9.4383340   -3.3236760    0.1623360  
H     8.7174100   -2.5161480   -2.6710380  
H     6.7788630   -1.1690980   -2.6803290  
