62


C     4.5388010   -0.0511670   -0.0365330  
C     5.1657380   -1.1666680   -0.5430560  
C     6.5820400   -0.9500710   -0.4813750  
C     6.7809400    0.3327300    0.0828650  
N     5.5267820    0.9065370    0.2911750  
C     8.0499860    0.8627670    0.3278330  
C     9.1451340    0.0835410   -0.0193270  
O    10.4050100    0.5509600    0.1994420  
C     8.9652560   -1.1969920   -0.6093600  
O    10.1487530   -1.8398400   -0.9073650  
C     7.7063630   -1.7175000   -0.8456990  
H     4.6620110   -2.0211390   -0.9731540  
H     5.3738110    1.5571270    1.0532190  
H     8.2077520    1.8435230    0.7645500  
H    11.0267680   -0.1284850   -0.1144990  
H     9.9615840   -2.7019890   -1.3074260  
H     7.5915310   -2.7020340   -1.2941530  
C     0.9805370   -2.5492410    1.0245460  
C     2.2507000   -2.1094840    0.7661570  
C     2.1494550   -0.7273960    0.3922590  
C     0.7744420   -0.3844530    0.4370370  
N     0.0860570   -1.5175990    0.8101640  
C     0.2831420    0.9231430    0.1806120  
C     1.2724590    1.8878030   -0.0742780  
O     0.9205140    3.1852270   -0.3294380  
C     2.6439380    1.5632500   -0.1253120  
O     3.4480890    2.6451440   -0.4310980  
C     3.1195730    0.2643980    0.0840560  
H     3.1562960   -2.6904880    0.8539200  
H    -0.8923310   -1.5369800    1.0566430  
H     1.7414160    3.6600120   -0.5583060  
H     4.3280080    2.3212360   -0.7013630  
H     0.6282940   -3.5210630    1.3397000  
C    -1.1365820    1.2285850    0.1782900  
C    -2.2117060    0.3778720    0.0131830  
C    -3.4169960    1.1481460    0.1040490  
C    -2.9870820    2.5494360    0.3178700  
N    -1.6109400    2.5254060    0.3842010  
C    -3.8289010    3.6114800    0.4050270  
C    -5.2604490    3.3677870    0.2898110  
O    -6.0948630    4.2597580    0.3229280  
C    -5.7517660    1.8833730    0.1373860  
O    -6.9487880    1.6584900    0.1965560  
C    -4.7448090    0.8063360    0.0003440  
H    -2.1640450   -0.6671080   -0.2475190  
H    -3.4880130    4.6334270    0.5389940  
H    -1.0051850    3.3329770    0.3584660  
C    -4.1240820   -3.0057230    2.2324540  
C    -4.0952670   -1.7112940    1.8208250  
C    -4.8852870   -1.6240960    0.6055180  
C    -5.3873810   -2.9931470    0.3478290  
N    -4.8620750   -3.7888650    1.3512380  
C    -6.2218560   -3.3436870   -0.6656630  
C    -6.6555410   -2.3032740   -1.5851410  
O    -7.4375130   -2.4996850   -2.5032530  
C    -6.0671890   -0.8586310   -1.3949390  
O    -6.2682110   -0.0320960   -2.2642810  
C    -5.2157090   -0.5693740   -0.2041280  
H    -3.6053740   -0.8902670    2.3217210  
H    -6.5982510   -4.3519150   -0.8089270  
H    -3.6740500   -3.4589720    3.1061400  
H    -5.1203080   -4.7505930    1.5077820  
