62


C     1.5995150    0.3132040   -0.9629530  
C     1.0119980    1.3942510   -0.3328420  
C     2.0997650    2.1706540    0.2453530  
C     3.3055650    1.4951300   -0.0503060  
N     2.9682920    0.3702700   -0.8019230  
C     4.5651790    1.9270300    0.3719860  
C     4.6088450    3.0907400    1.1238510  
O     5.8034790    3.5758270    1.5613630  
C     3.4122960    3.7889820    1.4386560  
O     3.6161310    4.9298340    2.1886240  
C     2.1731190    3.3459500    1.0180170  
H     5.4775850    1.3928870    0.1326140  
H     5.6196110    4.4022150    2.0413970  
H     2.7860490    5.4252820    2.2555290  
H     1.2800200    3.9163000    1.2491170  
H     1.1632910   -0.4709930   -1.5635740  
C    -2.3955630   -1.3652180    0.2437110  
C    -1.1703930   -0.7971110    0.1672210  
C    -1.3459460    0.6085220   -0.1317220  
C    -2.8046710    0.8275500   -0.2145100  
N    -3.4097520   -0.4278100   -0.0235660  
C    -3.3957940    2.0409790   -0.3496060  
C    -2.5365260    3.2062470   -0.4717030  
O    -2.9624350    4.3481350   -0.5593800  
C    -0.9791030    2.9938720   -0.4766530  
O    -0.2739820    3.9766310   -0.6282410  
C    -0.4303230    1.6236450   -0.2928960  
H    -0.2300330   -1.3051220    0.3159950  
H    -4.4670420    2.1941580   -0.3779150  
H    -2.6730040   -2.3905630    0.4420480  
C    -5.9440460   -2.7248350    2.7753560  
C    -4.8574450   -2.1080180    2.2462440  
C    -5.3348470   -1.5007140    1.0090840  
C    -6.7732270   -1.8756380    0.9526380  
N    -7.1244180   -2.5881950    1.9881660  
C    -7.6358190   -1.4541560   -0.1225440  
C    -7.0994870   -0.6965260   -1.1051960  
O    -7.7898230   -0.2303460   -2.1607050  
C    -5.6473490   -0.3151330   -1.1098950  
O    -5.2185080    0.2908540   -2.0857290  
C    -4.7748540   -0.7265620    0.0405240  
H    -3.8623200   -2.0438800    2.6625400  
H    -8.6805600   -1.7438950   -0.1224740  
H    -7.1373940    0.2359350   -2.7256790  
H    -6.0043430   -3.2790890    3.7043150  
C     4.5014100   -0.4152550   -2.5486280  
C     5.2934580   -1.5115380   -2.7382060  
C     5.1410680   -2.3637060   -1.5879020  
C     4.2313420   -1.7290610   -0.7080610  
N     3.8527720   -0.5377720   -1.3194400  
C     3.8412960   -2.2727770    0.5191140  
C     4.3875600   -3.4990930    0.8674210  
O     4.0455100   -4.0830990    2.0517800  
C     5.3021480   -4.1572560    0.0020420  
O     5.7543730   -5.3685750    0.4895390  
C     5.6819260   -3.6083810   -1.2090180  
H     5.9189840   -1.6960380   -3.6008680  
H     3.1540070   -1.7724050    1.1922950  
H     4.5461930   -4.9145650    2.1181310  
H     6.4075750   -5.7407520   -0.1211120  
H     6.3843350   -4.1314540   -1.8549850  
H     4.3242350    0.4577470   -3.1595070  
