62


C    -4.3713620   -2.6275700    2.6088790  
C    -5.5918990   -2.7474230    1.9981990  
C    -5.5773130   -1.8795560    0.8548200  
C    -4.3036750   -1.2541890    0.8227070  
N    -3.5945360   -1.7233760    1.9075270  
C    -3.9382900   -0.2929580   -0.1496310  
C    -4.9011320   -0.0069400   -1.1247090  
O    -4.5974930    0.8425890   -2.1431700  
C    -6.1726350   -0.6330880   -1.1080520  
O    -6.9947350   -0.2403790   -2.1480690  
C    -6.5220570   -1.5520020   -0.1371160  
H    -6.4091630   -3.3751870    2.3254800  
H    -2.6380080   -1.4836790    2.1182530  
H    -5.4048070    0.9567680   -2.6744070  
H    -7.8593750   -0.6668310   -2.0565860  
H    -7.5068870   -2.0149740   -0.1458390  
H    -3.9811810   -3.1121620    3.4926530  
C     0.3380760   -1.6550220   -0.1252370  
C    -1.0408540   -1.6368050   -0.1377780  
C    -1.4211460   -0.2552580   -0.0979570  
C    -0.1215670    0.4893210   -0.0514630  
N     0.8928320   -0.3346310   -0.0781290  
C    -0.0404100    1.9371700   -0.0074990  
C    -1.2438290    2.5789950   -0.0826470  
O    -1.3744140    3.9057390   -0.1229020  
C    -2.5779070    1.8629280   -0.0964490  
O    -3.5744450    2.5803680   -0.0367280  
C    -2.6321570    0.3835010   -0.1385010  
H    -1.7107030   -2.4829160   -0.1924810  
H    -2.3472850    4.0636840   -0.1114160  
C     0.9401370   -4.1106050   -0.2970650  
C     1.2315500   -2.7713300   -0.1598890  
C     2.7070770   -2.7416210   -0.0429890  
C     3.1043580   -4.1710310   -0.1346190  
N     2.0579340   -4.9535030   -0.2835460  
C     4.4740420   -4.5873480   -0.0587610  
C     5.4151650   -3.6242230    0.1087110  
O     6.7311560   -3.8629640    0.1990540  
C     5.0453470   -2.1682250    0.2135020  
O     5.9593620   -1.3617780    0.3709960  
C     3.6224190   -1.7678660    0.1267690  
H     4.7287050   -5.6388660   -0.1309010  
H     7.1475610   -2.9801280    0.3187030  
H     3.3751110   -0.7151350    0.2039380  
H    -0.0418850   -4.5537280   -0.4172960  
C     3.7146620    1.7334190   -2.3934530  
C     4.3844940    2.7490120   -1.7651440  
C     3.5299250    3.2283280   -0.7146640  
C     2.3376860    2.4600920   -0.7668340  
N     2.4631600    1.5778070   -1.8216420  
C     1.2457050    2.6635240    0.1075490  
C     1.4281080    3.6402700    1.0926070  
O     0.4617240    3.8555900    2.0306690  
C     2.6167370    4.4115880    1.1557530  
O     2.6196330    5.3402960    2.1836730  
C     3.6551390    4.2324650    0.2640160  
H     5.3677250    3.1200360   -2.0203740  
H     1.9013670    0.7405330   -1.8882960  
H     0.7676380    4.5931770    2.5865630  
H     3.4533100    5.8325200    2.1677080  
H     4.5525340    4.8448520    0.3294810  
H     4.0169590    1.1069620   -3.2211670  
