62


C     5.6456220    0.4503780   -2.0111720  
C     6.9402420    0.0250930   -1.8936990  
C     7.0580710   -0.6331460   -0.6227800  
C     5.7847480   -0.5740320   -0.0020010  
N     4.9251610    0.0993040   -0.8675330  
C     5.5270700   -1.1480910    1.2481820  
C     6.5800060   -1.7807490    1.8894820  
O     6.3853010   -2.3518330    3.1148910  
C     7.8651030   -1.8423210    1.2879660  
O     8.8081930   -2.5056590    2.0514950  
C     8.1131590   -1.2818990    0.0491970  
H     7.7260560    0.1797330   -2.6208020  
H     4.5563080   -1.0991680    1.7265100  
H     7.2389020   -2.7230020    3.3969290  
H     9.6676120   -2.4676870    1.6066720  
H     9.1038780   -1.3462930   -0.3968080  
H     5.1614200    1.0211380   -2.7912600  
C     1.6471380   -1.3117590   -3.3341890  
C     0.6237070   -0.7395660   -2.6217160  
C     1.2141560   -0.0502540   -1.5085810  
C     2.6141790   -0.2398590   -1.6138180  
N     2.8502400   -1.0119880   -2.7285780  
C     3.5351750    0.3054070   -0.7016240  
C     3.0142740    1.0614670    0.3462920  
O     3.8518330    1.6190520    1.2596800  
C     1.6124090    1.2418690    0.4805550  
O     1.2809980    1.9751360    1.6016540  
C     0.6943590    0.7128520   -0.4274670  
H    -0.4255480   -0.7907700   -2.8752300  
H     3.7641000   -1.3161740   -3.0296470  
H     3.3006140    2.0881960    1.9104760  
H     0.3229890    2.1133290    1.6489920  
H     1.6190420   -1.9103620   -4.2334700  
C    -1.6951810   -0.0907030   -0.2889450  
C    -0.7576110    0.8935060   -0.2579320  
C    -1.4855030    2.1463730   -0.0483210  
C    -2.9237000    1.8002280    0.0439170  
N    -2.9974640    0.4051140   -0.0940530  
C    -3.9157430    2.7145830    0.1740810  
C    -3.5533180    4.1325300    0.2816620  
O    -4.3870030    5.0108490    0.4221080  
C    -2.0372900    4.5177180    0.2038080  
O    -1.7132720    5.6895270    0.2880710  
C    -1.0605250    3.4357600    0.0192720  
H    -4.9704840    2.4670820    0.1731730  
H    -0.0170460    3.7142360   -0.0896850  
H    -1.5526250   -1.1562460   -0.3985270  
C    -4.1233020   -0.4012620   -0.0930860  
C    -4.3212020   -1.5880130   -0.7413370  
C    -5.6235620   -2.0724860   -0.3608240  
C    -6.1832750   -1.0650820    0.5712270  
N    -5.2458990   -0.0332720    0.6558950  
C    -7.3775440   -1.1755990    1.1952250  
C    -8.1985990   -2.3574020    0.9133340  
O    -9.2886640   -2.5386420    1.4297270  
C    -7.6456510   -3.4180990   -0.1060450  
O    -8.3248630   -4.4018250   -0.3579120  
C    -6.3297510   -3.1859520   -0.6996210  
H    -3.6528060   -2.0448830   -1.4562100  
H    -7.7690100   -0.4308420    1.8814200  
H    -5.9492080   -3.9339110   -1.3883100  
H    -5.1745900    0.5597450    1.4717030  
