62


C    -2.6071200   -2.2755480    2.9242840  
C    -3.0607940   -1.1846500    2.2278280  
C    -3.8288330   -1.6740110    1.1125210  
C    -3.8099400   -3.0913840    1.2014020  
N    -3.0435770   -3.4277930    2.3002140  
C    -4.5033470   -3.9233450    0.3157650  
C    -5.2532050   -3.2989330   -0.6668610  
O    -5.9778170   -4.0359490   -1.5516030  
C    -5.2913320   -1.8818080   -0.7871320  
O    -6.0669450   -1.4407380   -1.8318580  
C    -4.5628470   -1.0434270    0.0617080  
H    -2.8861970   -0.1530870    2.4967400  
H    -2.9092830   -4.3650110    2.6454450  
H    -4.4972630   -5.0059910    0.3914180  
H    -6.4474920   -3.3818860   -2.1055690  
H    -6.5704170   -0.6565030   -1.5007530  
H    -2.0078090   -2.3286610    3.8223020  
C    -1.1375840    1.7190870   -0.1030540  
C    -1.8159730    2.9125930   -0.1950150  
C    -3.2209270    2.6183880   -0.2177390  
C    -3.3435770    1.1423550   -0.1197710  
N    -2.0652480    0.6641510   -0.0588310  
C    -4.5249730    0.4299660   -0.1116670  
C    -5.7248270    1.2314610   -0.3306240  
O    -6.8401960    0.7522840   -0.5553970  
C    -5.6361820    2.8027500   -0.3164670  
O    -6.6780660    3.4401790   -0.3429420  
C    -4.3185690    3.4219790   -0.2983340  
H    -1.3504060    3.8826920   -0.2525060  
H    -4.2586830    4.5049740   -0.3328960  
H    -1.8149680   -0.3084800    0.0531030  
C     2.2350150    4.5231280   -0.2504560  
C     3.2944700    3.6836080   -0.1432600  
C     2.7226390    2.3484220   -0.0240520  
C     1.2644610    2.5764850   -0.0984790  
N     0.9875730    3.8479540   -0.2184850  
C     0.2919170    1.4771710   -0.0534090  
C     0.8437480    0.2253950    0.0240740  
O     0.1214670   -0.9139500    0.0397260  
C     2.3131640   -0.0306170    0.0969760  
O     2.6529520   -1.2154120    0.1555660  
C     3.2817110    1.1057200    0.1281540  
H     4.3445840    3.9323140   -0.1897680  
H     0.7848660   -1.6378310    0.1188690  
H     2.2395100    5.5993310   -0.3713410  
C     5.4536810    1.7341420    1.1659390  
C     4.6871070    0.8647980    0.3919730  
C     5.5869880   -0.2022390   -0.0220300  
C     6.8596190    0.1032200    0.5184280  
N     6.7342850    1.2808410    1.2429020  
C     7.9997960   -0.6758180    0.3004120  
C     7.8564760   -1.8020490   -0.4948100  
O     8.9279170   -2.6035920   -0.7392700  
C     6.5931720   -2.1239920   -1.0578260  
O     6.6059140   -3.2699660   -1.8243380  
C     5.4721660   -1.3463010   -0.8360840  
H     7.4652930    1.7012600    1.7972660  
H     8.9701390   -0.4307910    0.7194240  
H     8.6226950   -3.3320160   -1.3079610  
H     5.7121030   -3.4566390   -2.1484480  
H     4.5161240   -1.6342630   -1.2586180  
H     5.1375780    2.6124040    1.7092600  
