62


C    -5.6365500    0.5058090    1.9363760  
C    -6.7860270   -0.2212730    1.8247840  
C    -6.5104030   -1.3476450    0.9706970  
C    -5.1537420   -1.2607120    0.5781130  
N    -4.6369090   -0.1174600    1.1838700  
C    -4.5332710   -2.1934750   -0.2569630  
C    -5.3106850   -3.2487450   -0.7108130  
O    -4.7629470   -4.1915800   -1.5285910  
C    -6.6756550   -3.3590120   -0.3315300  
O    -7.3111660   -4.4637250   -0.8630780  
C    -7.2781580   -2.4293680    0.4960400  
H    -7.7301610    0.0158980    2.2958510  
H    -3.4947440   -2.1157830   -0.5587500  
H    -5.4662630   -4.8262780   -1.7501320  
H    -8.2467550   -4.4535630   -0.6125710  
H    -8.3250190   -2.5347630    0.7734770  
H    -5.4122870    1.4166140    2.4721240  
C    -2.2974580   -0.0178310    1.9168120  
C    -1.1693360    0.6480800    1.5726800  
C    -1.4833830    1.4916000    0.4335830  
C    -2.9143970    1.2721090    0.1331190  
N    -3.3515060    0.3279420    1.0600720  
C    -3.6290230    1.9046910   -0.8294320  
C    -2.9322370    2.8838330   -1.6531510  
O    -3.4816750    3.5474570   -2.5183160  
C    -1.3916680    3.0867210   -1.4184070  
O    -0.7714380    3.7801840   -2.2032080  
C    -0.7291470    2.3798870   -0.2860640  
H    -0.2063120    0.5647390    2.0527780  
H    -4.6863660    1.7305140   -0.9961720  
H    -2.4826820   -0.7326920    2.7069050  
C     3.0247660   -0.1076400   -0.1036790  
C     1.6923080    0.2602640   -0.2119120  
C     1.6803000    1.6691250   -0.0287860  
C     3.1287190    2.0286980    0.1861550  
N     3.9001780    0.9753250    0.1432880  
C     3.5618310    3.3776960    0.3884570  
C     2.6033790    4.3352290    0.3778730  
O     2.8374350    5.6335790    0.5563970  
C     1.1250310    4.0156690    0.1900970  
O     0.3610060    4.9756490    0.3025590  
C     0.6987890    2.6348940   -0.0464920  
H     0.8397310   -0.3697140   -0.4090050  
H     4.6117100    3.6040720    0.5353550  
H     1.9445080    6.0555130    0.5206430  
C     2.7847530   -2.5074180   -0.4877220  
C     3.5820540   -3.6044000   -0.5390740  
C     4.9363280   -3.1737300   -0.2908560  
C     4.9082890   -1.7740170   -0.0910450  
N     3.5564220   -1.3639650   -0.2151830  
C     6.0661030   -1.0392520    0.1755880  
C     7.2676590   -1.7365280    0.2388090  
O     8.4209640   -1.0570470    0.4960460  
C     7.3097330   -3.1372100    0.0403130  
O     8.5714310   -3.6846260    0.1342930  
C     6.1571420   -3.8604880   -0.2231940  
H     3.2515750   -4.6156130   -0.7350770  
H     6.0446850    0.0303240    0.3254370  
H     9.1474920   -1.7036910    0.4937910  
H     8.5274200   -4.6383260   -0.0297210  
H     6.2014840   -4.9370740   -0.3737350  
H     1.7195550   -2.4155520   -0.6266060  
