62


C    -4.3393440   -0.0532880    0.1867130  
C    -3.5162340    1.0556030    0.3264150  
C    -4.2919810    2.2142370    0.0188260  
C    -5.5990060    1.7619240   -0.3069110  
N    -5.5955840    0.3906270   -0.2081720  
C    -6.6360560    2.6377550   -0.6546060  
C    -6.3480430    3.9928070   -0.6733940  
O    -7.3202970    4.8916850   -1.0041320  
C    -5.0445480    4.4635810   -0.3515830  
O    -4.9194930    5.8390020   -0.4187350  
C    -4.0235160    3.5992100   -0.0098960  
H    -2.4935550    1.0568130    0.6757920  
H    -6.4004620   -0.2147310   -0.2622990  
H    -7.6359090    2.2977870   -0.9039490  
H    -6.9203160    5.7771580   -0.9564060  
H    -4.0161240    6.0929680   -0.1788870  
H    -3.0340540    3.9823300    0.2319610  
C    -0.5052700   -2.2344510   -0.0315370  
C    -1.0078680   -3.4893760    0.3366610  
C    -2.4000060   -3.3578020    0.5300390  
C    -2.7290830   -1.9886660    0.2882130  
N    -1.5719020   -1.3440770   -0.0393940  
C    -4.0467240   -1.4710270    0.3835310  
C    -5.0258000   -2.4251880    0.6801630  
O    -6.3397530   -2.0567490    0.7624440  
C    -4.7113920   -3.7959540    0.9216430  
O    -5.8236710   -4.5570830    1.2154440  
C    -3.4241180   -4.2736210    0.8683330  
H    -0.4207820   -4.3805310    0.4962600  
H    -1.4656940   -0.3747070   -0.3055810  
H    -6.8490070   -2.8499820    1.0086250  
H    -5.5565170   -5.4650940    1.4217040  
H    -3.2040670   -5.3209850    1.0588920  
C     3.3361460   -4.3564160   -0.9558990  
C     2.0104500   -4.1196230   -0.7757170  
C     1.8949160   -2.6836470   -0.5802020  
C     3.2805410   -2.1967440   -0.6813370  
N     4.1219130   -3.1829480   -0.8824150  
C     3.6441120   -0.7791780   -0.5643530  
C     2.5856680    0.0818520   -0.4530420  
O     2.7183580    1.4308380   -0.4699620  
C     1.1841550   -0.3683590   -0.3608600  
O     0.3166720    0.5207670   -0.3261550  
C     0.8433350   -1.8336940   -0.3256750  
H     1.2059890   -4.8377620   -0.8254740  
H     1.8017420    1.7753750   -0.3998030  
H     3.8259600   -5.3028110   -1.1508590  
C     6.0262420   -1.0620660   -1.2832580  
C     5.0417240   -0.3681770   -0.6186010  
C     5.7124450    0.7688530    0.0239320  
C     7.1446730    0.6750290   -0.3600720  
N     7.2512680   -0.4474460   -1.1598640  
C     8.1219290    1.5296380    0.0319930  
C     7.7645110    2.6286370    0.9221210  
O     8.5710650    3.4517680    1.3275950  
C     6.2672950    2.7308420    1.3811250  
O     5.9433610    3.6290230    2.1427560  
C     5.3046470    1.7437590    0.8782210  
H     9.1597230    1.4254030   -0.2699920  
H     4.2761450    1.8516640    1.1944230  
H     5.9215710   -1.9856420   -1.8312530  
H     8.1127380   -0.7930600   -1.5541930  
