60


C    -4.5569900   -1.4011220    1.8130410  
C    -5.4075670   -2.4632450    1.8557010  
C    -6.4639160   -2.2080120    0.9116490  
C    -6.2108360   -0.9441670    0.3261440  
N    -5.0269640   -0.4471620    0.8979600  
C    -7.0153910   -0.4221140   -0.6915350  
C    -8.1125520   -1.1698950   -1.0936090  
O    -8.9302790   -0.6916390   -2.0747090  
C    -8.3927490   -2.4258530   -0.4980970  
O    -9.5157590   -3.0479900   -1.0023930  
C    -7.5807940   -2.9509410    0.4921270  
H    -5.3091220   -3.3264350    2.4999750  
H    -6.8356590    0.5376490   -1.1577950  
H    -9.6379730   -1.3454710   -2.2076290  
H    -9.6621270   -3.8846280   -0.5366150  
H    -7.7971480   -3.9253750    0.9251770  
H    -3.6686370   -1.1876620    2.3880720  
C    -0.7704830    0.5184610    0.1346470  
C    -1.9343830   -0.1878880    0.3630130  
C    -2.9802440    0.7885570    0.4266520  
C    -2.2862130    2.0910510    0.2188800  
N    -1.0042940    1.9314080    0.0485090  
C    -2.9936060    3.3460120    0.1899200  
C    -4.3333770    3.3094410    0.3584100  
O    -5.1256180    4.3899650    0.3432140  
C    -5.0826400    2.0175140    0.5979080  
O    -6.2884440    2.1119950    0.8136640  
C    -4.3408110    0.7320070    0.5972140  
H    -2.0470470   -1.2588460    0.4477980  
H    -2.4550550    4.2730920    0.0299030  
H    -6.0304070    4.0554480    0.5340910  
C     1.0270710   -1.2634300    0.0037650  
C     0.5646680    0.0315360   -0.0291010  
C     1.7819390    0.8341140   -0.2754060  
C     2.8764530   -0.1647640   -0.3508080  
N     2.4092260   -1.3823830   -0.1847960  
C     4.2683490    0.2012240   -0.5767200  
C     4.4915520    1.5409700   -0.7690810  
O     5.6970900    2.0613130   -1.0648960  
C     3.4097240    2.5651310   -0.6946880  
O     3.7211870    3.7428380   -0.8836540  
C     2.0163280    2.1489310   -0.4269370  
H     5.5442190    3.0308240   -1.1410450  
H     1.2407880    2.9040300   -0.3765510  
H     0.4448070   -2.1642710    0.1580640  
C     5.1183120   -2.1134020   -1.0483930  
C     5.3078330   -0.8284790   -0.6062680  
C     6.6962680   -0.7593060   -0.1407290  
C     7.2821480   -2.1022210   -0.3859450  
N     6.2725550   -2.8610830   -0.9472190  
C     8.5532120   -2.4690860   -0.0869860  
C     9.4273960   -1.4867580    0.5450340  
O    10.5869570   -1.7206960    0.8497250  
C     8.8250700   -0.0702100    0.8530310  
O     9.5281080    0.7643980    1.4009260  
C     7.4346060    0.2035450    0.4710870  
H     8.9471860   -3.4622430   -0.2804340  
H     7.0518040    1.1939720    0.6782510  
H     4.2098340   -2.5578620   -1.4250500  
H     6.3546600   -3.8347630   -1.1959360  
