62


C    -2.8141060   -1.9283220   -1.7510120  
C    -3.9464300   -2.6840480   -1.7573750  
C    -3.7496870   -3.7663090   -0.8286980  
C    -2.4474950   -3.6269570   -0.2903590  
N    -1.8720120   -2.4875540   -0.8768210  
C    -1.9595200   -4.4745010    0.7086130  
C    -2.7861180   -5.5038610    1.1398600  
O    -2.3440420   -6.3624280    2.1054260  
C    -4.0811910   -5.6711620    0.5932650  
O    -4.7828940   -6.7369020    1.1207230  
C    -4.5703970   -4.8131320   -0.3783920  
H    -4.8273710   -2.4966960   -2.3562950  
H    -0.9732450   -4.3733070    1.1400240  
H    -3.0587780   -7.0004140    2.2728110  
H    -5.6591010   -6.7831120    0.7104830  
H    -5.5768660   -4.9416830   -0.7716900  
H    -2.5619500   -1.0365400   -2.3010570  
C    -0.8022930    1.5964720   -0.1212990  
C     0.5645310    1.4848450    0.0152340  
C     0.8701760    0.0989680   -0.1940570  
C    -0.4369560   -0.5224690   -0.4423580  
N    -1.4120210    0.3510060   -0.4074430  
C    -0.5981730   -1.9589260   -0.6541040  
C     0.5366130   -2.7191980   -0.5959160  
O     0.5430680   -4.0565670   -0.7892950  
C     1.8607900   -2.1360510   -0.3217970  
O     2.8103250   -2.9382960   -0.2598090  
C     2.0414080   -0.6489330   -0.1881770  
H     1.2460350    2.2725020    0.2977130  
H     1.4798680   -4.3251710   -0.6731320  
C     3.3642410   -0.1175470   -0.0901730  
C     3.8147130    1.2128480   -0.2021270  
C     5.2132620    1.2113040   -0.0593690  
C     5.6114100   -0.1516820    0.1388690  
N     4.4847460   -0.9184280    0.1139200  
C     6.9495470   -0.5247570    0.3130770  
C     7.8963740    0.4850810    0.2854870  
O     9.2055530    0.1871000    0.4469730  
C     7.5171790    1.8561650    0.0861680  
O     8.5912320    2.7145250    0.0892810  
C     6.2058170    2.2247590   -0.0853460  
H     3.1953330    2.0692310   -0.4171710  
H     4.4100120   -1.9281340    0.1495200  
H     7.2612550   -1.5524480    0.4631370  
H     9.7104400    1.0186220    0.3964360  
H     8.2911120    3.6255750   -0.0492200  
H     5.9343890    3.2670410   -0.2347920  
C    -1.6543710    2.7452910    0.0050520  
C    -1.3707600    4.0725580    0.2464790  
C    -2.6129670    4.7881950    0.2770560  
C    -3.6799560    3.7792400    0.0331650  
N    -3.0328650    2.5764130   -0.1264330  
C    -5.0065860    4.0662880   -0.0091850  
C    -5.4274640    5.4485650    0.1917240  
O    -6.5986470    5.7990030    0.1682380  
C    -4.3170480    6.5334750    0.4473830  
O    -4.6557870    7.6972450    0.6157910  
C    -2.9219770    6.1037510    0.4730130  
H    -0.3865940    4.4974220    0.3818050  
H    -5.7720260    3.3171290   -0.1865790  
H    -2.1647250    6.8611360    0.6525350  
H    -3.4485730    1.6696640   -0.2839240  
