62


C    -4.6015840   -0.2088080    0.1241200  
C    -3.7466690    0.8453480    0.4166890  
C    -4.4349370    2.0613610    0.1183890  
C    -5.7214030    1.6976400   -0.3627650  
N    -5.7890090    0.3233890   -0.3585220  
C    -6.6781260    2.6456920   -0.7485600  
C    -6.3301710    3.9829850   -0.6456880  
O    -7.2238740    4.9492570   -1.0069370  
C    -5.0465080    4.3650490   -0.1666510  
O    -4.8539230    5.7335110   -0.1256850  
C    -4.1037440    3.4294450    0.2119710  
H    -2.7762530    0.7631400    0.8854140  
H    -6.6106370   -0.2370790   -0.5283980  
H    -7.6621160    2.3737120   -1.1162910  
H    -6.7934200    5.8086230   -0.8569270  
H    -3.9717340    5.9249770    0.2254250  
H    -3.1279440    3.7459820    0.5755070  
C    -0.8647130   -2.5481820   -0.0207980  
C    -1.4344510   -3.7922260    0.2030650  
C    -2.8401820   -3.6101110    0.3434080  
C    -3.0948030   -2.2184320    0.2105650  
N    -1.8790790   -1.5915010    0.0273730  
C    -4.3890340   -1.6496000    0.2445120  
C    -5.4335590   -2.5721000    0.3913470  
O    -6.7340800   -2.1402230    0.3982370  
C    -5.1940880   -3.9627690    0.5472240  
O    -6.3517900   -4.6992790    0.7038430  
C    -3.9215040   -4.4944600    0.5404430  
H    -0.8883890   -4.7210490    0.2957630  
H    -1.8072270   -0.6674670   -0.3758100  
H    -7.2960170   -2.9225270    0.5422410  
H    -6.1303690   -5.6316240    0.8445390  
H    -3.7623060   -5.5638470    0.6562030  
C     1.5177350   -2.9738610   -0.7546320  
C     0.5090430   -2.1945610   -0.2613610  
C     1.1623390   -0.8894040    0.0044000  
C     2.5734120   -1.0879810   -0.4107940  
N     2.7607700   -2.3111820   -0.8355830  
C     3.5782760   -0.0326870   -0.3093350  
C     3.1266190    1.1649820    0.1843080  
O     3.8928230    2.2745680    0.2740400  
C     1.7351670    1.3737970    0.6474170  
O     1.4187400    2.4893490    1.0753460  
C     0.7587720    0.2672690    0.5574130  
H     3.3018750    2.9571360    0.6637480  
H    -0.2372040    0.4605370    0.9426820  
H     1.4503000   -4.0013150   -1.0896940  
C     5.3024420   -1.1626110   -1.7357540  
C     4.9533460   -0.2916380   -0.7339720  
C     6.2130980    0.2270460   -0.1904950  
C     7.2977180   -0.4000540   -0.9890630  
N     6.6688970   -1.2151850   -1.9110310  
C     8.6259990   -0.1968920   -0.8041950  
C     9.0475360    0.6908270    0.2737540  
O    10.2186320    0.9385750    0.5180050  
C     7.9259700    1.3385060    1.1607670  
O     8.2512440    2.0697320    2.0831660  
C     6.5219920    1.0435170    0.8508590  
H     9.3908800   -0.6749440   -1.4087330  
H     5.7695520    1.5198440    1.4648660  
H     4.6495420   -1.7735320   -2.3400000  
H     7.1443220   -1.8056690   -2.5758440  
