64


C     3.7798490    0.8102870    2.4386450  
C     3.3235000    0.2320920    1.2699860  
C     4.4711960    0.1426650    0.3890710  
C     5.5797850    0.6795910    1.0914990  
N     5.1242370    1.0807290    2.3338210  
C     6.8615450    0.7699650    0.5360940  
C     7.0299390    0.3157070   -0.7625090  
O     8.2589460    0.3760210   -1.3513290  
C     5.9286590   -0.2053060   -1.4920440  
O     6.2490000   -0.5983040   -2.7772260  
C     4.6641580   -0.2905900   -0.9387900  
H     5.6985560    1.4637660    3.0683930  
H     7.7094960    1.1798510    1.0753120  
H     8.1645160    0.0189900   -2.2513330  
H     5.4617530   -0.9560080   -3.2137790  
H     3.8354500   -0.6740350   -1.5290520  
H     3.2380740    1.0198810    3.3499460  
C     0.8030370    0.5033960    1.3461800  
C     1.9441020   -0.1642060    1.0262600  
C     1.4666910   -1.4329360    0.4359360  
C    -0.0251160   -1.3508370    0.5064470  
N    -0.3891920   -0.2112190    1.0298620  
C    -0.8945380   -2.4179970    0.0270010  
C    -0.2504500   -3.4577310   -0.5922600  
O    -0.8810770   -4.4741850   -1.1986680  
C     1.2399080   -3.5717190   -0.6579940  
O     1.7187020   -4.5566850   -1.2245690  
C     2.0839900   -2.5079360   -0.0825580  
H    -0.1629890   -5.0636430   -1.5200580  
H     3.1604260   -2.6296060   -0.1453690  
H     0.7115770    1.4962810    1.7711290  
C    -3.9619130    0.7449180   -0.6895890  
C    -5.0751360   -0.0157320   -0.4328010  
C    -4.6041720   -1.3200750   -0.0643320  
C    -3.1861570   -1.2876480   -0.1245760  
N    -2.8194700   -0.0310560   -0.5614180  
C    -2.3669110   -2.3961700    0.1936740  
C    -3.0462060   -3.5295020    0.6665680  
O    -2.3501150   -4.6118460    1.1115990  
C    -4.4624120   -3.5734320    0.7235440  
O    -4.9596240   -4.7796040    1.1885270  
C    -5.2470270   -2.5018510    0.3475010  
H    -6.0996580    0.3266050   -0.4708200  
H    -1.8950130    0.3408890   -0.3750990  
H    -3.0054290   -5.2849080    1.3654310  
H    -5.9232660   -4.7220910    1.2631830  
H    -6.3322820   -2.5647750    0.3971030  
C    -4.5984730    2.7077400   -2.0675610  
C    -4.2477980    4.0257500   -2.1635050  
C    -3.2356310    4.2700360   -1.1733770  
C    -3.0189060    3.0461510   -0.4903760  
N    -3.8615610    2.0916020   -1.0589710  
C    -2.1129010    2.9219440    0.5710010  
C    -1.3865460    4.0485330    0.9226450  
O    -0.4704400    3.9752280    1.9394420  
C    -1.5763370    5.2782560    0.2428350  
O    -0.7781320    6.3076320    0.7100980  
C    -2.4908360    5.4017280   -0.7879940  
H    -4.6545890    4.7396220   -2.8667710  
H    -1.9634680    1.9972530    1.1173250  
H    -0.0678850    4.8566430    2.0241830  
H    -0.9562060    7.1097830    0.1975210  
H    -2.6288790    6.3582710   -1.2888310  
H    -5.2997220    2.1202310   -2.6421910  
