62


C     4.5465990   -0.2850560   -0.0394380  
C     5.3449360   -1.3164950   -0.4947010  
C     6.6993000   -0.9999530   -0.1642620  
C     6.6805640    0.2525660    0.5065550  
N     5.3682850    0.6863840    0.5354000  
C     7.8389590    0.8638160    0.9984250  
C     9.0428030    0.2046340    0.8001980  
O    10.2018770    0.7545870    1.2606730  
C     9.0840440   -1.0411820    0.1151360  
O    10.3570250   -1.5628180   -0.0080440  
C     7.9383040   -1.6433380   -0.3672880  
H     4.9962280   -2.1752760   -1.0522450  
H     5.0217110    1.4020950    1.1569370  
H     7.8297650    1.8167980    1.5174890  
H    10.9239890    0.1465240    1.0252500  
H    10.3161800   -2.4147810   -0.4670390  
H     7.9939210   -2.5984140   -0.8857160  
C     2.1821820   -1.1225570   -0.0569020  
C     3.1097780   -0.1161110   -0.0977490  
C     2.3645930    1.1283590   -0.2182920  
C     0.9898930    0.8048670   -0.2369800  
N     0.8886580   -0.6057620   -0.1471090  
C     0.0000590    1.7853100   -0.3379040  
C     0.4097000    3.1080660   -0.4505370  
O    -0.5298990    4.0909860   -0.5624420  
C     1.7834760    3.4443710   -0.4640680  
O     2.0344740    4.7918830   -0.5999820  
C     2.7616240    2.4688230   -0.3477620  
H    -1.0505460    1.5377380   -0.3252650  
H    -0.0576470    4.9393610   -0.6241580  
H     2.9898090    4.9474300   -0.6426310  
H     3.8138910    2.7389370   -0.3865920  
H     2.3367580   -2.1841550    0.0495340  
C    -0.2398100   -1.3881430   -0.1355860  
C    -0.3248410   -2.7566700    0.0103060  
C    -1.7180250   -3.0510640   -0.0664640  
C    -2.3794180   -1.7135640   -0.2661250  
N    -1.4973140   -0.7530140   -0.3041970  
C    -3.8188670   -1.5553820   -0.3942710  
C    -4.5266570   -2.7246280   -0.3546590  
O    -5.8525490   -2.7989660   -0.5098950  
C    -3.8918340   -4.0855290   -0.1435950  
O    -4.6731700   -5.0444830   -0.1255290  
C    -2.4559180   -4.1939220    0.0013990  
H     0.4716250   -3.4692230    0.1613390  
H    -6.0536590   -3.7640120   -0.4247750  
H    -2.0326840   -5.1822380    0.1466010  
C    -3.8439690    0.8017940   -1.2734810  
C    -4.4089450   -0.2230450   -0.5636850  
C    -5.6399890    0.3153300    0.0181010  
C    -5.7328720    1.7262120   -0.4388590  
N    -4.6253250    1.9429750   -1.2348070  
C    -6.7232020    2.5907580   -0.1022170  
C    -7.7821760    2.1215730    0.7836000  
O    -8.7160950    2.8236650    1.1418340  
C    -7.6981700    0.6403690    1.3001030  
O    -8.5656270    0.2279770    2.0546040  
C    -6.5771050   -0.1963050    0.8585530  
H    -6.7603090    3.6179770   -0.4520740  
H    -6.5498040   -1.2175390    1.2164300  
H    -2.9152180    0.7998110   -1.8241150  
H    -4.3525010    2.8388100   -1.6090330  
