62


C    -6.1554770    1.5093790   -0.7967640  
C    -5.2400690    0.5919550   -0.2899490  
C    -5.9913570   -0.6304110   -0.0457560  
C    -7.3345310   -0.3656590   -0.4084030  
N    -7.3922400    0.9414260   -0.8699700  
C    -8.3686100   -1.2978200   -0.2755830  
C    -8.0411710   -2.5395910    0.2452620  
O    -9.0027340   -3.4919070    0.3938490  
C    -6.7036330   -2.8252780    0.6266100  
O    -6.5309810   -4.0992250    1.1280190  
C    -5.6887840   -1.8969160    0.4917750  
H    -8.2101550    1.3824590   -1.2629480  
H    -9.3944900   -1.0838650   -0.5568470  
H    -8.5724520   -4.2819520    0.7648790  
H    -5.5941270   -4.2458470    1.3267120  
H    -4.6721650   -2.1548500    0.7670490  
H    -5.9783730    2.5113840   -1.1589120  
C    -3.0831150    4.2651590    0.9857480  
C    -4.0682660    3.3618630    0.7609710  
C    -3.3890070    2.1565870    0.3058600  
C    -1.9520830    2.5149080    0.3340710  
N    -1.7862800    3.7523250    0.7224960  
C    -0.8824710    1.5691000   -0.0183530  
C    -1.3201310    0.3102590   -0.3635680  
O    -0.5362840   -0.7164470   -0.7249150  
C    -2.7729940   -0.0698110   -0.3873900  
O    -3.0221860   -1.2384220   -0.6974420  
C    -3.8415720    0.9262250   -0.0846300  
H    -5.1287680    3.4792140    0.9290940  
H    -1.1708620   -1.4507460   -0.8998840  
H    -3.1747660    5.2827690    1.3458120  
C     0.5093330    1.9709420    0.0165840  
C     1.0322050    3.2215930    0.2192400  
C     2.4645250    3.0694200    0.1280340  
C     2.6786730    1.6107880   -0.1245670  
N     1.5458350    0.9839330   -0.1806630  
C     4.0190290    1.0186580   -0.2740740  
C     5.0447050    1.9282060   -0.2235190  
O     6.3475980    1.6103630   -0.4164100  
C     4.8550600    3.3813100    0.0261670  
O     5.8655580    4.0980530    0.0471330  
C     3.5039330    3.9250460    0.2149700  
H     0.4792760    4.1263010    0.4127940  
H     6.8141710    2.4744580   -0.3338330  
H     3.4113440    4.9908970    0.3998710  
C     3.1760410   -1.2187280   -1.0410200  
C     4.1671310   -0.4180110   -0.4846520  
C     5.2747580   -1.3137810   -0.1729950  
C     4.8808280   -2.6143750   -0.5786140  
N     3.6074550   -2.5126830   -1.1118530  
C     5.6751700   -3.7526510   -0.4102580  
C     6.9086120   -3.5859980    0.1999790  
O     7.7301910   -4.6599890    0.3920120  
C     7.3184840   -2.3007540    0.6315390  
O     8.5659150   -2.2835610    1.2316360  
C     6.5266340   -1.1796000    0.4608640  
H     3.0616510   -3.2833380   -1.4647230  
H     5.3596410   -4.7411630   -0.7286520  
H     8.5357980   -4.3263040    0.8233140  
H     8.7992730   -1.3695350    1.4513360  
H     6.8786130   -0.2086870    0.7891720  
H     2.1853120   -0.9392150   -1.3608460  
