60


C    -4.9213720   -3.1412740    0.2781260  
C    -4.3271560   -1.9804290    0.6957770  
C    -4.7380900   -0.9407150   -0.2043500  
C    -5.6038240   -1.5470080   -1.1560630  
N    -5.6894360   -2.8865290   -0.8430760  
C    -6.2341170   -0.8415650   -2.1854970  
C    -6.0047550    0.5230970   -2.2438900  
O    -6.5923340    1.2774480   -3.2146370  
C    -5.1665390    1.1673950   -1.2987900  
O    -5.0220760    2.5244770   -1.5193520  
C    -4.5007880    0.4629860   -0.2833000  
H    -3.6370970   -1.8946470    1.5196140  
H    -6.2571680   -3.5607590   -1.3310920  
H    -6.8893530   -1.3141020   -2.9104170  
H    -6.2970480    2.1920340   -3.0429480  
H    -5.2064430    2.9875760   -0.6748700  
H    -4.8519490   -4.1415180    0.6815300  
C    -0.3398510   -0.3652520    1.0302360  
C    -0.0966670    0.7115150    1.8347550  
C    -1.3250210    1.4764450    1.8477910  
C    -2.2523630    0.7074110    0.9556990  
N    -1.6777510   -0.3567490    0.4885660  
C    -3.6127440    1.1752260    0.6581230  
C    -3.9516890    2.3462600    1.2724270  
O    -5.1655010    2.9476180    1.1133360  
C    -3.0630500    3.1136190    2.1863380  
O    -3.5128730    4.1511760    2.6861020  
C    -1.7065550    2.6206400    2.4529320  
H     0.8020510    0.9282960    2.3950040  
H    -5.1177910    3.7477060    1.6892600  
H    -1.0763440    3.2112920    3.1106740  
C     4.0045160   -0.5961850   -0.0377720  
C     2.7603810   -0.1144240    0.3106070  
C     1.9004150   -1.2601170    0.3863040  
C     2.7896770   -2.4051390    0.0066780  
N     4.0099890   -2.0193710   -0.2248750  
C     2.2893000   -3.7485190   -0.1003460  
C     0.9809980   -3.9528260    0.1779020  
O     0.3837190   -5.1514410    0.1394460  
C     0.0620400   -2.8359900    0.6172840  
O    -1.0705020   -3.1636370    0.9609870  
C     0.5699670   -1.4397130    0.6700090  
H     2.4948330    0.9055310    0.5425050  
H     2.9554860   -4.5561200   -0.3820390  
H    -0.5407890   -4.9872020    0.4336210  
C     4.8198790    3.4090770   -1.7859500  
C     4.2189090    2.2754700   -1.3256420  
C     5.2537660    1.4130820   -0.8121000  
C     6.5272150    2.1360670   -1.0289640  
N     6.1896640    3.3514630   -1.5965080  
C     7.7637430    1.6492560   -0.7483710  
C     7.8608560    0.3067740   -0.1903140  
O     8.9256950   -0.2488490    0.0273570  
C     6.5293820   -0.4433180    0.1692230  
O     6.6092550   -1.4479690    0.8479200  
C     5.2267320    0.1481360   -0.2562690  
H     3.1634580    2.0581580   -1.3668090  
H     8.6810930    2.1938780   -0.9502680  
H     4.3738080    4.2797190   -2.2482390  
H     6.8537580    4.0379970   -1.9191180  
