62


C    -3.9031780   -1.0076930    2.8443350  
C    -3.4581950   -0.6322660    1.5951490  
C    -4.3906280   -1.2006470    0.6444300  
C    -5.3695530   -1.9062760    1.3892410  
N    -5.0410720   -1.7776270    2.7249060  
C    -6.4309000   -2.5942730    0.7874660  
C    -6.5045710   -2.5720840   -0.5961140  
O    -7.5227120   -3.2175250   -1.2354480  
C    -5.5254630   -1.8829170   -1.3606550  
O    -5.7260350   -1.9646840   -2.7260260  
C    -4.4761400   -1.2104470   -0.7630660  
H    -5.5860370   -2.1323040    3.4948740  
H    -7.1841100   -3.1295800    1.3566640  
H    -7.4076600   -3.0580400   -2.1883710  
H    -5.1224270   -1.3570320   -3.1787300  
H    -3.7357860   -0.6975960   -1.3719240  
H    -3.5008000   -0.7599660    3.8165700  
C    -1.0172360   -0.0409780    1.8728920  
C    -2.2516640    0.1491260    1.3234340  
C    -2.1254310    1.3103330    0.4470440  
C    -0.7181250    1.7660710    0.5559650  
N    -0.1079930    0.9426430    1.4864670  
C    -0.1794610    2.8263670   -0.1210450  
C    -1.0667400    3.4729800   -1.1174160  
O    -0.6640300    4.2726710   -1.9443150  
C    -2.5907240    3.0886310   -1.1414780  
O    -3.3419290    3.7339270   -1.8576250  
C    -3.0344650    1.9651330   -0.3242730  
H    -4.0819740    1.6851680   -0.3607300  
H    -0.7042740   -0.8232830    2.5530250  
H     0.8927670    0.7753120    1.4034710  
C     3.7694340    0.7860810    0.0144210  
C     4.6154960    1.8708290    0.0667210  
C     3.7759670    3.0239260    0.0927140  
C     2.3717690    2.4760460    0.0375570  
N     2.3846520    1.1676110    0.0065450  
C     1.2012510    3.3267080    0.0318580  
C     1.4665840    4.6667440    0.1569350  
O     0.5269440    5.5958260    0.2708670  
C     2.8713000    5.2507300    0.2099180  
O     2.9373340    6.4806470    0.3077510  
C     4.0121720    4.3642400    0.1598170  
H     5.6962570    1.8624160    0.0729570  
H     1.0210760    6.4512490    0.3147400  
H     5.0034100    4.8036060    0.1971760  
C     4.0506230   -0.6088230   -0.0444420  
C     5.2503890   -1.3203740    0.0073090  
C     4.9364850   -2.6945840   -0.1113220  
C     3.5133460   -2.7920970   -0.2401280  
N     3.0106430   -1.5217270   -0.1831320  
C     2.8539160   -4.0190380   -0.3887350  
C     3.6345120   -5.1622680   -0.4036120  
O     3.0510790   -6.3789380   -0.5447980  
C     5.0578240   -5.0856130   -0.2702710  
O     5.6723470   -6.3179710   -0.3037260  
C     5.7079930   -3.8820750   -0.1251560  
H     6.2321660   -0.8832430    0.1269530  
H     2.0525470   -1.2293050   -0.3113310  
H     1.7772320   -4.1015510   -0.4910750  
H     3.7578550   -7.0484000   -0.5356750  
H     6.6321050   -6.2102520   -0.2258390  
H     6.7905190   -3.8440730   -0.0266580  
