60


C     2.6880840   -2.8291260   -2.5075760  
C     3.2763260   -3.8900020   -1.8710020  
C     4.0889620   -3.3503810   -0.8182820  
C     3.9485510   -1.9389880   -0.8640730  
N     3.0947440   -1.6514920   -1.9068420  
C     4.6505840   -1.0650010    0.0015680  
C     5.4788640   -1.6746630    0.9536890  
O     6.1165270   -0.9094940    1.8783050  
C     5.6139720   -3.0839740    1.0168720  
O     6.4598260   -3.5114070    2.0222930  
C     4.9411080   -3.9208110    0.1474970  
H     3.1513020   -4.9338550   -2.1233850  
H     2.7843740   -0.7263340   -2.1612300  
H     6.6764370   -1.5024280    2.4096620  
H     6.5416470   -4.4759240    1.9916490  
H     5.0655210   -4.9997630    0.2145480  
H     2.0054290   -2.8070080   -3.3451370  
C     1.2593490    1.8995190   -0.0273720  
C     1.9815000    0.7214920    0.0299910  
C     3.3618960    1.0974530   -0.1030450  
C     3.3188820    2.5843430   -0.2279040  
N     2.1023760    3.0462890   -0.1859760  
C     4.5196440    3.3699820   -0.3521690  
C     5.6995720    2.7101860   -0.3536650  
O     6.8953950    3.3075850   -0.4688030  
C     5.7830450    1.2051910   -0.2668980  
O     6.8975920    0.7091220   -0.4038670  
C     4.5399260    0.3966630   -0.0879580  
H     1.6002230   -0.2786740    0.1794100  
H     4.4571150    4.4489380   -0.4378660  
H     7.5482570    2.5724080   -0.4895600  
C    -0.1629380    2.0519880    0.0655120  
C    -1.1085300    1.0524450    0.2228090  
C    -2.3788120    1.7077090    0.2576510  
C    -2.0408730    3.1496040    0.0875230  
N    -0.7587840    3.3500420   -0.0154790  
C    -3.0564320    4.1695470    0.0316520  
C    -4.3455910    3.7725460    0.1110330  
O    -5.3942610    4.6099950    0.0523370  
C    -4.7315480    2.3262040    0.2730340  
O    -5.9398910    2.0897540    0.3296660  
C    -3.6846650    1.2704300    0.3827140  
H    -0.9249500   -0.0106060    0.2752340  
H    -2.7758130    5.2101910   -0.0854410  
H    -6.1890720    4.0399210    0.1425910  
C    -3.2990310   -0.9824890    1.4199190  
C    -4.0506240   -0.0970610    0.6777350  
C    -5.2289740   -0.9040030    0.2686100  
C    -4.9676260   -2.2465240    0.8625620  
N    -3.8452230   -2.2649740    1.5420020  
C    -5.8615020   -3.3539960    0.6859260  
C    -6.9702740   -3.1578990   -0.0700260  
O    -7.8884200   -4.0996650   -0.3247400  
C    -7.2570620   -1.8254380   -0.7023790  
O    -8.2756390   -1.7228410   -1.3829620  
C    -6.3231540   -0.6976350   -0.4892730  
H    -5.6332680   -4.3102130    1.1432340  
H    -8.5606030   -3.6643280   -0.8947990  
H    -6.5879290    0.2499560   -0.9400150  
H    -2.3752610   -0.7595960    1.9392890  
