62


C     1.8757550   -1.3617800   -1.1690320  
C     2.0449160   -2.6564530   -0.7673450  
C     3.2260400   -2.6940080    0.0481270  
C     3.7288250   -1.3669810    0.1177710  
N     2.8923930   -0.5581110   -0.6525930  
C     4.8545440   -1.0275130    0.8850010  
C     5.5005220   -2.0521540    1.5644960  
O     6.6003050   -1.7726320    2.3236300  
C     5.0254960   -3.3856360    1.4849440  
O     5.7767910   -4.2925350    2.2101980  
C     3.9011640   -3.7118490    0.7474640  
H     1.3836440   -3.4771910   -1.0096970  
H     5.2082600   -0.0086460    0.9995110  
H     6.8880220   -2.6082460    2.7299270  
H     5.3672300   -5.1682590    2.1523020  
H     3.5434130   -4.7393250    0.7155520  
H     1.1140770   -0.9229000   -1.7950190  
C    -0.1325270    2.6336920   -0.0369450  
C     0.5410760    1.4126190   -0.0980410  
C     1.8583780    1.6747060   -0.5543290  
C     1.9645380    3.0813150   -0.7540210  
N     0.7459060    3.6298280   -0.4354660  
C     3.1466960    3.6910420   -1.1876570  
C     4.2305880    2.8626690   -1.4399600  
O     5.4035260    3.3962650   -1.8757960  
C     4.1449830    1.4496040   -1.2752040  
O     5.2938450    0.7782860   -1.6250830  
C     2.9781730    0.8484030   -0.8226800  
H     0.1663270    0.4523620    0.2206560  
H     0.4974210    4.6088070   -0.3623330  
H     3.2425640    4.7620350   -1.3283470  
H     6.0336880    2.6605600   -1.9764440  
H     5.2427990   -0.1483120   -1.3346640  
C    -3.6557110    0.0281700    0.1777510  
C    -4.5287700    0.9266410    0.7710980  
C    -3.8529610    2.1835190    0.9114260  
C    -2.4911530    1.9707300    0.3961490  
N    -2.4315940    0.6645770   -0.0162290  
C    -1.4928660    2.9220380    0.3611780  
C    -1.9099150    4.2874210    0.7384330  
O    -1.1939260    5.2703850    0.5832020  
C    -3.3416360    4.5169170    1.3600510  
O    -3.6094330    5.6408610    1.7664400  
C    -4.2598890    3.3983450    1.4014480  
H    -5.5247470    0.7212770    1.1275250  
H    -5.2497180    3.5641440    1.8143300  
H    -1.6710170    0.2200010   -0.5122320  
C    -7.2264610   -2.6391330   -0.1956440  
C    -6.4053060   -1.5573300   -0.0688090  
C    -5.0495490   -2.0154740   -0.2271810  
C    -5.1472600   -3.4728320   -0.4753320  
N    -6.4911670   -3.7885430   -0.4135910  
C    -4.1019770   -4.3115090   -0.7027360  
C    -2.7745650   -3.7315760   -0.7542340  
O    -1.7535050   -4.3792390   -0.9267750  
C    -2.6433840   -2.1735500   -0.5976020  
O    -1.5463520   -1.6942480   -0.8551370  
C    -3.8235160   -1.3656980   -0.1899420  
H    -6.7351630   -0.5416770    0.0705690  
H    -4.2111750   -5.3820130   -0.8436670  
H    -8.3064680   -2.6851010   -0.1520980  
H    -6.8734110   -4.7050460   -0.5880010  
