60


C    -6.4464360   -0.0903000    2.5768900  
C    -7.2487400   -0.9028960    1.8203270  
C    -6.5249000   -1.2111720    0.6189570  
C    -5.2702470   -0.5537720    0.7092790  
N    -5.2489300    0.1165870    1.9150900  
C    -4.2985200   -0.5972480   -0.3153370  
C    -4.6308720   -1.3465010   -1.4471780  
O    -3.7244680   -1.4794740   -2.4541220  
C    -5.8761270   -2.0168620   -1.5461810  
O    -6.0315490   -2.7267370   -2.7237560  
C    -6.8187280   -1.9596290   -0.5374490  
H    -8.2418410   -1.2402060    2.0835500  
H    -4.5044810    0.7210490    2.2252560  
H    -4.1747490   -1.9336580   -3.1877100  
H    -6.9567680   -2.9977690   -2.8159290  
H    -7.7669430   -2.4837500   -0.6392380  
H    -6.6222110    0.3622890    3.5425660  
C    -0.9736690   -0.6687620    2.6330640  
C    -2.1152850   -0.9092240    1.9409680  
C    -2.1101900   -0.0405630    0.7768950  
C    -0.8474350    0.7258700    0.8459280  
N    -0.1916670    0.2828790    1.9812810  
C    -0.4298870    1.6660300   -0.0555130  
C    -1.3170930    1.8997510   -1.2081590  
O    -1.0044820    2.6045740   -2.1518020  
C    -2.7084420    1.1714430   -1.2523990  
O    -3.5057870    1.5172660   -2.1028770  
C    -3.0164190    0.1279460   -0.2366470  
H    -2.8824900   -1.6253030    2.1934530  
H    -0.6187840   -1.1158270    3.5522190  
H     0.6141380    0.7425380    2.3771840  
C     3.7656940    0.2674750    0.0290700  
C     4.3860270    1.4966220    0.1066800  
C     3.3680080    2.5103420    0.1199440  
C     2.0738550    1.7948640    0.0593510  
N     2.3818280    0.4514380    0.0139060  
C     0.8455380    2.3948400    0.0366760  
C     0.8304180    3.8734530    0.1199480  
O    -0.1996590    4.5130200    0.2324740  
C     2.1980710    4.6483340    0.1320850  
O     2.1831600    5.8695210    0.1354230  
C     3.4361700    3.8721310    0.1536400  
H     5.4470250    1.6696040    0.1947000  
H     4.3765840    4.4140620    0.1780950  
H     1.7240720   -0.3147920    0.0150820  
C     7.8197220   -1.3485270   -0.9911220  
C     6.7669230   -0.4976340   -0.8858190  
C     5.6752330   -1.3018200   -0.3619020  
C     6.2753890   -2.6671250   -0.2244270  
N     7.5296990   -2.6827520   -0.5759810  
C     5.5138570   -3.7943600    0.2408400  
C     4.2055690   -3.5977350    0.5205990  
O     3.3716930   -4.5693740    0.9257420  
C     3.5616580   -2.2499330    0.3782270  
O     2.3482160   -2.1938380    0.5918500  
C     4.3764220   -1.0530600   -0.0055360  
H     6.7316140    0.5399680   -1.1799430  
H     5.9843300   -4.7669080    0.3315620  
H     2.4882350   -4.1524650    1.0121410  
H     8.8154060   -1.1274190   -1.3567100  
