62


C     1.6875930   -0.2460320   -0.5627540  
C     2.9860080   -0.2288080   -0.1130210  
C     3.2454270    1.1354390    0.3079280  
C     2.0646350    1.8859960    0.0867250  
N     1.1113160    1.0207990   -0.4536350  
C     1.9654950    3.2437010    0.4081010  
C     3.0885190    3.8607860    0.9373940  
O     3.0433670    5.1821950    1.2624580  
C     4.2913100    3.1320170    1.1379590  
O     5.3222040    3.8878900    1.6551310  
C     4.3832400    1.7874150    0.8302340  
H     1.0725810    3.8287810    0.2275770  
H     3.9305300    5.4375360    1.5693840  
H     6.1330770    3.3583330    1.6834980  
H     5.3161120    1.2491680    0.9785840  
H     1.1301170   -1.0563240   -1.0109950  
C    -2.4332510   -0.9763050    0.9349290  
C    -3.3969880   -0.2977050    0.2325210  
C    -2.6896280    0.7206220   -0.5539040  
C    -1.2557990    0.5543330   -0.2328850  
N    -1.1732160   -0.4920010    0.6664000  
C    -0.2371380    1.3070840   -0.7451440  
C    -0.5957300    2.3795400   -1.6906140  
O     0.2295380    3.0765110   -2.2526300  
C    -2.1242770    2.6197000   -1.9759700  
O    -2.4356280    3.5623120   -2.6847760  
C    -3.1081590    1.7147420   -1.3797940  
H    -4.1478150    1.8689170   -1.6392280  
H    -2.5624250   -1.8127590    1.6084200  
H    -0.3050810   -0.8677330    1.0204810  
C    -6.1480980   -1.3118210    3.5959480  
C    -5.0475430   -0.9136520    2.9113970  
C    -5.4574320   -0.8859970    1.5102690  
C    -6.8868780   -1.3009610    1.5506970  
N    -7.2836270   -1.5564020    2.7671780  
C    -7.6920060   -1.3824590    0.3584830  
C    -7.1086320   -1.0569280   -0.8165650  
O    -7.7423140   -1.0707540   -2.0021820  
C    -5.6647720   -0.6465000   -0.8996980  
O    -5.2185070   -0.3976560   -2.0172700  
C    -4.8256750   -0.5802810    0.3408650  
H    -4.0839840   -0.6338970    3.3124800  
H    -8.7309190   -1.6857430    0.4241320  
H    -7.0686580   -0.8098970   -2.6666190  
H    -6.2530590   -1.4453470    4.6661010  
C     4.1468030   -3.2719300   -3.2150730  
C     3.5932830   -2.2019680   -2.5615080  
C     4.0972760   -2.2190350   -1.2159370  
C     4.9690000   -3.3356090   -1.1166130  
N     4.9736320   -3.9613380   -2.3469030  
C     5.6669010   -3.6552810    0.0543180  
C     5.4768690   -2.8275160    1.1487110  
O     6.1215780   -3.0941480    2.3239310  
C     4.6078020   -1.7091740    1.0751700  
O     4.5056570   -1.0141720    2.2679360  
C     3.9083610   -1.3795170   -0.0858440  
H     2.9206770   -1.4747570   -2.9931390  
H     5.5155400   -4.7778440   -2.5816000  
H     6.3343560   -4.5074160    0.1325380  
H     5.8395030   -2.4151150    2.9609370  
H     3.8920070   -0.2697620    2.1537250  
H     4.0244590   -3.6043410   -4.2362910  
