60


C     4.5861030   -0.0010860    0.1541800  
C     5.1935060   -1.2420430   -0.1144810  
C     6.5706390   -1.0173510   -0.3082200  
C     6.7902440    0.3893520   -0.1523880  
N     5.5837810    0.9674430    0.1204950  
C     8.0566490    0.9710600   -0.2814160  
C     9.1144190    0.1265990   -0.5752720  
O    10.3625840    0.6312030   -0.7138660  
C     8.9140540   -1.2844350   -0.7392820  
O    10.0757400   -1.9625380   -1.0276460  
C     7.6716500   -1.8574290   -0.6120020  
H     4.6780760   -2.1839920   -0.2222400  
H     5.3706740    1.9513380    0.2295590  
H     8.2320030    2.0349450   -0.1659040  
H    10.9621220   -0.1076220   -0.9218350  
H     9.8906140   -2.9069620   -1.1410370  
H     7.5373480   -2.9291010   -0.7390160  
C     1.0037430   -2.4113280    1.2876290  
C     2.2770310   -1.9885780    1.0755600  
C     2.2143780   -0.5976540    0.6901040  
C     0.7999790   -0.2378740    0.6890810  
N     0.1143390   -1.3714800    1.0253550  
C     0.2666820    1.0279230    0.4082230  
C     1.2367250    2.0996090    0.2883900  
O     0.9616590    3.2936080    0.1804510  
C     2.7673880    1.7467950    0.2998340  
O     3.5443050    2.6886830    0.2545750  
C     3.2104970    0.3251130    0.3764490  
H     3.1692070   -2.5724090    1.2342130  
H     0.6303910   -3.3718990    1.6133870  
H    -0.8729050   -1.3933540    1.2437740  
C    -1.1444410    1.2868270    0.2889330  
C    -2.2048490    0.4034730    0.1192610  
C    -3.4128190    1.1539040    0.0794080  
C    -3.0138090    2.5760370    0.2034740  
N    -1.6434460    2.5834940    0.3427710  
C    -3.8781330    3.6214920    0.1628090  
C    -5.2993450    3.3396530   -0.0122480  
O    -6.1438030    4.2175290   -0.0997740  
C    -5.7619960    1.8412270   -0.0750230  
O    -6.9592380    1.6018900   -0.0617410  
C    -4.7349770    0.7820470   -0.0774210  
H    -2.1373910   -0.6576970   -0.0542500  
H    -3.5633920    4.6579430    0.2335410  
H    -1.0219500    3.3841030    0.3491420  
C    -4.0151690   -3.0105030    2.2230110  
C    -3.9902060   -1.7018810    1.8588920  
C    -4.7848720   -1.6315670    0.6366110  
C    -5.2289670   -3.0370550    0.4222940  
N    -4.7674000   -3.8402320    1.3458040  
C    -6.0886040   -3.4065880   -0.6720180  
C    -6.4854370   -2.4270970   -1.5157880  
O    -7.2815480   -2.6242280   -2.5786010  
C    -6.0097350   -1.0042870   -1.3669010  
O    -6.2905330   -0.2296960   -2.2735980  
C    -5.1543900   -0.6155760   -0.1941690  
H    -3.5336590   -0.8717930    2.3786900  
H    -6.4008400   -4.4377790   -0.7943810  
H    -7.3431950   -1.7496550   -3.0227560  
H    -3.5569850   -3.4649470    3.0946550  
