60


C    -2.8531540   -3.5985320    2.6395890  
C    -2.5510210   -2.4217030    2.0009020  
C    -3.4166780   -2.3160590    0.8605290  
C    -4.2430740   -3.4722160    0.8745680  
N    -3.8612660   -4.2436190    1.9540720  
C    -5.2674860   -3.6915430   -0.0490830  
C    -5.4853630   -2.6982390   -0.9933770  
O    -6.4763780   -2.8384740   -1.9117110  
C    -4.6945860   -1.5202840   -1.0285090  
O    -5.0394260   -0.6633340   -2.0436040  
C    -3.6217750   -1.3162460   -0.1460840  
H    -1.8000140   -1.7137020    2.3181490  
H    -4.3183650   -5.0920830    2.2493330  
H    -5.9009720   -4.5725990   -0.0334520  
H    -6.4727800   -2.0088250   -2.4281440  
H    -5.0095370    0.2500080   -1.6683260  
H    -2.4276340   -4.0333890    3.5328910  
C     0.8092860   -0.9318890   -0.1301720  
C    -0.4945740   -1.3770620   -0.2062330  
C    -1.3540630   -0.2358960   -0.1783530  
C    -0.4645550    0.9471510   -0.0913160  
N     0.8202600    0.4589980   -0.0631600  
C    -0.8779440    2.2509160   -0.0218740  
C    -2.3233080    2.4706500   -0.1473540  
O    -2.8353070    3.5747270   -0.1864740  
C    -3.2697340    1.2276590   -0.3479690  
O    -4.4408610    1.4841480   -0.6252720  
C    -2.7385990   -0.1392200   -0.2274160  
H    -0.8111560   -2.4057340   -0.2767630  
H     1.6738530    0.9897180    0.0401290  
C     2.5338530    3.7636230   -2.3775590  
C     2.8798180    4.8304320   -1.6140650  
C     1.9739850    4.8669230   -0.4837650  
C     1.0598880    3.7130800   -0.6539050  
N     1.4781560    3.0578590   -1.8020100  
C     0.0199320    3.4004490    0.1741720  
C    -0.1586860    4.2661710    1.3638850  
O    -0.9664350    4.0169270    2.2399580  
C     0.7773260    5.5178820    1.5365510  
O     0.5819280    6.2672310    2.4803050  
C     1.8476720    5.7257950    0.5631780  
H     3.6830150    5.5261480   -1.8087250  
H     2.4973440    6.5847120    0.7002490  
H     2.9671670    3.4136400   -3.3052590  
H     0.9188180    2.3699500   -2.2841740  
C     2.0529870   -1.6452310   -0.1213600  
C     2.2939030   -2.9951510   -0.1661390  
C     3.7272290   -3.1287760   -0.1246120  
C     4.2336340   -1.7169800   -0.0522400  
N     3.2536710   -0.8589360   -0.0513320  
C     5.6400640   -1.4222550    0.0054990  
C     6.4998440   -2.4690740   -0.0077900  
O     7.8303760   -2.3496500    0.0402690  
C     6.0210320   -3.9050710   -0.0805950  
O     6.8861560   -4.7810730   -0.0875870  
C     4.5840470   -4.1807280   -0.1384250  
H     1.5706610   -3.7968890   -0.2165380  
H     5.9824970   -0.3950020    0.0598070  
H     8.1757740   -3.2713410    0.0165650  
H     4.2757560   -5.2202080   -0.1898670  
