64


C     3.3906640   -0.4512820   -1.8500710  
C     4.0819500   -1.6252380   -1.9528540  
C     5.0950500   -1.6140830   -0.9331340  
C     4.9713200   -0.3854270   -0.2358030  
N     3.9191820    0.3241910   -0.8189250  
C     5.7829660   -0.0578880    0.8558590  
C     6.7477980   -0.9781200    1.2377020  
O     7.5690300   -0.7010000    2.2951100  
C     6.8943240   -2.2052630    0.5432800  
O     7.8996920   -3.0168470    1.0392710  
C     6.0827340   -2.5313150   -0.5286020  
H     3.9039790   -2.4033030   -2.6834090  
H     5.6961540    0.8770680    1.3945840  
H     8.1726190   -1.4570290    2.3934060  
H     7.9619230   -3.8168590    0.4971920  
H     6.2051430   -3.4833350   -1.0422800  
H     2.5586940   -0.0749010   -2.4247760  
C    -0.1546510    1.4527680    0.1135280  
C     0.0191930    2.7838770    0.4338790  
C     1.4133520    3.0540950    0.2876140  
C     1.9964670    1.7400900   -0.1547040  
N     1.0897370    0.8194570   -0.2529970  
C     3.4157410    1.5812970   -0.4249200  
C     4.1913140    2.6898890   -0.2678150  
O     5.5087930    2.7250700   -0.4936990  
C     3.6281860    4.0162710    0.1994470  
O     4.4478720    4.9367270    0.3052660  
C     2.2083140    4.1463260    0.4648930  
H    -0.7356910    3.4882030    0.7553110  
H     5.7644430    3.6551200   -0.2788960  
H     1.8440970    5.1153870    0.7899910  
C    -2.6301180    1.0837570    0.3545090  
C    -1.3338970    0.6462560    0.0896440  
C    -1.4413410   -0.7746900   -0.1980000  
C    -2.8062490   -1.1182530   -0.0894140  
N    -3.5136650    0.0442390    0.2491310  
C    -3.2904380   -2.4097160   -0.3135780  
C    -2.3605940   -3.3833060   -0.6481210  
O    -2.7678750   -4.6647190   -0.8744830  
C    -0.9830940   -3.0577510   -0.7555270  
O    -0.1773120   -4.1254770   -1.0935160  
C    -0.5140390   -1.7753560   -0.5380480  
H    -4.3390670   -2.6665810   -0.2227840  
H    -1.9714530   -5.1871780   -1.0732670  
H     0.7485930   -3.8373250   -1.0920110  
H     0.5399800   -1.5330500   -0.6270490  
H    -2.9852320    2.0665790    0.6305440  
C    -6.3833240    2.2314060   -2.2049770  
C    -7.5031870    1.9209940   -1.4792190  
C    -7.0833270    1.0885080   -0.3867390  
C    -5.6787720    0.9341140   -0.5096560  
N    -5.2757610    1.6431630   -1.6186300  
C    -4.9246980    0.1649690    0.3948470  
C    -5.6017790   -0.4612850    1.4388390  
O    -4.9140190   -1.2058160    2.3447540  
C    -7.0093410   -0.3182770    1.5604420  
O    -7.5331260   -0.9993290    2.6415740  
C    -7.7484770    0.4432510    0.6749590  
H    -8.5111700    2.2465750   -1.6957450  
H    -4.3338220    1.6703150   -1.9777950  
H    -5.5626870   -1.5600400    2.9782370  
H    -8.4898490   -0.8551970    2.6859870  
H    -8.8257340    0.5349240    0.7965720  
H    -6.2740820    2.8307020   -3.0976330  
