64


C     2.6448340   -1.1716050   -0.0780860  
C     3.3878440   -0.0455060    0.2700430  
C     4.7614510   -0.3376550    0.0273100  
C     4.8188200   -1.6671120   -0.4754250  
N     3.5313430   -2.1393240   -0.5336730  
C     6.0245940   -2.2916370   -0.8200840  
C     7.1913040   -1.5628920   -0.6542860  
O     8.3945510   -2.1209130   -0.9736590  
C     7.1528770   -0.2310520   -0.1527690  
O     8.3996500    0.3576480   -0.0479200  
C     5.9645520    0.3836520    0.1862310  
H     3.0106350    0.8638070    0.7135040  
H     3.2397150   -3.0789710   -0.7607690  
H     6.0740200   -3.3051940   -1.2041590  
H     9.0785260   -1.4545400   -0.7879400  
H     8.3027270    1.2586640    0.2938830  
H     5.9596970    1.4030670    0.5673280  
C    -0.7217080    1.6736370    0.1983000  
C    -1.7286860    0.7417790    0.2321800  
C    -1.1393880   -0.5630280    0.1339180  
C     0.2612050   -0.3733930    0.0731560  
N     0.5093460    0.9912350    0.1598690  
C     1.2092270   -1.4159100   -0.0277510  
C     0.6436640   -2.7017960   -0.0652990  
O     1.4415370   -3.8094120   -0.1843790  
C    -0.7456690   -2.9252090    0.0384670  
O    -1.0906780   -4.2611350   -0.0229980  
C    -1.6786880   -1.8801890    0.1222340  
H    -2.7774630    0.9670570    0.3391010  
H     1.3130710    1.3933780   -0.3090010  
H     0.8258810   -4.5693870   -0.1545650  
H    -1.6991160   -4.4515610    0.7240290  
C    -5.0952530   -0.2648190   -2.1956450  
C    -6.1416060   -0.9259250   -1.6533540  
C    -5.5576160   -1.7851260   -0.6278290  
C    -4.0925730   -1.4797460   -0.6801160  
N    -3.8344470   -0.6001200   -1.6015830  
C    -3.1246500   -2.1574120    0.1922900  
C    -3.6677610   -3.1082390    1.0091830  
O    -2.9233400   -3.8655470    1.8689010  
C    -5.1140900   -3.4273040    1.0858660  
O    -5.4720280   -4.2912920    1.8946100  
C    -6.0582640   -2.7074330    0.2148530  
H    -7.1875240   -0.8650180   -1.9204690  
H    -3.5871600   -4.4304780    2.3317080  
H    -7.1089310   -2.9711050    0.2897970  
H    -5.1032860    0.4605880   -2.9999900  
C    -3.5440950    4.7055860   -1.5205400  
C    -2.9098590    3.5366420   -1.1878740  
C    -1.7895540    3.8853400   -0.3598420  
C    -1.7922340    5.2989460   -0.2321100  
N    -2.8765800    5.7707480   -0.9437750  
C    -0.8190190    6.0026900    0.4874320  
C     0.1805460    5.2587150    1.0944370  
O     1.1487320    5.8867630    1.8251470  
C     0.2101380    3.8467880    0.9807440  
O     1.2622760    3.2568620    1.6617090  
C    -0.7589500    3.1340970    0.2671220  
H    -3.1911680    2.5436980   -1.5076930  
H    -3.1287850    6.7412280   -1.0426070  
H    -0.8230830    7.0831910    0.5885250  
H     1.7083580    5.1876640    2.2065360  
H     1.0951500    2.2988640    1.7261950  
H    -4.4228330    4.8741760   -2.1271010  
