60


C     3.7890360    2.3350530    2.7581040  
C     3.6514650    1.1264650    2.1274980  
C     4.5589180    1.1157130    1.0167560  
C     5.2388290    2.3633810    1.0369380  
N     4.7430480    3.0874160    2.1005760  
C     6.2390260    2.7095470    0.1236030  
C     6.5837920    1.7575620   -0.8224870  
O     7.5592020    2.0207720   -1.7353520  
C     5.9419320    0.4933730   -0.8602520  
O     6.3830940   -0.3235490   -1.8826740  
C     4.9069370    0.1540400    0.0237460  
H     2.9607410    0.3469110    2.4091150  
H     5.0486310    4.0096900    2.3673780  
H     6.7504240    3.6666930    0.1416800  
H     7.6302560    1.2129250   -2.2788830  
H     6.5866890   -1.2033870   -1.5015730  
H     3.2765950    2.7315830    3.6231360  
C     0.6058930   -0.8950300   -0.1770430  
C     0.6718860   -2.2636450   -0.2563610  
C     2.0755380   -2.5915290   -0.2391750  
C     2.7650410   -1.2662620   -0.1176270  
N     1.9120770   -0.2912920   -0.0924940  
C     4.2294840   -1.1531650   -0.0773550  
C     4.8914750   -2.3389020   -0.2119390  
O     6.2513400   -2.4332580   -0.2319570  
C     4.2340750   -3.6677820   -0.3329950  
O     4.9630050   -4.6631540   -0.4163620  
C     2.7688800   -3.7474970   -0.3367390  
H    -0.1456920   -2.9648330   -0.3532780  
H     6.4279430   -3.4006290   -0.3148980  
H     2.3190080   -4.7309230   -0.4327590  
C    -0.5720990   -0.0663980   -0.1756920  
C    -1.8870550   -0.4855790   -0.1636650  
C    -2.6820920    0.7141030   -0.1924370  
C    -1.6697770    1.8136960   -0.2293690  
N    -0.4502840    1.3571990   -0.2098900  
C    -2.0536760    3.1987930   -0.3037690  
C    -3.3758480    3.4819920   -0.3342220  
O    -3.8767860    4.7234230   -0.3964600  
C    -4.4290580    2.4055770   -0.2428160  
O    -5.5918120    2.7770960   -0.1243570  
C    -4.0277800    0.9654610   -0.2183600  
H    -2.2511630   -1.5032520   -0.1795830  
H    -1.2934880    3.9709160   -0.3385460  
H    -4.8529130    4.6161350   -0.3539480  
C    -4.7738390   -2.3984650    2.5516980  
C    -5.9416810   -2.8557220    2.0345240  
C    -6.2563400   -2.0286080    0.8877570  
C    -5.1564360   -1.0389450    0.7768880  
N    -4.2968040   -1.3158900    1.8158900  
C    -5.0916750   -0.0387270   -0.1603060  
C    -6.1669210   -0.0169530   -1.1796250  
O    -6.1338280    0.7158100   -2.1515050  
C    -7.3622050   -1.0244790   -1.0403260  
O    -8.2911580   -0.9441780   -1.8270330  
C    -7.3078830   -2.0248670    0.0255370  
H    -6.5342530   -3.6774630    2.4089240  
H    -8.1326890   -2.7265950    0.1031440  
H    -4.2149630   -2.7497480    3.4088810  
H    -3.4229100   -0.8369530    1.9752920  
