60


C     6.6367250   -3.8570630   -1.1397440  
C     7.8114650   -3.4508120   -0.5644860  
C     7.5352900   -2.2339850    0.1462200  
C     6.1560230   -1.9535140   -0.0322370  
N     5.6302100   -2.9668330   -0.8077690  
C     5.5186850   -0.8156110    0.5090120  
C     6.3306010    0.0486740    1.2462110  
O     5.7896940    1.1658280    1.8189640  
C     7.7111130   -0.2180570    1.4330200  
O     8.3571650    0.7392450    2.1931430  
C     8.3179400   -1.3403880    0.9030210  
H     8.7635480   -3.9583530   -0.6357560  
H     4.6978840   -2.9683980   -1.1916700  
H     6.5082830    1.6170510    2.2961900  
H     9.2848430    0.4881710    2.3129780  
H     9.3788640   -1.5214200    1.0629060  
H     6.4225950   -4.7184050   -1.7565560  
C     3.0644790   -1.4492900    0.5641290  
C     4.0774610   -0.5749020    0.3208520  
C     3.4395070    0.6315900   -0.2050140  
C     1.9730620    0.3757490   -0.2225900  
N     1.8173790   -0.8834840    0.2856730  
C     0.9990490    1.2839960   -0.6274140  
C     1.5261030    2.5643150   -1.1109310  
O     0.8258430    3.5102460   -1.4718800  
C     3.0790990    2.8104480   -1.1810570  
O     3.4695220    3.8643510   -1.6523410  
C     3.9770050    1.7866570   -0.6613410  
H     5.0427120    1.9819820   -0.6609970  
H     3.1143240   -2.4531680    0.9654440  
H     0.9915930   -1.4274970    0.0603680  
C    -2.4627570    3.8154230    0.4824230  
C    -3.4675670    2.8962620    0.3996960  
C    -2.8811300    1.6629390   -0.0378040  
C    -1.4293630    1.9342130   -0.1977450  
N    -1.2424480    3.2445980    0.1866090  
C    -0.4595850    1.0211530   -0.5838000  
C    -1.0065310   -0.2845850   -0.9677100  
O    -0.3241240   -1.2486350   -1.3028800  
C    -2.5582610   -0.5403130   -0.9618950  
O    -2.9346230   -1.5739680   -1.5006300  
C    -3.4484650    0.4262620   -0.3104630  
H    -4.5140430    3.0847310    0.5742600  
H    -2.5171520    4.8662350    0.7348860  
H    -0.4456290    3.7589370   -0.1856940  
C    -4.8277490    0.0805720   -0.0374450  
C    -5.7262890    0.6501350    0.8474750  
C    -6.9455690   -0.1014490    0.7899810  
C    -6.7179620   -1.1810370   -0.2032440  
N    -5.4343430   -1.0087390   -0.6670590  
C    -7.6415180   -2.1188340   -0.5368720  
C    -8.9463990   -2.0733530    0.1152150  
O    -9.8382240   -2.8752830   -0.1200610  
C    -9.2101950   -0.9369060    1.1708120  
O   -10.2986610   -0.8847130    1.7257730  
C    -8.1360910    0.0153770    1.4470100  
H    -5.5272890    1.4670600    1.5226790  
H    -7.4575890   -2.9029090   -1.2647080  
H    -8.3282160    0.7944670    2.1787300  
H    -4.9120860   -1.6258310   -1.2756500  
