62


C    -1.0544270    2.5370260    0.3674620  
C    -2.0377920    2.7902610    1.3131630  
C    -2.8450020    1.6129250    1.4247340  
C    -2.3249770    0.6639010    0.5060700  
N    -1.2542340    1.2560700   -0.1228860  
C    -2.8996190   -0.6096130    0.3046670  
C    -4.0010360   -0.9187950    1.1104090  
O    -4.5870210   -2.1444330    1.0215490  
C    -4.5164570    0.0148320    2.0466790  
O    -5.6056780   -0.4595670    2.7556380  
C    -3.9648120    1.2694610    2.2066900  
H    -2.0996600    3.6741070    1.9344710  
H    -0.6383040    0.7995460   -0.7772290  
H    -5.3252430   -2.1531570    1.6556920  
H    -5.8808150    0.2027700    3.4063030  
H    -4.3858550    1.9723260    2.9227740  
C     1.0763450   -2.4631270   -0.2918530  
C     0.8298300   -3.3045570   -1.3380660  
C    -0.5660330   -3.1092820   -1.6746240  
C    -1.0403000   -2.0668620   -0.7057010  
N    -0.0794500   -1.6934070    0.0896920  
C    -2.4112570   -1.5783540   -0.7025830  
C    -3.2285180   -2.1068300   -1.6621510  
O    -4.5061110   -1.7459070   -1.8277420  
C    -2.7762470   -3.1520420   -2.6440770  
O    -3.5970970   -3.5544650   -3.4686360  
C    -1.3887810   -3.6400950   -2.6014000  
H     1.5079730   -4.0157040   -1.7882770  
H    -4.8360050   -2.2921750   -2.5758030  
H    -1.0983870   -4.3916710   -3.3290010  
C     5.3627290   -2.1650720   -1.4928950  
C     4.0129390   -2.2975400   -1.5589610  
C     3.5583520   -2.2383850   -0.1783350  
C     4.8199410   -2.0446210    0.6072040  
N     5.8680650   -2.0044490   -0.1686330  
C     4.8088610   -1.9011340    2.0368720  
C     3.6095250   -1.9388340    2.6629990  
O     3.4515120   -1.8262830    3.9888280  
C     2.3168720   -2.1557870    1.9137690  
O     1.2996310   -2.2682430    2.5862880  
C     2.3347100   -2.2799170    0.4214200  
H     3.3965220   -2.4060790   -2.4389790  
H     5.7389870   -1.7659470    2.5774640  
H     2.4859670   -1.9212070    4.1480910  
H     6.0678850   -2.1609420   -2.3161140  
C     3.2117070    1.6938740   -0.8238740  
C     1.9267520    1.5727020   -0.3585810  
C     1.3118680    2.8681200   -0.4677740  
C     2.2905240    3.7442230   -1.0048830  
N     3.4329350    2.9987750   -1.2189090  
C     2.0572600    5.1071610   -1.2268140  
C     0.8025790    5.5958870   -0.9002500  
O     0.5067770    6.9120210   -1.1117320  
C    -0.1938600    4.7445480   -0.3600530  
O    -1.3939780    5.3750520   -0.1105660  
C     0.0280930    3.3837330   -0.1379070  
H     1.4841560    0.6740550    0.0477490  
H     4.3039150    3.3603440   -1.5741450  
H     2.8057110    5.7756530   -1.6399040  
H    -0.4249840    7.0334580   -0.8575260  
H    -2.0721360    4.6886020    0.0387610  
H     3.9961660    0.9548510   -0.9063240  
