60


C    -3.9154520   -0.4986390   -0.0566180  
C    -3.9628810   -1.6956700   -0.7285770  
C    -5.1767170   -2.3472150   -0.3292390  
C    -5.8344860   -1.4844650    0.5863840  
N    -5.0464190   -0.3570690    0.7328120  
C    -7.0636700   -1.8003920    1.1759380  
C    -7.6403280   -3.0143090    0.8360940  
O    -8.8331530   -3.3750400    1.3857250  
C    -6.9998930   -3.8896920   -0.0835550  
O    -7.7028600   -5.0535810   -0.3204520  
C    -5.7873860   -3.5724620   -0.6655970  
H    -3.2364120   -2.0457650   -1.4487290  
H    -5.1867400    0.3799180    1.4074090  
H    -7.5695800   -1.1429150    1.8751160  
H    -9.0712350   -4.2448210    1.0206860  
H    -7.2256820   -5.5991910   -0.9629090  
H    -5.3173100   -4.2578710   -1.3677690  
C    -1.5565880    0.2254640    0.1301160  
C    -0.8016070    1.3623660    0.0847690  
C    -1.7399710    2.4655550   -0.1457410  
C    -3.0857950    1.8567230   -0.2463110  
N    -2.9160660    0.4838220   -0.0520430  
C    -4.2283880    2.5443090   -0.4987830  
C    -4.1403860    3.9918500   -0.6783800  
O    -5.1125640    4.6927510   -0.9122990  
C    -2.7246380    4.6607680   -0.5712770  
O    -2.6235060    5.8659030   -0.7286580  
C    -1.5641110    3.8012130   -0.2971310  
H    -5.2002060    2.0725430   -0.5937840  
H    -0.5960600    4.2807270   -0.2115620  
H    -1.2478660   -0.7917160    0.3329380  
C     2.4034060   -0.9093380   -1.8563080  
C     3.4979550   -0.4078910   -1.2083770  
C     2.9918880    0.5957440   -0.2717500  
C     1.5202690    0.6115900   -0.4279210  
N     1.2292450   -0.3400820   -1.3867220  
C     0.6548800    1.4320620    0.2450440  
C     1.2630580    2.3767760    1.2040390  
O     0.6031430    3.1387330    1.8907030  
C     2.8284850    2.3978660    1.3588000  
O     3.3253880    3.2101100    2.1216110  
C     3.6219170    1.4506750    0.5775500  
H     4.7002970    1.4839290    0.6897660  
H     2.3675120   -1.6745820   -2.6202840  
H     0.3163750   -0.4537180   -1.8010820  
C     5.4943400   -0.9824630   -2.6584320  
C     4.8827800   -0.7853730   -1.4568710  
C     5.9244620   -1.1272680   -0.4657650  
C     7.1087550   -1.5027480   -1.2962290  
N     6.8443720   -1.4195590   -2.5705080  
C     8.3529730   -1.9079770   -0.6972180  
C     8.4166190   -1.9692590    0.6546870  
O     9.5087080   -2.3364600    1.3428250  
C     7.2315580   -1.6293040    1.5162480  
O     7.3610020   -1.7199350    2.7346040  
C     5.9664290   -1.2014890    0.8776090  
H     9.1985230   -2.1623270   -1.3265870  
H     9.2537050   -2.2876590    2.2901090  
H     5.1383230   -0.9624200    1.5374040  
H     5.0643090   -0.8258200   -3.6411580  
