62


C    -5.4922530   -0.0858530    2.0094890  
C    -6.5520670   -0.9491740    2.0203060  
C    -6.4778420   -1.7300880    0.8169750  
C    -5.3385960   -1.2864830    0.0996020  
N    -4.7363980   -0.2754680    0.8480630  
C    -4.9447910   -1.8564470   -1.1164400  
C    -5.7266560   -2.8821200   -1.6237140  
O    -5.3922760   -3.4685670   -2.8100150  
C    -6.8764070   -3.3340520   -0.9229420  
O    -7.5486510   -4.3642510   -1.5549280  
C    -7.2565700   -2.7750660    0.2824900  
H    -7.3145680   -1.0059850    2.7855610  
H    -4.0865830   -1.5091140   -1.6787710  
H    -6.0836410   -4.1222030   -3.0118520  
H    -8.3806540   -4.5377380   -1.0905690  
H    -8.1367600   -3.1413190    0.8075160  
H    -5.2237800    0.7047320    2.6963480  
C    -1.1708650    0.1167590    3.2289050  
C    -0.4598610    0.9623640    2.4389210  
C    -1.2457970    1.2089320    1.2451080  
C    -2.4907350    0.4325510    1.4193980  
N    -2.3829950   -0.2127400    2.6327340  
C    -3.5427080    0.4115920    0.5454220  
C    -3.4227030    1.2222220   -0.6716270  
O    -4.3134400    1.3354110   -1.4953740  
C    -2.0605800    1.9704150   -0.9247290  
O    -1.8833350    2.4648960   -2.0220530  
C    -1.0198850    1.9813660    0.1358630  
H     0.5104640    1.3807680    2.6576800  
H    -0.9191740   -0.2947480    4.1973310  
H    -3.1026810   -0.8016680    3.0240400  
C     3.3477990    0.9918640   -0.0886890  
C     1.9837650    0.9482010    0.0697120  
C     1.4657660    2.2753990   -0.1035120  
C     2.6368120    3.1365020   -0.3852770  
N     3.7477370    2.2991480   -0.4212910  
C     2.5884540    4.4756520   -0.5833620  
C     1.2840900    5.1290570   -0.5574250  
O     1.1363610    6.3260330   -0.7472880  
C     0.0190480    4.2448560   -0.2745700  
O    -1.0610680    4.7993730   -0.1564380  
C     0.1889310    2.7864430   -0.0885900  
H     1.4011150    0.0528190    0.2256910  
H     3.4642700    5.0813400   -0.7956200  
H     4.6711070    2.6432670   -0.1935480  
C     4.3203110   -0.0604780   -0.0157380  
C     4.2605140   -1.2875180    0.6231810  
C     5.4993930   -1.9528270    0.3982580  
C     6.2996390   -1.0866140   -0.3978660  
N     5.5825080    0.0759420   -0.6009200  
C     7.5807860   -1.4357710   -0.8387470  
C     8.0692860   -2.6753330   -0.4569320  
O     9.3075560   -3.0668000   -0.8564860  
C     7.2899890   -3.5492280    0.3577310  
O     7.9270950   -4.7352850    0.6525980  
C     6.0262120   -3.2044550    0.7881240  
H     3.4311110   -1.6381910    1.2219700  
H     5.7712200    0.7236550   -1.3531570  
H     8.1935010   -0.7836510   -1.4521920  
H     9.4660880   -3.9559470   -0.4936950  
H     7.3441300   -5.2997560    1.1818350  
H     5.4460500   -3.8868880    1.4052630  
