60


C     4.8865050    0.1782890    0.1152110  
C     4.9454600   -1.0488170   -0.5485600  
C     6.2915360   -1.4895390   -0.5180820  
C     7.0431750   -0.4976840    0.1814630  
N     6.1727870    0.4921400    0.5511700  
C     8.4219700   -0.6116690    0.3980170  
C     9.0527860   -1.7412790   -0.0979860  
O    10.3908400   -1.9055570    0.0817240  
C     8.3180850   -2.7444600   -0.8005040  
O     9.1008960   -3.8001390   -1.2246700  
C     6.9621980   -2.6330330   -1.0131000  
H     4.0963560   -1.5416310   -0.9936470  
H     6.3937160    1.3404610    1.0524120  
H     9.0003210    0.1378930    0.9276870  
H    10.6395100   -2.7475310   -0.3384270  
H     8.5533460   -4.4371470   -1.7070660  
H     6.4197760   -3.4076520   -1.5511470  
C     0.6581430   -0.2700170   -0.9213260  
C     0.0977800    0.8800740   -0.4319110  
C     1.2472690    1.6057820    0.1523740  
C     2.4111040    0.7110940   -0.0800640  
N     2.0476000   -0.3719440   -0.7144000  
C     3.7675650    1.0562590    0.3651180  
C     3.8704660    2.2562550    1.0327060  
O     5.0441400    2.7371290    1.5279360  
C     2.7347370    3.1495040    1.2853930  
O     2.9398200    4.2038700    1.9045820  
C     1.3883080    2.7759600    0.8005970  
H     4.7981010    3.5976060    1.9398100  
H     0.5847200    3.4812940    0.9732770  
H     0.1647640   -1.0543530   -1.4848020  
C    -3.4413630   -1.5727090    0.1977340  
C    -4.4427170   -0.6653320   -0.0387510  
C    -3.7749410    0.6041650   -0.3469250  
C    -2.3225970    0.3356520   -0.2760230  
N    -2.1989240   -1.0071030    0.0306460  
C    -1.3131820    1.2507330   -0.4551080  
C    -1.7523800    2.6412740   -0.7017160  
O    -0.9771730    3.5721860   -0.8441230  
C    -3.2926380    2.9481530   -0.7867740  
O    -3.6398860    4.0990080   -0.9951770  
C    -4.2429230    1.8545940   -0.5997640  
H    -5.2970910    2.0880080   -0.6787540  
H    -3.5336200   -2.6217380    0.4447650  
H    -1.3147290   -1.4584190    0.2156250  
C    -6.9227150   -3.1009570    2.7582260  
C    -5.8740620   -2.4268620    2.2249590  
C    -6.4023910   -1.7842180    1.0251080  
C    -7.8348390   -2.1914270    1.0062430  
N    -8.1322450   -2.9657630    2.0134010  
C    -8.7416580   -1.7448090   -0.0204520  
C    -8.2522120   -0.9245120   -0.9768560  
O    -8.9857400   -0.4182570   -1.9831160  
C    -6.8093220   -0.5023410   -0.9992130  
O    -6.4539950    0.2222980   -1.9257760  
C    -5.8648470   -0.9836100    0.0607990  
H    -4.8717180   -2.3425190    2.6195830  
H    -9.7795030   -2.0581550   -0.0026310  
H    -8.3647250    0.1184680   -2.5212560  
H    -6.9388000   -3.6972830    3.6628000  
