60


C     4.5567500   -1.2544610    2.0562940  
C     5.2146060   -2.3765100    1.6187340  
C     4.3508880   -3.0171560    0.6728010  
C     3.1606560   -2.2382060    0.5959650  
N     3.3112670   -1.1842850    1.4725580  
C     2.0592130   -2.6066740   -0.2207840  
C     2.2698130   -3.7231370   -1.0537000  
O     1.3324350   -4.0745820   -1.9753980  
C     3.4588320   -4.4900570   -0.9888720  
O     3.4740450   -5.5627020   -1.8657600  
C     4.4836140   -4.1700400   -0.1239220  
H     6.1976180   -2.7064280    1.9257810  
H     2.7879930   -0.3169230    1.3854140  
H     1.6511140   -4.8878520   -2.4055950  
H     4.3093490   -6.0431380   -1.7710330  
H     5.3837000   -4.7804490   -0.0800120  
H     4.8753750   -0.4737120    2.7322500  
C     0.9168990    1.6674940   -0.1691480  
C    -0.4384290    1.5857200   -0.4123220  
C    -0.7416150    0.1766300   -0.4313240  
C     0.5751600   -0.4974020   -0.2566600  
N     1.5253830    0.3823620   -0.1003240  
C     0.7380030   -1.9442400   -0.2261430  
C    -0.4389500   -2.6469260   -0.1741600  
O    -0.5042310   -3.9735950    0.0036510  
C    -1.7850300   -2.0205260   -0.3287840  
O    -2.7670470   -2.7663420   -0.3546340  
C    -1.8981080   -0.5453370   -0.4614170  
H    -1.1603980    2.3908080   -0.3844650  
H    -1.4582960   -4.1998450   -0.0600580  
C    -3.3685960    0.9780130   -1.7259850  
C    -4.6444600    1.4289300   -1.7302110  
C    -5.3418840    0.7714520   -0.6465030  
C    -4.3544020   -0.1268580    0.0001820  
N    -3.1523570    0.0271390   -0.7161150  
C    -4.6206390   -0.8638950    1.1032700  
C    -5.9724500   -0.8121770    1.6691610  
O    -6.2912620   -1.4463500    2.6615370  
C    -7.0419590    0.0980900    0.9697300  
O    -8.1748880    0.1416480    1.4218220  
C    -6.6194490    0.8750260   -0.1973230  
H    -5.0719690    2.1334910   -2.4292460  
H    -3.9012320   -1.5158140    1.5816890  
H    -7.3505540    1.5306050   -0.6605610  
H    -2.5490840    1.2160480   -2.3897490  
C     0.6702520    5.6687650   -1.9391830  
C     1.7218590    6.2603810   -1.3195680  
C     2.3111210    5.2736170   -0.4376770  
C     1.4992040    4.0476280   -0.5893800  
N     0.5072370    4.3584010   -1.4882960  
C     1.7410180    2.8420110    0.0325870  
C     2.8827470    2.8185110    0.9762010  
O     3.1445710    1.8747020    1.7027230  
C     3.7805540    4.1038400    1.1127000  
O     4.7691210    4.0472390    1.8252520  
C     3.3941230    5.3112470    0.3852360  
H     2.0625190    7.2761590   -1.4568890  
H     4.0118290    6.1956430    0.5066200  
H    -0.0130680    6.0711880   -2.6749360  
H    -0.0936210    3.6622320   -1.9062870  
