64


C     0.8085770    1.6278140   -0.0607560  
C    -0.4801630    1.1486060   -0.0155250  
C    -0.4278750   -0.2866270   -0.0425280  
C     0.9380860   -0.6464930   -0.0849670  
N     1.6873140    0.5261660   -0.0478250  
C     1.3998010   -1.9741160   -0.1431270  
C     0.4080420   -2.9602770   -0.1464410  
O     0.7667630   -4.2708350   -0.1722350  
C    -0.9641150   -2.6266140   -0.0789930  
O    -1.7965320   -3.7301510   -0.0795480  
C    -1.4199750   -1.3034790   -0.0243780  
H    -1.3650210    1.7572040    0.0942150  
H     2.5999500    0.5749810   -0.4851480  
H    -0.0518270   -4.7880590   -0.2763270  
H    -2.7024250   -3.4422570   -0.2950800  
C    -0.6891680    5.4536790   -1.8643160  
C    -0.5316970    4.1408500   -1.5025420  
C     0.6413560    4.0644520   -0.6775080  
C     1.1621380    5.3813720   -0.5814940  
N     0.3272070    6.2065920   -1.3071300  
C     2.3296660    5.6921060    0.1255570  
C     2.9864650    4.6446580    0.7500730  
O     4.1243380    4.8852680    1.4669760  
C     2.4914550    3.3186920    0.6707630  
O     3.2647500    2.4048740    1.3651860  
C     1.3234210    2.9970130   -0.0297360  
H    -1.1647270    3.3202880   -1.8057680  
H     0.4540380    7.1987320   -1.4289490  
H     2.7266630    6.6992780    0.2005110  
H     4.3969610    4.0328420    1.8491660  
H     2.7911530    1.5548810    1.4188700  
H    -1.4448140    5.9215010   -2.4795230  
C    -2.8485650   -0.9939920    0.0054690  
C    -3.5622120    0.0201830   -0.5912220  
C    -4.9480540   -0.1551950   -0.2634760  
C    -5.0383530   -1.3101200    0.5507350  
N    -3.7603050   -1.8527830    0.6574480  
C    -6.2461770   -1.7665400    1.0850830  
C    -7.3929320   -1.0459620    0.7807440  
O    -8.5979440   -1.4451970    1.2796090  
C    -7.3253280    0.1019350   -0.0521330  
O    -8.5498190    0.7025500   -0.2721220  
C    -6.1265160    0.5503340   -0.5765450  
H    -3.1450620    0.7733180   -1.2447900  
H    -3.4770230   -2.3892010    1.4683750  
H    -6.3190240   -2.6485990    1.7130950  
H    -9.2675020   -0.8208560    0.9506380  
H    -8.4325740    1.4791450   -0.8389200  
H    -6.0984260    1.4353720   -1.2089890  
C     4.8302690   -1.1298680    2.5436920  
C     3.5944160   -1.2358900    1.9898360  
C     3.7438200   -1.9381830    0.7292770  
C     5.1879870   -2.2482130    0.6024490  
N     5.7914820   -1.7116410    1.7245050  
C     5.7476680   -2.9457050   -0.4198650  
C     4.8723640   -3.4265200   -1.4784490  
O     5.2640100   -4.1021780   -2.4182570  
C     3.3469190   -3.0440450   -1.4142020  
O     2.6419740   -3.3206640   -2.3667800  
C     2.8340250   -2.3158360   -0.2215230  
H     2.6651840   -0.8949640    2.4207220  
H     6.8061950   -3.1800950   -0.4765040  
H     5.1253700   -0.6801410    3.4825380  
H     6.7706370   -1.7991600    1.9465390  
