62


C    -5.7194280    2.1327160   -0.0062940  
C    -6.9943490    1.9949940    0.4542440  
C    -7.2476410    0.5876370    0.6085080  
C    -6.0742180   -0.0964650    0.2056770  
N    -5.1375330    0.8724420   -0.1820310  
C    -5.9540760   -1.4869930    0.2927060  
C    -7.0488390   -2.1995900    0.7628190  
O    -6.9786370   -3.5614630    0.8561280  
C    -8.2363490   -1.5323150    1.1490210  
O    -9.2385000   -2.3744960    1.5943280  
C    -8.3444380   -0.1535710    1.0805520  
H    -7.6795790    2.8042650    0.6671120  
H    -5.0618610   -2.0228310   -0.0020210  
H    -7.8348340   -3.8693250    1.1993530  
H   -10.0165570   -1.8497080    1.8333700  
H    -9.2580690    0.3443060    1.4000060  
H    -5.1468060    3.0175670   -0.2317110  
C    -1.4782090    2.8682690    0.9514320  
C    -0.5389650    2.1866290    0.2295860  
C    -1.3269200    1.1950080   -0.5416600  
C    -2.7300670    1.4391600   -0.1206910  
N    -2.8002070    2.4209370    0.7374520  
C    -3.8345730    0.6546930   -0.6532520  
C    -3.5300990   -0.2725480   -1.6146820  
O    -4.4525160   -1.0326100   -2.2386610  
C    -2.1402810   -0.5089970   -2.0666670  
O    -1.9467470   -1.3508540   -2.9488940  
C    -1.0322620    0.2825980   -1.4838360  
H    -3.9384170   -1.5875050   -2.8662090  
H    -0.0389300    0.0890120   -1.8762810  
H    -1.3080300    3.6714620    1.6574090  
C     0.8862650    2.3924310    0.1992960  
C     1.6202290    3.5364050    0.4691150  
C     3.0008090    3.2120730    0.3310990  
C     3.0729740    1.8406500   -0.0332310  
N     1.7785490    1.3759550   -0.1425830  
C     4.2879730    1.1396580   -0.2068530  
C     5.4493940    1.8980990   -0.0161110  
O     6.6739820    1.3211680   -0.1822540  
C     5.3929470    3.2762400    0.3254560  
O     6.6390470    3.8559600    0.4582680  
C     4.1965590    3.9415670    0.4957680  
H     1.2008270    4.5068240    0.6964520  
H     1.5446900    0.3933180   -0.1536360  
H     7.3404690    2.0185280   -0.0475570  
H     6.5429690    4.8055330    0.6235090  
H     4.1795980    4.9951070    0.7652390  
C     3.5082060   -0.9125040   -1.4878300  
C     4.3073900   -0.2783860   -0.5814840  
C     5.1336860   -1.3707340   -0.0184490  
C     4.6678630   -2.5917330   -0.7374920  
N     3.7242360   -2.3135700   -1.5937070  
C     5.2288010   -3.8906610   -0.4693430  
C     6.1891640   -3.9817570    0.4810010  
O     6.7952960   -5.1261430    0.8383960  
C     6.6645210   -2.7723670    1.2362590  
O     7.5378760   -2.9339720    2.0870510  
C     6.0796030   -1.4474420    0.9351660  
H     4.8728090   -4.7564980   -1.0165580  
H     7.4336480   -4.8741580    1.5412820  
H     6.4669230   -0.5972410    1.4840730  
H     2.7733960   -0.4563160   -2.1416310  
