60


C     8.2140140   -1.4789080   -0.0298390  
C     7.1455410   -0.6198880    0.0861180  
C     5.9565340   -1.3703390   -0.1895640  
C     6.3762440   -2.6957400   -0.4592870  
N     7.7517630   -2.7295410   -0.3641790  
C     5.4920650   -3.7457810   -0.7411720  
C     4.1401810   -3.4582720   -0.7391600  
O     3.2312930   -4.4383760   -0.9967490  
C     3.6655630   -2.1446950   -0.4735430  
O     2.3163120   -2.0501850   -0.5208580  
C     4.5524950   -1.0634280   -0.2151970  
H     7.2254410    0.4166360    0.3715220  
H     8.3233820   -3.5484970   -0.5016390  
H     5.8276520   -4.7569660   -0.9488890  
H     2.3538080   -4.0149480   -0.9611650  
H     2.0732760   -1.1018740   -0.2927760  
H     9.2706500   -1.2952790    0.1024410  
C     4.0418260    0.2668460   -0.0136890  
C     4.6690860    1.4914680    0.0705520  
C     3.6463330    2.4670530    0.2706070  
C     2.3655970    1.6852450    0.2953090  
N     2.6085540    0.4195330    0.1206110  
C     1.0628640    2.3012080    0.4827320  
C     1.0924150    3.6580630    0.6492810  
O     0.0054420    4.4012100    0.8820520  
C     2.3631300    4.4808240    0.6089050  
O     2.2229760    5.6986850    0.7710100  
C     3.6387730    3.8214580    0.4106270  
H     5.7186430    1.7062310   -0.0426240  
H     0.3500460    5.3254150    0.9497930  
H     4.5313200    4.4379730    0.3900260  
C    -0.2925030    0.2672350    1.1131160  
C    -0.1569330    1.4867920    0.5052530  
C    -1.4470660    1.7718680   -0.1166040  
C    -2.3170280    0.6046490    0.1843610  
N    -1.5431350   -0.2798160    0.9060110  
C    -3.6151190    0.4532380   -0.2372110  
C    -4.2128580    1.6588000   -0.8694480  
O    -5.4138300    1.8108300   -1.0042530  
C    -3.2659370    2.8132530   -1.3432080  
O    -3.7268740    3.6847080   -2.0644800  
C    -1.8813350    2.8051960   -0.8856080  
H    -1.2504740    3.6393260   -1.1657000  
H     0.4400860   -0.2747200    1.6948690  
H    -2.0070060   -0.9479630    1.5290520  
C    -4.2003380   -2.4564010    3.1200170  
C    -5.2906220   -3.1300820    2.6944960  
C    -5.5719540   -2.6037170    1.3648510  
C    -4.5295710   -1.5419840    1.1502630  
N    -3.7244160   -1.4913510    2.1777600  
C    -4.4710680   -0.7341590   -0.0601480  
C    -5.3205180   -1.1411860   -1.0607850  
O    -5.3092880   -0.6247270   -2.2907500  
C    -6.3524220   -2.2196630   -0.8837460  
O    -7.0762270   -2.4797670   -1.8432210  
C    -6.4538280   -2.9291670    0.4031220  
H    -5.8392640   -3.9087710    3.2053040  
H    -6.0462560   -1.0621820   -2.7731920  
H    -7.2124720   -3.7002560    0.4939240  
H    -3.6679860   -2.5636670    4.0572030  
