62


C     4.3386520    0.7137320    0.0179870  
C     3.9260000   -0.5903000    0.2598940  
C     4.9669920   -1.4649180   -0.1788670  
C     6.0065030   -0.6428640   -0.6911040  
N     5.5950410    0.6642110   -0.5698690  
C     7.1992840   -1.1681020   -1.2055260  
C     7.3449580   -2.5460070   -1.2006720  
O     8.4871680   -3.1121880   -1.6880150  
C     6.3144310   -3.3841140   -0.6915510  
O     6.6117220   -4.7325810   -0.7589020  
C     5.1383970   -2.8652220   -0.1867120  
H     3.0262630   -0.8891350    0.7792310  
H     6.1564630    1.4876880   -0.7282410  
H     7.9968610   -0.5451070   -1.5968800  
H     8.3958090   -4.0752950   -1.5859670  
H     5.8910420   -5.2424230   -0.3602540  
H     4.3645750   -3.5263310    0.1986720  
C     0.0452620    1.5967660    0.3450930  
C     0.1399360    2.9321210    0.6461100  
C     1.5388570    3.2535740    0.6529840  
C     2.2460780    2.0584650    0.3734200  
N     1.3110600    1.0514480    0.2050820  
C     3.6549230    1.9786470    0.2772010  
C     4.3241700    3.1993780    0.4373140  
O     5.6905060    3.2535200    0.3216430  
C     3.6327320    4.4005980    0.7295570  
O     4.4684650    5.4911090    0.8752130  
C     2.2574020    4.4477290    0.8529740  
H    -0.6859390    3.5930400    0.8693480  
H     1.5155050    0.1727330   -0.2507640  
H     5.9571360    4.1729630    0.4990140  
H     3.9496610    6.2706480    1.1223030  
H     1.7496980    5.3829210    1.0766420  
C    -2.2094780    1.2033770   -0.5903720  
C    -3.2138450    0.2793180   -0.5555440  
C    -2.7235860   -0.8231540    0.2703290  
C    -1.3655390   -0.4382380    0.7242750  
N    -1.0943850    0.8043330    0.1483890  
C    -0.5902900   -1.1890360    1.5466100  
C    -1.0980720   -2.4869490    1.9886140  
O    -0.4698540   -3.2281870    2.7280710  
C    -2.5083700   -2.9425090    1.4715060  
O    -2.9380540   -4.0364600    1.7993170  
C    -3.2610500   -2.0231710    0.6100060  
H     0.3877020   -0.8750770    1.8938840  
H    -4.2381310   -2.3475990    0.2676310  
H    -2.1838180    2.1584200   -1.0972080  
C    -4.6969180    0.8222190   -2.5354240  
C    -4.4812070    0.3782640   -1.2648930  
C    -5.8389230    0.1089360   -0.7451980  
C    -6.7401180    0.4527850   -1.8858340  
N    -6.0640310    0.8711440   -2.9198980  
C    -8.1699870    0.3267290   -1.7830510  
C    -8.6878340   -0.0868730   -0.6014070  
O   -10.0002380   -0.2415130   -0.3649470  
C    -7.8087580   -0.4062450    0.5756400  
O    -8.3510390   -0.7644620    1.6185390  
C    -6.3396610   -0.2828380    0.4413950  
H    -8.7967320    0.5715570   -2.6333740  
H   -10.0664200   -0.5433390    0.5674440  
H    -5.7438250   -0.5250140    1.3157260  
H    -3.9446920    1.1149070   -3.2590200  
