60


C    -5.9203000    1.8664850   -0.3364550  
C    -4.6367830    1.3256620   -0.2769380  
C    -3.7284210    2.4562240   -0.1754630  
C    -4.5209730    3.6269760   -0.1782520  
N    -5.8484210    3.2249230   -0.2746660  
C    -3.9858920    4.9167160   -0.1059890  
C    -2.6044420    5.0239770   -0.0351400  
O    -2.0203970    6.2525710    0.0291320  
C    -1.7917150    3.8596190   -0.0341250  
O    -0.4383110    4.1249480    0.0450230  
C    -2.3302500    2.5873800   -0.0998300  
H    -6.6425440    3.8473960   -0.2965120  
H    -4.5966040    5.8135080   -0.1162060  
H    -1.0571140    6.1132790    0.0175610  
H     0.0579180    3.3212840   -0.1714310  
H    -1.7048370    1.7006710   -0.0913240  
H    -6.8745380    1.3643340   -0.4070770  
C    -4.3201200   -0.0693140   -0.3151160  
C    -5.1446610   -1.1557220   -0.5222350  
C    -4.3096610   -2.3093970   -0.4598100  
C    -2.9323560   -1.7574680   -0.1862620  
N    -2.9473740   -0.4599130   -0.1090930  
C    -1.7722220   -2.6183210   -0.0436470  
C    -2.0091390   -3.9546660   -0.1895950  
O    -1.0727400   -4.8906490   -0.0529120  
C    -3.3851480   -4.5363180   -0.4763350  
O    -3.4360420   -5.7673780   -0.5714460  
C    -4.5196810   -3.6482270   -0.6042540  
H    -6.2072420   -1.1486410   -0.7221690  
H    -1.5450090   -5.7411460   -0.2285780  
H    -5.4891960   -4.0901770   -0.8099790  
C     0.0062390   -0.0225250    3.1159330  
C    -0.8389180   -0.7444630    2.3401930  
C    -0.0653780   -1.2901400    1.2429750  
C     1.3245000   -0.8241080    1.4521880  
N     1.3087960   -0.0886560    2.6207880  
C     2.3973130   -1.0915830    0.6418100  
C     2.1187360   -1.9180410   -0.5399710  
O     2.9801100   -2.2546700   -1.3371230  
C     0.6453000   -2.4085300   -0.7988530  
O     0.4243610   -3.0057020   -1.8363420  
C    -0.4135580   -2.0927290    0.1895820  
H    -1.8987720   -0.8716250    2.4910650  
H    -0.1982310    0.5442490    4.0145040  
H     2.0816700    0.4831550    2.9261750  
C     4.4120280   -0.7968800    2.1418180  
C     3.7650660   -0.6518950    0.9466090  
C     4.7062430    0.0384830    0.0576910  
C     5.9355250    0.2779140    0.8523470  
N     5.6838900   -0.2397770    2.1091430  
C     7.0526580    0.8925750    0.3868700  
C     7.0526860    1.3787470   -0.9885610  
O     8.0059780    1.9492640   -1.4967010  
C     5.7504500    1.1631640   -1.8423530  
O     5.7135460    1.5927090   -2.9836920  
C     4.6164060    0.4579830   -1.2288320  
H     7.9432980    1.0474620    0.9882550  
H     3.7443800    0.2775810   -1.8466840  
H     4.0635200   -1.2895650    3.0406160  
H     6.3718370   -0.3260120    2.8410650  
