64


C     0.5752290    1.6468840   -0.2291360  
C    -0.7873030    1.6766430   -0.4449570  
C    -1.2438770    0.3247140   -0.5389810  
C    -0.1056790   -0.5075220   -0.3846250  
N     0.9955180    0.3175840   -0.2382490  
C    -0.1533120   -1.9184500   -0.3522230  
C    -1.4483660   -2.4585310   -0.4559340  
O    -1.6244220   -3.8193220   -0.4369080  
C    -2.5889680   -1.6503590   -0.6210210  
O    -3.7596130   -2.3832750   -0.7519560  
C    -2.5386210   -0.2531090   -0.6748200  
H    -1.3815120    2.5722940   -0.5466180  
H     1.8417380    0.0026220    0.2170700  
H    -2.5709360   -3.9799070   -0.6058670  
H    -4.4176250   -1.8535300   -1.2292070  
C     1.5201870    2.7233810   -0.0486030  
C     1.3373740    4.0023820    0.4360560  
C     2.6060980    4.6628900    0.4072730  
C     3.5480500    3.7330040   -0.1083080  
N     2.8751650    2.5456680   -0.3403430  
C     4.8971340    4.0499300   -0.2970380  
C     5.3088730    5.3278980    0.0515470  
O     6.6135050    5.6905110   -0.1145910  
C     4.3852120    6.2661760    0.5862500  
O     4.9508260    7.4896140    0.8918660  
C     3.0523220    5.9506560    0.7696530  
H     0.4052480    4.3990560    0.8144280  
H     3.2103700    1.8266450   -0.9651080  
H     5.6194800    3.3448160   -0.6954910  
H     6.6965820    6.6116680    0.1870340  
H     4.2691350    8.0832810    1.2396460  
H     2.3628350    6.6866890    1.1782940  
C     1.0450050   -2.7374500   -0.2261340  
C     2.3743020   -2.4306720   -0.5003250  
C     3.1585540   -3.5855690   -0.2074680  
C     2.2594210   -4.5878290    0.2512010  
N     0.9971730   -4.0453200    0.2374590  
C     2.6847820   -5.8684930    0.6267730  
C     4.0398440   -6.1436830    0.5373760  
O     4.5093390   -7.3750030    0.8895570  
C     4.9544310   -5.1533770    0.0808900  
O     6.2677560   -5.5838320    0.0510620  
C     4.5342780   -3.8910030   -0.2880840  
H     2.7336770   -1.5140120   -0.9451380  
H     0.1293900   -4.5347440    0.3994890  
H     2.0028120   -6.6361630    0.9772990  
H     5.4727390   -7.3652320    0.7551090  
H     6.8347450   -4.8694910   -0.2748750  
H     5.2534530   -3.1509440   -0.6341120  
C    -3.8708030    1.6968240   -1.6199860  
C    -3.7338000    0.5665120   -0.8608490  
C    -5.0533150    0.4381580   -0.1871890  
C    -5.8420710    1.5903350   -0.7044080  
N    -5.1426930    2.3107810   -1.5416000  
C    -7.1958120    1.8295990   -0.2837180  
C    -7.7347780    0.9936890    0.6379580  
O    -8.9841380    1.1078910    1.1234970  
C    -6.9565440   -0.1529540    1.2050130  
O    -7.5088700   -0.8727780    2.0382650  
C    -5.5708350   -0.3900840    0.7434640  
H    -7.7469180    2.6704270   -0.6904560  
H    -9.0798870    0.3709800    1.7657770  
H    -5.0472130   -1.2375090    1.1732320  
H    -3.1213920    2.1380720   -2.2655890  
