60


C    -2.4251530    1.0332180   -1.3291250  
C    -2.7428710   -0.1317080   -0.6478560  
C    -4.1910620   -0.2030200   -0.6078380  
C    -4.6759950    0.9478750   -1.2746680  
N    -3.5739200    1.6730280   -1.7008310  
C    -6.0386240    1.2130810   -1.4465570  
C    -6.9372500    0.2886640   -0.9373180  
O    -8.2744680    0.4967170   -1.0752020  
C    -6.4722190   -0.8843720   -0.2828960  
O    -7.4842190   -1.7136250    0.1489260  
C    -5.1227550   -1.1403920   -0.1169200  
H    -3.6124620    2.5647490   -2.1715650  
H    -6.4079590    2.0948050   -1.9596320  
H    -8.7328700   -0.2630010   -0.6758570  
H    -7.1109520   -2.5238690    0.5268100  
H    -4.7980780   -2.0637940    0.3564500  
H    -1.4547410    1.4612760   -1.5357900  
C    -1.7817750   -1.0409550   -0.0784580  
C    -0.4800630   -1.3020810   -0.4393550  
C     0.0742760   -2.2380910    0.4917600  
C    -1.0120820   -2.5368000    1.4573930  
N    -2.1269830   -1.8323040    1.0277920  
C    -0.8966220   -3.3544840    2.5306740  
C     0.3799780   -4.0243400    2.7493780  
O     0.5742860   -4.7976130    3.6740020  
C     1.5507200   -3.7406750    1.7420630  
O     2.6379780   -4.2457150    1.9729480  
C     1.3047770   -2.8472210    0.5910250  
H     0.0202850   -0.8948630   -1.3038500  
H    -1.7111810   -3.5583040    3.2191830  
H    -2.8823100   -1.5806610    1.6496190  
C     3.3541110    0.8587040   -0.6862980  
C     4.3589880    0.3629820   -1.4685800  
C     4.1669560   -1.0699010   -1.4719390  
C     2.9575660   -1.2936950   -0.6072070  
N     2.4991470   -0.1629160   -0.1523580  
C     2.4223190   -2.6171790   -0.3445220  
C     3.0782760   -3.6496040   -0.9557020  
O     2.6856560   -4.9220700   -0.8690460  
C     4.2937120   -3.4558340   -1.8253930  
O     4.7972590   -4.4589050   -2.3288930  
C     4.8192030   -2.1013670   -2.0501910  
H     5.1359470    0.9094150   -1.9846440  
H     3.3489590   -5.4417910   -1.3758880  
H     5.7010900   -2.0018930   -2.6751330  
C     3.0208970    2.2176350   -0.3445000  
C     3.6009350    3.4159200   -0.6885730  
C     2.8307590    4.4634950   -0.0744630  
C     1.7346130    3.7904480    0.6750250  
N     1.9055670    2.4427050    0.4635230  
C     0.7865880    4.4457610    1.3941630  
C     0.8268930    5.9033380    1.4347590  
O     0.0075900    6.5773740    2.0415470  
C     1.9769070    6.6362640    0.6497720  
O     2.0250590    7.8570540    0.6723570  
C     2.9463140    5.8218620   -0.0852570  
H     4.4735820    3.5465170   -1.3121080  
H    -0.0038740    3.9384170    1.9384900  
H     3.7352450    6.3392870   -0.6227820  
H     1.3696000    1.6792140    0.8523290  
