60


C    -4.6626230   -0.5410740    2.2110670  
C    -4.1610570   -0.2326820    0.9553540  
C    -5.1752550   -0.6566680    0.0066680  
C    -6.2413750   -1.2150110    0.7546580  
N    -5.9002620   -1.1268640    2.0917970  
C    -7.3923570   -1.7534020    0.1653640  
C    -7.4706350   -1.7247450   -1.2172450  
O    -8.5707750   -2.2229820   -1.8514650  
C    -6.4115850   -1.1722650   -1.9858140  
O    -6.6341760   -1.2110590   -3.3501630  
C    -5.2769920   -0.6488140   -1.3987120  
H    -6.4956200   -1.3876090    2.8623250  
H    -8.2078540   -2.1757620    0.7435780  
H    -8.4401590   -2.0732590   -2.8041600  
H    -5.9591690   -0.6793830   -3.7980830  
H    -4.4979400   -0.2034410   -2.0078150  
H    -4.2487090   -0.3238540    3.1857420  
C    -0.3089130   -0.9257220    2.8847660  
C     0.4514080    0.0121770    2.2626660  
C    -0.3896000    0.6866610    1.3023970  
C    -1.7295690    0.0696000    1.4330520  
N    -1.6264490   -0.8682590    2.4467850  
C    -2.8517890    0.3746390    0.7040640  
C    -2.6594530    1.4094410   -0.3252010  
O    -3.5537020    1.8078610   -1.0554110  
C    -1.2350780    2.0559420   -0.5177640  
O    -1.0907550    2.7965130   -1.4767320  
C    -0.1423920    1.7044700    0.4078960  
H     1.5086740    0.1600810    2.4047950  
H    -0.0179830   -1.6517750    3.6322410  
H    -2.3182830   -1.5920450    2.5798330  
C     4.0096350    0.2334290   -0.1287060  
C     4.6771630    1.4070530   -0.3496570  
C     3.6860040    2.4527150   -0.2145520  
C     2.4086560    1.7179380    0.0682860  
N     2.6044070    0.4348220    0.1119740  
C     1.1406990    2.4110740    0.2518480  
C     1.2052460    3.7770610    0.2123750  
O     0.1514980    4.5714480    0.4388040  
C     2.4737790    4.5352350   -0.0518660  
O     2.4109700    5.7664370   -0.0626380  
C     3.7253600    3.8002860   -0.2793310  
H     5.7378270    1.5469030   -0.5049380  
H     0.4870600    5.4880530    0.3197740  
H     4.6183420    4.3830810   -0.4835580  
C     7.0088520   -1.8914190   -2.6273450  
C     6.1741980   -0.9609700   -2.0893730  
C     5.4895790   -1.5827940   -0.9804940  
C     5.9885570   -2.9767620   -0.9234610  
N     6.9245670   -3.0900890   -1.9335420  
C     5.5543630   -3.9288830   -0.0565350  
C     4.5200820   -3.5616310    0.8988570  
O     4.0077800   -4.3555150    1.6731930  
C     4.0584370   -2.0608460    0.9490520  
O     3.3816220   -1.7070690    1.8975270  
C     4.5316420   -1.1228200   -0.1049140  
H     6.0350970    0.0494460   -2.4404980  
H     5.9149240   -4.9528890   -0.0626140  
H     7.6786280   -1.8036240   -3.4725270  
H     7.3997230   -3.9435250   -2.1825100  
