60


C    -4.7536560    0.5392440   -0.0487570  
C    -4.4191920   -0.7688540    0.3393980  
C    -5.5706800   -1.5760460    0.1913070  
C    -6.6126990   -0.7253390   -0.2948900  
N    -6.0891860    0.5307740   -0.4284510  
C    -7.9054350   -1.1928690   -0.5548500  
C    -8.1564770   -2.5357650   -0.3208710  
O    -9.3938250   -3.0447450   -0.5545560  
C    -7.1289790   -3.4017340    0.1667200  
O    -7.5504370   -4.7032810    0.3429500  
C    -5.8559560   -2.9432590    0.4225300  
H    -3.4710530   -1.0831240    0.7463800  
H    -6.5630330    1.3932230   -0.6743090  
H    -8.6997920   -0.5523530   -0.9223870  
H    -9.3698250   -3.9913090   -0.3290390  
H    -6.8194940   -5.2411980    0.6815770  
H    -5.0891680   -3.6204860    0.7932170  
C    -0.3354160    1.3851180    0.1971580  
C    -1.5907330    0.7775460    0.0786500  
C    -2.5843480    1.7920640    0.0590360  
C    -1.8562690    3.0729680    0.1654380  
N    -0.5231560    2.7577210    0.2720430  
C    -2.4246940    4.3102970    0.1566170  
C    -3.8574350    4.3965940   -0.0102450  
O    -4.4877630    5.4443550   -0.0218000  
C    -4.6615310    3.0601190   -0.2092870  
O    -5.8512890    3.1728280   -0.4895170  
C    -3.9775000    1.7520110   -0.0586660  
H    -1.7620660   -0.2639110   -0.1395080  
H    -1.8531750    5.2267930    0.2588630  
H     0.2664230    3.3940440    0.2633970  
C     1.0262560   -2.7061540    1.0410980  
C     2.3430560   -2.5597750    0.7382140  
C     2.5519950   -1.1845500    0.3451450  
C     1.2510840   -0.5379700    0.4372790  
N     0.3584270   -1.5045030    0.8204080  
C     0.9804450    0.8153750    0.2100520  
C     2.1640090    1.6528880    0.0311280  
O     2.1466840    2.8803740    0.0049500  
C     3.5722960    0.9746450   -0.1491400  
O     4.5019580    1.7218050   -0.4000750  
C     3.7105520   -0.4969530   -0.0270250  
H     3.0992540   -3.3241940    0.8220710  
H     0.4852800   -3.5701250    1.4006420  
H    -0.5706640   -1.2909650    1.1535760  
C     5.0804870   -2.4460930   -0.8208580  
C     4.9523600   -1.1574030   -0.3264650  
C     6.3654630   -0.7059700   -0.1874160  
C     7.1609020   -1.8810980   -0.6305640  
N     6.3864760   -2.8762180   -1.0134290  
C     8.5916450   -1.8900780   -0.6302900  
C     9.2321780   -0.7785290   -0.1847930  
O    10.5641250   -0.6483240   -0.1212270  
C     8.4676580    0.4202910    0.2897620  
O     9.1121990    1.3882790    0.6928370  
C     6.9885080    0.4045730    0.2570660  
H     9.1265770   -2.7702160   -0.9692100  
H    10.7206850    0.2523260    0.2411350  
H     6.4810570    1.3069760    0.5706690  
H     4.2704690   -3.1019890   -1.1144520  
