60


C    -3.8062630    0.2635710   -1.6216710  
C    -5.1650680    0.2099620   -1.6079280  
C    -5.5478340   -0.8485390   -0.7099770  
C    -4.3587830   -1.4325620   -0.2119800  
N    -3.2781830   -0.7390210   -0.7915530  
C    -4.3779430   -2.4460950    0.7508500  
C    -5.6149970   -2.9040050    1.1816800  
O    -5.6766500   -3.9008700    2.1105230  
C    -6.8137750   -2.3475540    0.6699430  
O    -7.9614330   -2.9067390    1.1925300  
C    -6.7916160   -1.3261420   -0.2638210  
H    -5.8274600    0.8409860   -2.1848320  
H    -3.4831020   -2.9013750    1.1534190  
H    -6.6169550   -4.0860520    2.2760700  
H    -8.7384290   -2.4940390    0.7872760  
H    -7.7194930   -0.8928010   -0.6314100  
H    -3.1331680    0.8908800   -2.1855100  
C     0.0540890    2.0730810   -0.1037450  
C    -1.2076340    1.5599140   -0.2921060  
C    -1.0381980    0.1373870   -0.4078200  
C     0.4260440   -0.0857050   -0.2698600  
N     1.0478290    1.0408440   -0.0911240  
C     1.0497780   -1.4160860   -0.3088790  
C     0.1642690   -2.4602960   -0.4714620  
O     0.4901860   -3.7498090   -0.5270140  
C    -1.3236390   -2.2598240   -0.6325910  
O    -1.9915210   -3.2701470   -0.8505550  
C    -1.9131550   -0.9011290   -0.5649260  
H    -2.1284100    2.1175040   -0.3191150  
H    -0.3621130   -4.2193310   -0.6895960  
C    -2.3783470    5.7275020   -0.1393830  
C    -1.4578520    6.6889780    0.0907140  
C    -0.1927570    5.9778450    0.2172130  
C    -0.5517160    4.5321130    0.0287040  
N    -1.8290530    4.4054160   -0.1800520  
C     0.4470680    3.4561970    0.0806010  
C     1.7416160    3.8757820    0.3126220  
O     2.8122400    3.0830760    0.4043750  
C     2.1075980    5.3253310    0.5015400  
O     3.2949180    5.5832740    0.7052110  
C     1.0740880    6.3671510    0.4424370  
H    -1.6042880    7.7571900    0.1678690  
H     3.5629620    3.7005580    0.5763950  
H     1.3908730    7.3958580    0.5842520  
H    -3.4449090    5.8419540   -0.2903690  
C     2.4834560   -1.5730300   -0.1784200  
C     3.4314350   -0.5968950    0.0136960  
C     4.6967400   -1.2868970    0.0733170  
C     4.3432160   -2.7311180   -0.1070440  
N     3.0661610   -2.8981600   -0.2530140  
C     5.3542810   -3.7605740   -0.1089110  
C     6.6403990   -3.3763170    0.0599640  
O     7.6867790   -4.2170950    0.0813710  
C     7.0270660   -1.9267540    0.2446060  
O     8.2263620   -1.6815120    0.3902020  
C     5.9834750   -0.8975590    0.2420320  
H     3.2568540    0.4636420    0.1029630  
H     5.0727060   -4.7992540   -0.2415990  
H     8.4716830   -3.6397770    0.2188130  
H     6.2986770    0.1326970    0.3760600  
