60


C     4.2223970    0.3278200    2.2767100  
C     3.7666470   -0.0248270    1.0140400  
C     4.8020980    0.3905090    0.0851530  
C     5.8321130    0.9915250    0.8497540  
N     5.4496790    0.9359250    2.1780910  
C     6.9913120    1.5351100    0.2822760  
C     7.1162760    1.4650670   -1.0954370  
O     8.2265440    1.9642240   -1.7073920  
C     6.0938140    0.8677130   -1.8812460  
O     6.3623230    0.8690040   -3.2365910  
C     4.9496500    0.3416410   -1.3154370  
H     6.0235880    1.2131750    2.9593920  
H     7.7796340    1.9897510    0.8733630  
H     8.1363800    1.7769150   -2.6583070  
H     5.7347340    0.2855720   -3.6891890  
H     4.2006210   -0.1374720   -1.9365890  
H     3.7894490    0.1179370    3.2449190  
C    -0.1517720    0.6231660    2.8290670  
C    -0.8731870   -0.3480560    2.2009060  
C     0.0121100   -1.0088600    1.2642230  
C     1.3264850   -0.3558440    1.4183120  
N     1.1613020    0.6129130    2.3997180  
C     2.4790110   -0.6635350    0.7400870  
C     2.3432760   -1.7445560   -0.2579270  
O     3.2751430   -2.1576320   -0.9279960  
C     0.9329720   -2.4050080   -0.4978400  
O     0.8188370   -3.1527170   -1.4534470  
C    -0.1997270   -2.0335260    0.3715810  
H    -1.9044440   -0.6033970    2.3914890  
H    -0.4682040    1.3316450    3.5834840  
H     1.8527190    1.3245980    2.5867630  
C    -4.2089380   -0.5240080   -0.7033080  
C    -4.8751280   -1.7256570   -0.7368810  
C    -3.9491660   -2.7653300   -0.3783840  
C    -2.6574880   -2.0929470   -0.1208930  
N    -2.8870830   -0.7327860   -0.2791690  
C    -1.4847170   -2.7218320    0.1777370  
C    -1.5495180   -4.1966460    0.3288270  
O    -0.5998550   -4.8550460    0.7115010  
C    -2.9137310   -4.9285340    0.0565070  
O    -2.9469690   -6.1479040    0.1343610  
C    -4.0802110   -4.1197510   -0.2771550  
H    -5.9284040   -1.8561090   -0.9408820  
H    -5.0169000   -4.6340560   -0.4685090  
H    -2.1348290   -0.0921650   -0.4903860  
C    -5.7334060    1.1763050   -1.7886450  
C    -4.6870750    0.8038610   -0.9874790  
C    -4.1646290    2.0819110   -0.4601710  
C    -5.0469880    3.1137330   -1.0798880  
N    -5.9568360    2.5677480   -1.8457600  
C    -4.8768470    4.5141870   -0.8121000  
C    -3.8919380    4.8817810    0.0449500  
O    -3.6251330    6.1511500    0.3834940  
C    -3.0050760    3.8645310    0.7072600  
O    -2.1413470    4.2683570    1.4830640  
C    -3.1972930    2.4269140    0.4108070  
H    -5.5307660    5.2389880   -1.2839260  
H    -2.8759410    6.1081110    1.0168450  
H    -2.5448860    1.7306090    0.9300130  
H    -6.3664770    0.5227020   -2.3770340  
