64


C     1.6176950   -2.7052590   -0.0539740  
C     1.7854940   -1.3529420    0.1299120  
C     3.0526350   -0.9773980   -0.4302740  
C     3.6307640   -2.1520720   -0.9643000  
N     2.7830050   -3.2210180   -0.6685940  
C     4.8458680   -2.1615100   -1.6509380  
C     5.5023090   -0.9456960   -1.7864710  
O     6.6991790   -0.8909850   -2.4337780  
C     4.9572610    0.2438430   -1.2416180  
O     5.7516450    1.3532800   -1.4382330  
C     3.7376600    0.2614330   -0.5548400  
H     1.0961300   -0.7049190    0.6500500  
H     2.7109700   -4.0073520   -1.3046390  
H     5.2882130   -3.0622790   -2.0633240  
H     7.0098070    0.0302760   -2.3797160  
H     5.3918430    2.0970800   -0.9184110  
C    -2.8520470   -2.1698230    0.1876380  
C    -1.4849700   -1.9951970   -0.0332140  
C    -0.8264270   -3.1822770    0.3660800  
C    -1.8362130   -4.0852560    0.8218080  
N    -3.0453650   -3.4435800    0.7090040  
C    -1.5542630   -5.3784850    1.2678830  
C    -0.2231200   -5.7688300    1.2576380  
O     0.1197480   -7.0059890    1.6971440  
C     0.8053810   -4.8923950    0.8089510  
O     2.0649110   -5.4469650    0.8921640  
C     0.5403480   -3.5989270    0.3615270  
H    -1.0558380   -1.0987520   -0.4523020  
H    -3.9397210   -3.8401840    0.9514400  
H    -2.3164270   -6.0669380    1.6164980  
H     1.0909290   -7.0687300    1.6476910  
H     2.7298140   -4.7471180    0.7450300  
C     3.2140680    1.4991870    0.0228890  
C     2.5719250    1.7353580    1.2143260  
C     2.3061630    3.1439920    1.3082390  
C     2.8154930    3.7406420    0.1310030  
N     3.4291610    2.7388660   -0.6242810  
C     2.7028700    5.1072670   -0.1341860  
C     2.0686680    5.8932170    0.8187370  
O     1.9267740    7.2325360    0.6079310  
C     1.5708780    5.3157560    2.0163080  
O     0.9808070    6.2268700    2.8695720  
C     1.6851610    3.9609590    2.2724540  
H     2.3655170    0.9895650    1.9696460  
H     3.4329160    2.7856140   -1.6370750  
H     3.0860130    5.5678250   -1.0390360  
H     1.4506230    7.5967890    1.3741940  
H     0.5987660    5.7615540    3.6283660  
H     1.2922310    3.5395240    3.1954000  
C    -3.9023100   -1.2447370   -0.0585730  
C    -5.2624530   -1.3645920    0.1404440  
C    -5.8278710   -0.1205330   -0.2824610  
C    -4.6429110    0.6893610   -0.7314310  
N    -3.5266130    0.0328260   -0.6001030  
C    -4.7972960    2.0283440   -1.2366090  
C    -6.0526740    2.5319690   -1.2924450  
O    -6.3577340    3.7576800   -1.7360060  
C    -7.2684440    1.7394850   -0.8469750  
O    -8.3594120    2.3133350   -0.9479500  
C    -7.0903240    0.3910510   -0.3411000  
H    -5.8088080   -2.2119490    0.5328690  
H    -3.9301410    2.5959170   -1.5554640  
H    -7.3391910    3.8115220   -1.6480680  
H    -7.9782170   -0.1507990   -0.0306380  
