64


C     1.8611980   -0.5471310    0.0477620  
C     3.1612540   -0.1201190    0.0106130  
C     3.1071500    1.3316050   -0.0707630  
C     1.7453890    1.7144670   -0.0952820  
N     0.9782010    0.5346980   -0.0310770  
C     1.3530140    3.0557470   -0.1131820  
C     2.3493750    4.0208580   -0.1555800  
O     2.0067570    5.3393510   -0.1826360  
C     3.7171420    3.6507610   -0.1771900  
O     4.5878230    4.7172830   -0.2358360  
C     4.1048180    2.3229550   -0.1352710  
H     0.3186920    3.3704670   -0.1295200  
H     2.8307890    5.8535530   -0.2352750  
H     5.4990510    4.3922430   -0.2893810  
H     5.1574040    2.0530320   -0.1441340  
H     1.4695130   -1.5520140    0.0856450  
C    -1.6417210   -1.7869140    2.6338120  
C    -0.5256180   -1.2732120    2.0635000  
C    -1.0055110   -0.4733210    0.9442700  
C    -2.4803180   -0.6496000    0.9615340  
N    -2.8383720   -1.4032540    1.9716540  
C    -3.3718930   -0.0211910   -0.0102150  
C    -2.7705730    0.8958040   -0.8302620  
O    -3.4416660    1.6703570   -1.6984410  
C    -1.2977970    1.1228940   -0.8723620  
O    -0.8617030    1.8987910   -1.7222520  
C    -0.4050000    0.3898330    0.0803180  
H     0.4995880   -1.3897790    2.3828840  
H    -2.7534730    2.1617510   -2.1968280  
H    -1.7136900   -2.4215570    3.5087060  
C    -6.6430990   -0.3715280    3.0247490  
C    -7.6841590   -0.5116360    2.1454230  
C    -7.1144540   -0.5381750    0.8280210  
C    -5.7106630   -0.3855730    0.9803570  
N    -5.4538650   -0.2537440    2.3293260  
C    -4.8137610   -0.3346450   -0.1160410  
C    -5.3904210   -0.5635510   -1.3769770  
O    -4.6046320   -0.6638950   -2.4841860  
C    -6.7898460   -0.7258040   -1.5345900  
O    -7.1793640   -0.9164920   -2.8506160  
C    -7.6565500   -0.6909870   -0.4617240  
H    -8.7329820   -0.5851940    2.3991110  
H    -4.5401620   -0.5076480    2.6949900  
H    -5.2012800   -0.7823260   -3.2439380  
H    -8.1392430   -1.0380440   -2.8862690  
H    -8.7285130   -0.8059390   -0.6114660  
H    -6.6463280   -0.3364490    4.1054640  
C     4.3174230   -3.7376500   -2.3962240  
C     3.6591010   -2.6476330   -1.8892380  
C     4.4828560   -2.1006910   -0.8471690  
C     5.6469900   -2.9107070   -0.7743470  
N     5.5157690   -3.9015860   -1.7260550  
C     6.6926580   -2.6630130    0.1228660  
C     6.5564500   -1.5726880    0.9666360  
O     7.5361370   -1.2892350    1.8759990  
C     5.4040880   -0.7484070    0.9117330  
O     5.4179200    0.2777670    1.8406020  
C     4.3568550   -0.9828610    0.0205100  
H     2.7053130   -2.2697490   -2.2280780  
H     6.1925930   -4.6254660   -1.9085800  
H     7.5807510   -3.2837680    0.1836910  
H     7.2256610   -0.5288390    2.3975260  
H     4.5543790    0.7220690    1.8400250  
H     4.0333510   -4.4178890   -3.1867170  
