60


C     4.8202370   -0.2980830    2.0669800  
C     3.5272560   -0.5571380    1.6978360  
C     3.5725110   -1.4520730    0.5774360  
C     4.9481140   -1.7121970    0.3216960  
N     5.6822920   -0.9928880    1.2396330  
C     5.3970810   -2.5681110   -0.6875740  
C     4.4304720   -3.2008130   -1.4523590  
O     4.7949910   -4.0535470   -2.4514290  
C     3.0502020   -2.9842050   -1.2153890  
O     2.2243910   -3.6617920   -2.0927000  
C     2.5877090   -2.1011310   -0.2247710  
H     2.6542310   -0.1072230    2.1412200  
H     6.6877750   -0.9877540    1.3028480  
H     6.4491150   -2.7555540   -0.8782600  
H     3.9557000   -4.3772340   -2.8307420  
H     1.5531420   -4.1424320   -1.5632250  
H     5.2019860    0.3461060    2.8460020  
C     0.2119900    1.6279680    0.1287670  
C    -1.0621160    1.1272200    0.1631830  
C    -0.9230100   -0.3069490    0.1163700  
C     0.5577480   -0.5363710    0.0440950  
N     1.2048640    0.5864200    0.0465390  
C     1.1389670   -1.8806940   -0.0445300  
C     0.2189440   -2.8894700   -0.0096170  
O     0.5592090   -4.2080430   -0.0878790  
C    -1.2508520   -2.7014450    0.0851110  
O    -1.9581070   -3.7140850    0.0598190  
C    -1.8144140   -1.3335420    0.1585680  
H    -1.9855700    1.6754050    0.2758380  
H    -0.3025560   -4.6861880   -0.0381350  
C    -1.4439550    5.3525940   -1.6531900  
C    -1.2430800    4.0628850   -1.2625480  
C    -0.0350770    4.0325170   -0.4744730  
C     0.4681530    5.4256840   -0.4484750  
N    -0.4442370    6.1774080   -1.1654100  
C     1.6228610    5.8318810    0.1406500  
C     2.4368680    4.8293130    0.8148040  
O     3.5256550    5.0735730    1.3102480  
C     1.8627540    3.3745080    0.9322650  
O     2.3855440    2.6178830    1.7285330  
C     0.6496470    3.0095190    0.1485620  
H    -1.8730060    3.2226750   -1.5093190  
H     1.9830680    6.8555790    0.1080910  
H    -2.2407510    5.7679660   -2.2559200  
H    -0.3480870    7.1609850   -1.3644430  
C    -4.9250190    0.7268380   -2.3169390  
C    -3.7247590    0.2739980   -1.8793370  
C    -4.0229860   -0.4654980   -0.6574370  
C    -5.5096240   -0.3504010   -0.5199380  
N    -6.0277770    0.3508890   -1.4886900  
C    -6.2221900   -0.9764740    0.5622620  
C    -5.5028380   -1.6848190    1.4633300  
O    -6.0335500   -2.3123670    2.5233140  
C    -4.0038360   -1.8033690    1.3719280  
O    -3.4279060   -2.3860230    2.2838700  
C    -3.2756860   -1.1727080    0.2279330  
H    -2.7531090    0.4027050   -2.3339210  
H    -7.2991910   -0.8743050    0.6346540  
H    -5.2742840   -2.7086700    3.0045160  
H    -5.1287090    1.3137260   -3.2051090  
