64


C    -3.4386600   -0.1778300    2.7881870  
C    -3.1452160   -0.0949350    1.4443160  
C    -3.9377930   -1.1157330    0.7919590  
C    -4.6826500   -1.7764220    1.8017890  
N    -4.3504850   -1.1890730    3.0073060  
C    -5.5580380   -2.8352200    1.5286380  
C    -5.6826090   -3.2373490    0.2082630  
O    -6.5283900   -4.2576890   -0.1173610  
C    -4.9341460   -2.5974760   -0.8155550  
O    -5.1539040   -3.1204270   -2.0766740  
C    -4.0663580   -1.5572210   -0.5409200  
H    -4.7646060   -1.4143740    3.8980450  
H    -6.1341610   -3.3371630    2.2993800  
H    -6.4954510   -4.3568140   -1.0847800  
H    -4.7563530   -2.5385600   -2.7414810  
H    -3.4993920   -1.0894880   -1.3419710  
H    -3.0772900    0.4298380    3.6058980  
C    -0.9207780    1.0883820    1.2806820  
C    -2.1835760    0.8261540    0.8381530  
C    -2.3860570    1.6815550   -0.3276250  
C    -1.1290610    2.4457780   -0.5180000  
N    -0.2700980    2.0525330    0.5006560  
C    -0.9186720    3.3352240   -1.5210110  
C    -1.9971950    3.5782380   -2.4720490  
O    -1.8982490    4.3539280   -3.4122230  
C    -3.3502360    2.8018060   -2.2716340  
O    -4.2661690    2.9932670   -3.0578180  
C    -3.4527040    1.8651670   -1.1501270  
H     0.0085400    3.8842160   -1.6386100  
H    -4.3900610    1.3353580   -1.0158950  
H    -0.3964450    0.6547250    2.1223740  
C     3.4365550   -0.2484680    0.2610010  
C     4.2886400    0.7961690    0.5908430  
C     3.4903640    1.9657380    0.7911840  
C     2.1429580    1.5778040    0.5707340  
N     2.1388130    0.2456290    0.2439440  
C     1.0699330    2.4789130    0.6956620  
C     1.3681700    3.7961480    1.0426720  
O     0.3639500    4.7022150    1.1898940  
C     2.7161270    4.1949400    1.2421550  
O     2.8459410    5.5305690    1.5703550  
C     3.7685120    3.3060400    1.1284760  
H     5.3532110    0.7179980    0.7598870  
H     1.3296260   -0.3451330    0.1157010  
H     0.7772450    5.5565120    1.4063480  
H     3.7815480    5.7449190    1.6993450  
H     4.7902070    3.6410680    1.2949550  
C     7.1012680   -2.1283330   -1.3221280  
C     6.6739790   -3.4285550   -1.2857670  
C     5.3264720   -3.4154560   -0.7895930  
C     4.9942770   -2.0621430   -0.5238490  
N     6.1021360   -1.3016150   -0.8395990  
C     3.7284450   -1.6481100   -0.0431680  
C     2.7854850   -2.6723610    0.1128270  
O     1.5104000   -2.3777940    0.5340860  
C     3.1053190   -4.0271650   -0.1417090  
O     2.0521050   -4.8929850    0.0926420  
C     4.3584680   -4.4149970   -0.5749440  
H     7.2475530   -4.2969260   -1.5792330  
H     6.0844080   -0.2969160   -0.9259240  
H     1.0208970   -3.2187080    0.5730440  
H     2.3185710   -5.7972590   -0.1285700  
H     4.5801150   -5.4633410   -0.7628660  
H     8.0464610   -1.7126150   -1.6417720  
