62


C     1.0593750    0.7811610    0.4663300  
C     2.1440060   -0.0058490    0.1695780  
C     3.3149540    0.7988030    0.3928760  
C     2.8672380    2.0768130    0.8204170  
N     1.4852340    2.0448180    0.8487500  
C     3.7413820    3.1174390    1.1501810  
C     5.0981440    2.8541910    1.0487650  
O     6.0006760    3.8229790    1.3614110  
C     5.5712830    1.5863600    0.6122480  
O     6.9419570    1.5148330    0.5376120  
C     4.7098560    0.5436350    0.2726780  
H     2.1063620   -1.0265600   -0.1825000  
H     0.8869070    2.7608430    1.2325170  
H     3.4033190    4.0934740    1.4816270  
H     6.8864250    3.4393100    1.2320450  
H     7.2120150    0.5895570    0.3993510  
C    -0.8591070   -0.6431710    1.1264930  
C    -2.1981210   -0.7282840    0.9112030  
C    -2.5742500    0.3725300    0.0579390  
C    -1.3278070    1.1227790   -0.2108850  
N    -0.3048850    0.4553650    0.4675550  
C    -1.2430560    2.2510430   -0.9614020  
C    -2.4731030    2.7902150   -1.5299190  
O    -2.5106650    3.8358460   -2.1587300  
C    -3.8009550    1.9772540   -1.3359930  
O    -4.7768310    2.3156660   -1.9768910  
C    -3.7894130    0.7810100   -0.4475480  
H    -2.8618980   -1.4675380    1.3311530  
H    -0.3143130    2.7816880   -1.1403320  
H    -0.2103620   -1.2720080    1.7210110  
C    -5.0332680    0.0744270   -0.1940060  
C    -5.2453310   -1.2764240   -0.1055770  
C    -6.6564020   -1.4365610    0.1667860  
C    -7.1750430   -0.0321870    0.2374940  
N    -6.2382800    0.8412540    0.0234010  
C    -8.5618630    0.2434630    0.5202290  
C    -9.3896250   -0.8122340    0.6980190  
O   -10.7016690   -0.7092340    0.9582600  
C    -8.8974810   -2.2381400    0.6173670  
O    -9.7255990   -3.1315760    0.7972320  
C    -7.4780660   -2.4968500    0.3427730  
H    -4.5322670   -2.0695120   -0.2808610  
H    -8.9114050    1.2684990    0.5713890  
H   -11.0229810   -1.6357460    1.0321190  
H    -7.1605290   -3.5344200    0.3032580  
C     7.6097910   -2.4344760    2.0295220  
C     6.7755730   -1.3625870    1.8365090  
C     6.1793150   -1.5190720    0.5342770  
C     6.6970650   -2.7235640   -0.0122510  
N     7.5648140   -3.2552210    0.9199220  
C     6.3200100   -3.2118640   -1.2687990  
C     5.4022930   -2.4643800   -1.9881190  
O     5.0022580   -2.8850800   -3.2216730  
C     4.8762180   -1.2520280   -1.4667040  
O     4.0020580   -0.6228020   -2.3255320  
C     5.2424560   -0.7552500   -0.2166640  
H     6.5859890   -0.5716210    2.5484100  
H     8.0829840   -4.1125910    0.8078120  
H     6.7127700   -4.1320280   -1.6889320  
H     4.3838770   -2.2166900   -3.5654030  
H     3.6779150    0.1950410   -1.9118640  
H     8.2331430   -2.6874750    2.8754050  
