62


C     5.4657390   -0.4389710    2.2579410  
C     6.8014060   -0.1868720    2.2383580  
C     7.1303570    0.3024280    0.9244020  
C     5.9387670    0.3050260    0.1607530  
N     4.9059660   -0.1658380    0.9976550  
C     5.8987390    0.8007490   -1.1458670  
C     7.0860630    1.2579200   -1.6997560  
O     7.0911090    1.7369880   -2.9766280  
C     8.2921370    1.2335500   -0.9557710  
O     9.3861310    1.7178360   -1.6416760  
C     8.3240690    0.7659480    0.3463990  
H     7.4871700   -0.3497340    3.0587670  
H     5.0005220    0.8166540   -1.7477960  
H     8.0052120    1.9940540   -3.1870380  
H    10.1769670    1.6458750   -1.0869210  
H     9.2521080    0.7730040    0.9142450  
H     4.8381950   -0.8521190    3.0328740  
C     1.3091170    1.0880400    3.1898350  
C     2.6094480    0.8836180    2.8704380  
C     2.5809540    0.1161900    1.6323420  
C     1.1403110   -0.0973310    1.3543410  
N     0.4083630    0.4999110    2.2636330  
C     0.6506500   -0.8404180    0.1944110  
C     1.6110430   -1.1446680   -0.7339650  
O     1.3412650   -1.6934700   -1.9293360  
C     3.0697320   -0.9305040   -0.5124320  
O     3.8455750   -1.3407150   -1.3745660  
C     3.5412660   -0.2665830    0.7457290  
H     3.4872580    1.2459640    3.3851260  
H     2.2151860   -1.8765980   -2.3373900  
H     0.9040220    1.6376440    4.0306480  
C    -3.1932360    1.3499310    0.6803140  
C    -4.0503900    0.3839060    0.1700370  
C    -3.2115250   -0.7703150   -0.1092480  
C    -1.8810140   -0.4037330    0.2119400  
N    -1.9049080    0.8975110    0.6806020  
C    -0.7597210   -1.2474750    0.0136120  
C    -1.0653560   -2.5500110   -0.4180180  
O    -0.0938940   -3.4950570   -0.5049200  
C    -2.3929170   -2.9261980   -0.7401630  
O    -2.5065650   -4.2356360   -1.1747780  
C    -3.4560630   -2.0570360   -0.6227320  
H    -1.1646680    1.2176610    1.3059690  
H    -0.5274930   -4.3134500   -0.8071960  
H    -3.4396240   -4.4963740   -1.1614350  
H    -4.4627250   -2.3814330   -0.8597040  
H    -3.4367710    2.3174860    1.0955410  
C    -6.4035070    3.9026140   -1.1560650  
C    -5.4064980    3.0247440   -0.8801740  
C    -6.0197830    1.7910440   -0.4235120  
C    -7.4781350    2.0235210   -0.4722670  
N    -7.6451120    3.3262760   -0.8920590  
C    -8.4390070    1.1047910   -0.1676960  
C    -8.0057670   -0.2163270    0.2202300  
O    -8.7639110   -1.1416840    0.4822680  
C    -6.4538240   -0.4976130    0.2998770  
O    -6.1066670   -1.6178390    0.6344960  
C    -5.4816140    0.5880810   -0.0174130  
H    -4.3498570    3.2010300   -1.0078740  
H    -9.5028110    1.3149670   -0.2168930  
H    -6.3479270    4.9153580   -1.5320170  
H    -8.5379120    3.7533220   -1.0818910  
