62


C     2.5126760    1.4053100   -0.7744450  
C     1.1844900    0.9881510   -0.7852870  
C     1.2061490   -0.4484430   -1.0246030  
C     2.5577550   -0.8332880   -1.1430050  
N     3.3268430    0.3270360   -0.9846950  
C     2.9773280   -2.1405830   -1.3909650  
C     1.9831540   -3.0991400   -1.5290250  
O     2.3193690   -4.3934600   -1.7705480  
C     0.6125710   -2.7366090   -1.4269530  
O    -0.2507370   -3.7944060   -1.5982670  
C     0.2145310   -1.4338520   -1.1819110  
H     4.0220000   -2.4170300   -1.4751890  
H     1.4930670   -4.9046700   -1.8289990  
H    -1.1676400   -3.4920180   -1.5127970  
H    -0.8351730   -1.1680430   -1.1178850  
H     2.9435030    2.3813530   -0.6067790  
C     0.0553870    1.8431950   -0.5917540  
C    -0.0216630    3.2189120   -0.5646730  
C    -1.3924550    3.5388890   -0.3478140  
C    -2.0761950    2.2007500   -0.2281390  
N    -1.2354420    1.2277460   -0.3849930  
C    -3.5152860    2.0838870    0.0202070  
C    -4.1882950    3.2769110    0.0496970  
O    -5.5101950    3.3963770    0.2329780  
C    -3.5229960    4.6308100   -0.0931200  
O    -4.2871280    5.6029680   -0.0264680  
C    -2.0945430    4.7055330   -0.2812950  
H     0.7795820    3.9269320   -0.7237660  
H    -5.6652640    4.3776850    0.2113080  
H    -1.6439120    5.6883280   -0.3721850  
C    -4.1518640    0.7926110    0.2194750  
C    -3.5778460   -0.4420420    0.4187250  
C    -4.6335610   -1.4000110    0.5925280  
C    -5.9049610   -0.6407950    0.4794100  
N    -5.5480550    0.6673320    0.2482290  
C    -7.1395950   -1.1952290    0.5930020  
C    -7.2378180   -2.6307260    0.8352780  
O    -8.3044810   -3.2168390    0.9488770  
C    -5.9034700   -3.4573400    0.9520090  
O    -5.9695780   -4.6630310    1.1460740  
C    -4.6347230   -2.7447450    0.8196490  
H    -2.5179220   -0.6301260    0.4531980  
H    -8.0596010   -0.6246490    0.5106660  
H    -3.7204960   -3.3235260    0.9163750  
H    -6.1784120    1.4537160    0.2038460  
C     5.4718340    0.5147530   -2.1583940  
C     6.7891010    0.4458460   -1.8076850  
C     6.8538090    0.2474670   -0.3829500  
C     5.5248980    0.1989450    0.1011250  
N     4.6960070    0.3796820   -1.0044000  
C     5.2008800    0.0118060    1.4474570  
C     6.2578020   -0.1291360    2.3347490  
O     6.0080950   -0.3158980    3.6605460  
C     7.6021530   -0.0797060    1.8756450  
O     8.5361930   -0.2319570    2.8804260  
C     7.9087570    0.1058170    0.5402890  
H     7.6265510    0.5306890   -2.4866130  
H     4.1795970   -0.0320610    1.8091430  
H     6.8670560   -0.4036360    4.1089040  
H     9.4277340   -0.2239080    2.5018900  
H     8.9455530    0.1401320    0.2120040  
H     4.9879560    0.6505250   -3.1144280  
