64


C    -4.3956610   -0.5584350   -0.3525920  
C    -4.9001110   -1.5513910   -1.1544460  
C    -6.1562950   -1.9474610   -0.5830740  
C    -6.3672350   -1.1432780    0.5677050  
N    -5.2818610   -0.2913250    0.6809230  
C    -7.5061350   -1.2559860    1.3722180  
C    -8.4535450   -2.2018420    1.0099700  
O    -9.5799600   -2.3587300    1.7646070  
C    -8.2646100   -3.0101390   -0.1418650  
O    -9.2978990   -3.8985970   -0.3744840  
C    -7.1386640   -2.8934860   -0.9363430  
H    -4.4432940   -1.9209950   -2.0616170  
H    -5.0603590    0.2791600    1.4829600  
H    -7.6695550   -0.6432170    2.2527150  
H   -10.1092840   -3.0607670    1.3486370  
H    -9.1018430   -4.4226570   -1.1649630  
H    -7.0174460   -3.5239590   -1.8150020  
C    -1.9470500   -0.4734280   -0.6498250  
C    -0.9710580    0.4879840   -0.7117970  
C    -1.6051460    1.7672020   -0.5191070  
C    -2.9870570    1.5114180   -0.3512410  
N    -3.1797840    0.1305890   -0.4355800  
C    -3.9235040    2.5389600   -0.1755980  
C    -3.4467800    3.8407180   -0.1485260  
O    -4.3155630    4.8761540    0.0290230  
C    -2.0604880    4.1105050   -0.3051610  
O    -1.7456500    5.4533250   -0.2573020  
C    -1.1413620    3.0964020   -0.4964570  
H    -4.9870380    2.3552240   -0.0754280  
H    -3.7925820    5.6965000    0.0246330  
H    -0.7842190    5.5634490   -0.3026410  
H    -0.0850780    3.3188790   -0.6242710  
H    -1.8717370   -1.5485350   -0.7130280  
C     0.9077540   -0.4151300   -2.0672030  
C     2.2716650   -0.4932940   -1.9808770  
C     2.6566220    0.1578620   -0.7601140  
C     1.4625730    0.6048720   -0.1385250  
N     0.3973450    0.2517530   -0.9602110  
C     1.4493120    1.2429360    1.1076840  
C     2.6717760    1.4535240    1.7244800  
O     2.7209780    2.0848800    2.9338120  
C     3.8824610    1.0365530    1.1125760  
O     5.0041440    1.3728020    1.8457020  
C     3.9047350    0.3836670   -0.1201480  
H     2.9229690   -0.9692920   -2.7002030  
H     0.5346660    1.5619380    1.5938480  
H     3.6553320    2.1100170    3.2044510  
H     5.7960710    0.9773190    1.4496230  
H     0.2305180   -0.7625420   -2.8342120  
C     5.5655580    0.2357410   -2.0307730  
C     5.1725210   -0.0310100   -0.7498270  
C     6.2489960   -0.8236780   -0.1571830  
C     7.2938520   -0.9717670   -1.2030570  
N     6.8095040   -0.3132280   -2.3151090  
C     8.4620640   -1.6409390   -1.0348400  
C     8.7240270   -2.2709320    0.2567150  
O     9.7516650   -2.8827670    0.5030790  
C     7.6216270   -2.1537260    1.3715170  
O     7.8105080   -2.6931510    2.4496710  
C     6.4015860   -1.3955390    1.0697590  
H     9.2119970   -1.7377130   -1.8140700  
H     5.6407810   -1.3411900    1.8424660  
H     5.0370760    0.8000610   -2.7875630  
H     7.2962550   -0.2288370   -3.1936310  
