62


C    -4.3092800   -1.2714940    1.9545020  
C    -5.0609560   -2.4082560    1.8765810  
C    -5.9873150   -2.2322990    0.7917730  
C    -5.7560600   -0.9440240    0.2479590  
N    -4.7142150   -0.3610410    0.9744810  
C    -6.4614170   -0.4610950   -0.8599510  
C    -7.4305540   -1.2840560   -1.4120180  
O    -8.1514350   -0.8553130   -2.4902290  
C    -7.6837600   -2.5712580   -0.8713340  
O    -8.6765550   -3.2731380   -1.5308520  
C    -6.9764920   -3.0512190    0.2154910  
H    -4.9795180   -3.2681480    2.5278940  
H    -6.3010740    0.5252820   -1.2768040  
H    -8.7944210   -1.5537060   -2.7009930  
H    -8.8529010   -4.0996770   -1.0580030  
H    -7.1769120   -4.0462490    0.6085350  
H    -3.5331400   -0.9893460    2.6508160  
C    -0.5044050    0.8009490    0.4883660  
C    -1.6783870    0.1040260    0.6327960  
C    -2.7618710    1.0465980    0.6564880  
C    -2.1485770    2.3851270    0.5205110  
N    -0.7865890    2.1728670    0.3697290  
C    -2.8256240    3.5610930    0.5258280  
C    -4.2751570    3.5153250    0.6416650  
O    -4.9847540    4.5089510    0.6083200  
C    -4.9693850    2.1105920    0.8023510  
O    -6.1750380    2.0755760    0.9783150  
C    -4.1233450    0.8991800    0.7655970  
H    -1.7747450   -0.9712830    0.6460310  
H    -2.3453930    4.5288710    0.4206670  
H    -0.1008560    2.8824960    0.5853660  
C     1.3357620   -0.8137900    1.0437270  
C     0.8591960    0.3310200    0.4294300  
C     1.9920780    0.9357500   -0.2433250  
C     3.1116680    0.1089250    0.0115990  
N     2.6766820   -0.9407450    0.8002560  
C     4.4092250    0.3894830   -0.4687120  
C     4.5385190    1.5304220   -1.2647210  
O     5.7413580    1.8295850   -1.8171880  
C     3.4180820    2.3510220   -1.5560340  
O     3.7194950    3.4177500   -2.3734850  
C     2.1588620    2.0733070   -1.0580230  
H     3.2586150   -1.7015620    1.1188130  
H     5.6391720    2.6594300   -2.3157140  
H     2.9136820    3.9098350   -2.5906280  
H     1.3147790    2.7052120   -1.3222160  
H     0.8117860   -1.5281320    1.6620870  
C     5.4301170   -3.9562240   -0.8890900  
C     4.7610610   -2.7794810   -0.9681300  
C     5.6516380   -1.7955680   -0.3571330  
C     6.8520130   -2.5956970    0.0373640  
N     6.7142150   -3.8546740   -0.2724560  
C     7.9970030   -1.9894970    0.6648800  
C     7.9521200   -0.6582190    0.8983170  
O     8.9412270    0.0375160    1.4804440  
C     6.7426040    0.1734730    0.5540760  
O     6.7534970    1.3467250    0.9078610  
C     5.5730470   -0.4566220   -0.1428220  
H     3.7964940   -2.5884960   -1.4165730  
H     8.8551670   -2.5958900    0.9321640  
H     8.6069440    0.9581500    1.5552050  
H     5.1068400   -4.9278000   -1.2442610  
