60


C     3.0269000   -2.5642660   -0.6742390  
C     3.6864740   -1.3828660   -0.3308870  
C     5.0910850   -1.7324310   -0.1923720  
C     5.2021820   -3.1158140   -0.4579850  
N     3.9240130   -3.5837780   -0.7463700  
C     6.4144170   -3.8109470   -0.4169210  
C     7.5499260   -3.0803490   -0.0982540  
O     8.7614430   -3.6988960   -0.0431250  
C     7.4587290   -1.6886000    0.1706750  
O     8.6701010   -1.1021310    0.4702850  
C     6.2539650   -1.0101020    0.1288930  
H     3.6976430   -4.5362410   -0.9925710  
H     6.4967410   -4.8730720   -0.6226340  
H     9.4224530   -3.0213520    0.1828040  
H     8.5425150   -0.1521620    0.6128900  
H     6.1878200    0.0540740    0.3311520  
H     1.9791550   -2.7328590   -0.8782210  
C     3.0702320   -0.1041560   -0.1669080  
C     1.7314730    0.2480370   -0.2771410  
C     1.6722110    1.6567170   -0.0652200  
C     3.1022180    2.0476000    0.1850980  
N     3.9028670    1.0187840    0.1357650  
C     3.4878040    3.4082350    0.4274180  
C     2.5044130    4.3384650    0.4223080  
O     2.7016220    5.6414700    0.6308250  
C     1.0401170    3.9798510    0.2199870  
O     0.2426390    4.9060730    0.3663310  
C     0.6582130    2.5882490   -0.0613110  
H     0.9119700   -0.3949160   -0.5664120  
H     4.5277850    3.6636330    0.5964640  
H     1.7986050    6.0392810    0.6053400  
C    -1.9646490   -0.3595640    1.8764140  
C    -3.1459730   -0.0898060    1.2475880  
C    -2.8693300    0.9917110    0.3036230  
C    -1.4326270    1.3119890    0.4473380  
N    -0.9504010    0.4794910    1.4422360  
C    -0.7648100    2.2810410   -0.2507630  
C    -1.5529770    3.0169810   -1.2675570  
O    -1.0446080    3.7828040   -2.0661210  
C    -3.1003640    2.7603090   -1.3550340  
O    -3.7684890    3.4588790   -2.1001160  
C    -3.6750140    1.6887740   -0.5416220  
H    -4.7396310    1.4989990   -0.6311540  
H    -1.7610340   -1.1082960    2.6311530  
H     0.0352730    0.3346280    1.6139590  
C    -5.0465760   -0.8514370    2.7250200  
C    -4.4359510   -0.7276420    1.5111970  
C    -5.3029620   -1.4027060    0.5460810  
C    -6.4617660   -1.9213480    1.3143180  
N    -6.2333850   -1.5670910    2.6304210  
C    -7.5006180   -2.6055790    0.7720770  
C    -7.4797770   -2.8763080   -0.6628080  
O    -8.3672590   -3.4855340   -1.2394880  
C    -6.2447390   -2.3657300   -1.4919500  
O    -6.1921440   -2.6081490   -2.6865950  
C    -5.1935200   -1.6188680   -0.7901030  
H    -8.3426130   -2.9715740    1.3516690  
H    -4.3531100   -1.2614190   -1.3763220  
H    -4.7206810   -0.4681130    3.6831910  
H    -6.8832250   -1.7152330    3.3866250  
