62


C     4.0106660   -2.1001610   -1.4538420  
C     4.3986840   -1.0056120   -0.6966290  
C     5.8027530   -1.1979790   -0.3859390  
C     6.1929840   -2.4173340   -0.9907520  
N     5.0773310   -2.9369030   -1.6283450  
C     7.4869620   -2.9392100   -0.8912740  
C     8.4121410   -2.2150490   -0.1556630  
O     9.6860660   -2.6756250   -0.0268360  
C     8.0367660   -0.9996990    0.4780490  
O     9.0591760   -0.4079290    1.1877950  
C     6.7547260   -0.4895370    0.3754090  
H     5.0605450   -3.7900180   -2.1666870  
H     7.7824440   -3.8755090   -1.3530380  
H    10.1686030   -2.0486510    0.5395980  
H     8.7280200    0.3710910    1.6590460  
H     6.4895540    0.4233940    0.9029850  
H     3.0525520   -2.3146810   -1.9049450  
C     3.5412440    0.0939210   -0.3367940  
C     2.1726150    0.1504790   -0.2003500  
C     1.7962020    1.4964560    0.1118620  
C     3.0587230    2.2670430    0.1450840  
N     4.0844570    1.3573330   -0.0582760  
C     3.1542670    3.6083020    0.3261620  
C     1.9233940    4.3554530    0.5186920  
O     1.8887660    5.5670650    0.6710480  
C     0.5629380    3.5627460    0.5354000  
O    -0.4561790    4.2122170    0.7218060  
C     0.5672110    2.0984870    0.3357850  
H     1.5074240   -0.6944640   -0.2858600  
H     4.0966050    4.1473670    0.3329810  
H     4.9892670    1.6360720   -0.4107840  
C    -0.8163860    0.0769000    0.9435440  
C    -0.6682950    1.3293110    0.4134610  
C    -2.0260950    1.6547280   -0.0906030  
C    -2.8355120    0.4309670    0.1936120  
N    -2.1150840   -0.4591600    0.8311610  
C    -4.2346580    0.2958540   -0.1783680  
C    -4.8050940    1.4223110   -0.7101000  
O    -6.1010140    1.5272800   -1.0308820  
C    -4.0251950    2.6672300   -0.9948330  
O    -4.6262990    3.6173560   -1.4982880  
C    -2.5890210    2.7352640   -0.6583910  
H    -6.1990810    2.4347560   -1.3973910  
H    -2.0771700    3.6721650   -0.8360730  
H    -0.0611540   -0.5059760    1.4562450  
C    -4.7568350   -2.4699060    3.2905630  
C    -5.7044240   -3.2835500    2.7293070  
C    -5.9056400   -2.8228790    1.3836940  
C    -5.0536400   -1.7024120    1.1980130  
N    -4.3888990   -1.4868480    2.3886830  
C    -4.9971090   -0.9638550   -0.0080250  
C    -5.7692770   -1.4690960   -1.0634420  
O    -5.7029380   -0.8963560   -2.2988190  
C    -6.6174110   -2.5918360   -0.8887240  
O    -7.3207580   -2.9383040   -2.0318460  
C    -6.7140530   -3.2569450    0.3166240  
H    -6.2071170   -4.1102360    3.2128500  
H    -3.4947500   -1.0096790    2.3966360  
H    -6.3600840   -1.3493840   -2.8552420  
H    -7.9219800   -3.6690230   -1.8268140  
H    -7.3820600   -4.1092950    0.4268800  
H    -4.3125940   -2.4968680    4.2760250  
