62


C     1.9669080   -0.9424920   -0.3178570  
C     3.2384820   -0.4825310   -0.5439950  
C     3.2477550    0.9298650   -0.2555840  
C     1.9359030    1.2696340    0.1491330  
N     1.1570410    0.1129990    0.0925920  
C     1.5792560    2.5687490    0.5314140  
C     2.5669020    3.5406630    0.4859490  
O     2.2748940    4.8207520    0.8504830  
C     3.8860830    3.2168150    0.0660770  
O     4.7492790    4.2928470    0.0695770  
C     4.2359650    1.9319340   -0.3027080  
H     0.5789420    2.8341130    0.8542090  
H     3.0891680    5.3435880    0.7491400  
H     5.6360610    3.9996920   -0.1880340  
H     5.2508810    1.6971740   -0.6129420  
H     1.5562710   -1.9348820   -0.4322580  
C    -0.7221400   -0.7414490    1.4482010  
C    -0.2017190    0.0044150    0.4337000  
C    -1.3156110    0.6273900   -0.2682790  
C    -2.5336910    0.1808020    0.4391520  
N    -2.1041120   -0.6215690    1.4851830  
C    -3.8160250    0.5058720    0.0899260  
C    -3.9667220    1.3726440   -1.0990710  
O    -5.0526630    1.7462050   -1.5086610  
C    -2.6757660    1.8490870   -1.8662000  
O    -2.8172290    2.5410500   -2.8606550  
C    -1.3684750    1.4324960   -1.3615620  
H    -0.4812340    1.7702310   -1.8865290  
H    -0.2011050   -1.3530500    2.1724690  
H    -2.7240430   -1.2242490    2.0063090  
C    -5.1321510    0.1821180    2.2190480  
C    -4.9890780    0.0809320    0.8625180  
C    -6.2248760   -0.5375890    0.3681710  
C    -7.0740490   -0.7821450    1.5590960  
N    -6.3455780   -0.3334720    2.6465680  
C    -8.3093680   -1.3426220    1.5305280  
C    -8.8501730   -1.7591440    0.2404310  
O    -9.9489150   -2.2765260    0.1119060  
C    -7.9582080   -1.5361590   -1.0340480  
O    -8.3749510   -1.9032740   -2.1199030  
C    -6.6442520   -0.8969360   -0.8702610  
H    -8.9125540   -1.5041840    2.4187040  
H    -6.0615710   -0.7158350   -1.7658530  
H    -4.4499450    0.6197610    2.9368230  
H    -6.7013990   -0.2706920    3.5879230  
C     4.3228970   -1.9692920   -2.2201510  
C     5.5185270   -2.6160570   -2.3724690  
C     6.3191220   -2.3004700   -1.2229590  
C     5.5415130   -1.4488590   -0.3961690  
N     4.3161360   -1.2520770   -1.0265730  
C     6.0032820   -0.9631630    0.8344870  
C     7.2814240   -1.3291970    1.2277070  
O     7.7836550   -0.8785610    2.4170770  
C     8.0785310   -2.1706060    0.4082240  
O     9.3289620   -2.4432160    0.9349660  
C     7.6147490   -2.6577130   -0.7998980  
H     5.8008190   -3.2385360   -3.2106830  
H     5.4033890   -0.3264790    1.4749430  
H     8.6748600   -1.2564570    2.5112850  
H     9.8035860   -3.0431750    0.3410940  
H     8.2413760   -3.3076200   -1.4080970  
H     3.4578530   -1.9267450   -2.8665230  
