66


C     4.4488480   -0.4960620   -0.3867690  
C     5.2577950   -1.0797990   -1.3388760  
C     6.6120900   -0.9970560   -0.8756050  
C     6.5797160   -0.3400330    0.3836630  
N     5.2601590   -0.0174480    0.6428320  
C     7.7317850   -0.0949340    1.1384290  
C     8.9455850   -0.5145540    0.6129430  
O    10.1018830   -0.3035430    1.3133970  
C     9.0000080   -1.1591680   -0.6487840  
O    10.2802060   -1.5113170   -1.0441340  
C     7.8588240   -1.4005840   -1.3933190  
H     4.9184900   -1.4779750   -2.2856000  
H     4.9005960    0.2476060    1.5474010  
H     7.7100560    0.4022500    2.1031720  
H    10.8276140   -0.6673230    0.7779820  
H    10.2369760   -1.9559010   -1.9032910  
H     7.9287070   -1.8989050   -2.3587290  
C     2.0676970   -1.2258200   -0.8125440  
C     3.0053260   -0.3353350   -0.3300770  
C     2.2595870    0.7704450    0.2322120  
C     0.8842770    0.4762140    0.0642510  
N     0.8011690   -0.7443570   -0.5772390  
C    -0.1623580    1.3375490    0.4665150  
C     0.2404680    2.5420900    1.0446030  
O    -0.6960790    3.4437440    1.4775530  
C     1.6133670    2.8631100    1.2011330  
O     1.8286450    4.1031720    1.7800580  
C     2.6224370    2.0028410    0.8121920  
H    -0.0649940   -1.1855280   -0.8533570  
H    -0.2069000    4.1842750    1.8766310  
H     2.7806500    4.2479470    1.8827770  
H     3.6659420    2.2900760    0.9201240  
H     2.2181140   -2.1859580   -1.2850720  
C    -2.0667550   -0.3082480    0.5255460  
C    -1.5669930    0.9465240    0.2648150  
C    -2.6549180    1.6958040   -0.3264880  
C    -3.7705090    0.8255750   -0.4100490  
N    -3.3926770   -0.4021060    0.1334580  
C    -4.9865910    1.2094150   -0.9934400  
C    -5.0812290    2.5051610   -1.4798160  
O    -6.2446960    2.9333590   -2.0533340  
C    -3.9788650    3.3929320   -1.3887170  
O    -4.2284590    4.6509360   -1.9078560  
C    -2.7759730    3.0041130   -0.8300990  
H    -5.8274710    0.5334850   -1.0992740  
H    -6.0985620    3.8507860   -2.3418870  
H    -3.4248550    5.1876210   -1.8418090  
H    -1.9458820    3.7005480   -0.7588380  
H    -1.5915080   -1.1549900    0.9978960  
C    -7.2852270   -1.0964090    2.0029000  
C    -7.3900300   -2.4265250    1.6891670  
C    -6.2073990   -2.7829760    0.9568780  
C    -5.4182590   -1.6070050    0.8605170  
N    -6.0909950   -0.5991580    1.5154820  
C    -4.1713080   -1.5824060    0.2080790  
C    -3.7172970   -2.7792210   -0.3458180  
O    -2.5124230   -2.8290000   -0.9963770  
C    -4.4925090   -3.9611290   -0.2375960  
O    -3.8977280   -5.0615720   -0.8296580  
C    -5.7208090   -3.9800930    0.3960810  
H    -8.2108000   -3.0793580    1.9521390  
H    -5.7966840    0.3654830    1.5420250  
H    -2.4222520   -3.7369060   -1.3366780  
H    -4.5210370   -5.8027590   -0.8334990  
H    -6.2902010   -4.9044350    0.4662010  
H    -7.9650640   -0.4513150    2.5412020  
