60


C     0.2229880   -4.0881380   -0.8102340  
C     0.7844540   -2.8856250   -0.4570770  
C     2.2080480   -3.0535060   -0.5043000  
C     2.4486020   -4.3997090   -0.8856860  
N     1.2215860   -5.0023660   -1.0673570  
C     3.7310090   -4.9416480   -1.0178390  
C     4.8085450   -4.1082720   -0.7616700  
O     6.0772780   -4.5837040   -0.8965410  
C     4.6083610   -2.7606780   -0.3733320  
O     5.7849140   -2.0704760   -0.1838460  
C     3.3242000   -2.2058250   -0.2322870  
H     0.2348050   -1.9942610   -0.1938440  
H     1.0800250   -5.9580300   -1.3554510  
H     3.9088390   -5.9687090   -1.3198450  
H     6.6833730   -3.8396620   -0.7332930  
H     5.6028700   -1.1127120   -0.1514460  
H    -0.8167850   -4.3671720   -0.9055160  
C     3.1454420   -0.8132500    0.1383990  
C     2.1576710    0.0740160   -0.2016170  
C     2.4363200    1.3423970    0.4114030  
C     3.6952640    1.1630910    1.1608750  
N     4.1366010   -0.1453600    0.9137800  
C     4.2919660    2.1147850    1.9134590  
C     3.6718980    3.4387700    1.9672250  
O     4.1521960    4.3684480    2.5938450  
C     2.3361410    3.6657190    1.1755500  
O     1.7671720    4.7378360    1.2946030  
C     1.7845360    2.5517110    0.3737270  
H     1.3427070   -0.1302380   -0.8778790  
H     5.2237050    1.9609040    2.4493240  
H     4.5927360   -0.6531350    1.6651790  
C    -2.3202800    0.7017200    0.3659370  
C    -1.0017520    0.9682520    0.6602700  
C    -0.6171590    2.0512410   -0.1994980  
C    -1.8565660    2.3479160   -0.9901330  
N    -2.8371430    1.5538390   -0.6634020  
C    -1.9085080    3.4069250   -1.9598580  
C    -0.7854370    4.1409710   -2.1352760  
O    -0.6775470    5.1561270   -2.9978900  
C     0.4980750    3.8514230   -1.3805840  
O     1.4793610    4.5158610   -1.7036160  
C     0.5326850    2.7745020   -0.3648640  
H    -0.3759090    0.4869230    1.3980820  
H    -2.8211650    3.6003150   -2.5121330  
H     0.2549080    5.4634670   -2.9188300  
C    -2.9114060   -1.0777490    2.0321460  
C    -3.2039560   -0.2693570    0.9589350  
C    -4.5802130   -0.5995410    0.5648800  
C    -5.0343040   -1.6603650    1.4949650  
N    -3.9690110   -1.8980380    2.3504680  
C    -6.2545560   -2.2505790    1.4743880  
C    -7.2092850   -1.8197600    0.4556640  
O    -8.3298580   -2.2929690    0.3506570  
C    -6.7535340   -0.6971470   -0.5453250  
O    -7.5328930   -0.3252340   -1.4067270  
C    -5.4004620   -0.1355130   -0.4110270  
H    -6.5575800   -3.0253700    2.1720710  
H    -5.0878140    0.6445160   -1.0943850  
H    -1.9997680   -1.1249770    2.6129620  
H    -3.9868800   -2.5461560    3.1233950  
