60


C     0.2592960    4.5749020   -0.1042270  
C    -0.3956430    3.3430340   -0.1132290  
C    -1.8191400    3.6431900   -0.0894820  
C    -1.9461850    5.0499390   -0.0699430  
N    -0.6591650    5.5790960   -0.0775070  
C    -3.1802540    5.7080400   -0.0484430  
C    -4.3198570    4.9160110   -0.0503640  
O    -5.5509280    5.4965210   -0.0379050  
C    -4.2128910    3.4992640   -0.0649570  
O    -5.4256710    2.8470070   -0.0613260  
C    -2.9870460    2.8596960   -0.0762740  
H    -0.4380800    6.5639480   -0.0859460  
H    -3.2756600    6.7888100   -0.0366850  
H    -6.2079140    4.7785860   -0.0619630  
H    -5.2856200    1.8935150   -0.1758730  
H    -2.9156570    1.7782430   -0.0710290  
H     1.3176570    4.7920360   -0.1311490  
C     0.2256970    2.0562270   -0.1592440  
C     1.5603530    1.6929850   -0.1278010  
C     1.5895740    0.2675900   -0.2406560  
C     0.1452090   -0.1252750   -0.3381690  
N    -0.6310270    0.9153530   -0.2776890  
C    -0.3039790   -1.5086950   -0.4808620  
C     0.7090540   -2.4251690   -0.5224940  
O     0.5201650   -3.7445510   -0.6674740  
C     2.1711670   -2.0719920   -0.3815660  
O     2.9442730   -3.0304370   -0.3231290  
C     2.5952990   -0.6665170   -0.2725020  
H     2.4171450    2.3512700   -0.0962440  
H     1.4320930   -4.1257220   -0.6280560  
C     4.8661920    1.6609710    2.7066080  
C     6.1236380    1.4709640    2.2310610  
C     6.0138110    0.6540000    1.0402250  
C     4.5673290    0.3825630    0.8595240  
N     3.9296910    1.0042870    1.9146900  
C     4.0280770   -0.3778750   -0.1439650  
C     4.9752510   -0.8938520   -1.1595270  
O     4.6067320   -1.4395980   -2.1841080  
C     6.5156450   -0.6740210   -0.9404010  
O     7.2969180   -1.1879180   -1.7255420  
C     6.9463210    0.1457760    0.1896030  
H     7.0392590    1.8466470    2.6638630  
H     8.0116490    0.3091950    0.3205030  
H     4.5369280    2.2135500    3.5768130  
H     2.9275620    1.1078840    1.9839110  
C    -2.6993080   -0.9872160   -1.0901750  
C    -1.7301140   -1.8071490   -0.5804390  
C    -2.4862580   -2.9812220   -0.0871250  
C    -3.9106540   -2.6558380   -0.4038250  
N    -4.0189460   -1.4939010   -0.9898590  
C    -4.9908960   -3.5458660   -0.0718800  
C    -4.6877140   -4.7003010    0.5676620  
O    -5.5905990   -5.6194290    0.9448380  
C    -3.2691790   -5.0471090    0.9234480  
O    -3.0723220   -6.1081140    1.5137680  
C    -2.1757590   -4.1211550    0.5603240  
H    -6.0096280   -3.2773590   -0.3289210  
H    -5.0699440   -6.3307020    1.3795420  
H    -1.1683370   -4.4250060    0.8147300  
H    -2.5460690   -0.0220010   -1.5493300  
