62


C    -4.1222260   -0.3476360    0.0522130  
C    -4.1659180   -1.6486110    0.4886640  
C    -5.4634580   -2.1565470    0.1471240  
C    -6.1722590   -1.1051820   -0.4912560  
N    -5.3335550   -0.0055370   -0.5319130  
C    -7.4856850   -1.2476520   -0.9526810  
C    -8.0966650   -2.4782500   -0.7675500  
O    -9.3728460   -2.6736810   -1.2032620  
C    -7.4058080   -3.5415450   -0.1248360  
O    -8.1508770   -4.6985340   -0.0131800  
C    -6.1093300   -3.3958400    0.3311820  
H    -3.3780140   -2.1603370    1.0235620  
H    -5.5071020    0.8517460   -1.0342240  
H    -8.0312480   -0.4456590   -1.4388860  
H    -9.6234920   -3.5841360   -0.9693810  
H    -7.6438020   -5.3682160    0.4690470  
H    -5.6014230   -4.2236560    0.8216630  
C    -1.7599120    0.2969070   -0.3230540  
C    -0.9205500    1.3536550   -0.1230640  
C    -1.7333540    2.4158420    0.4682820  
C    -3.1077150    1.8734600    0.5945550  
N    -3.0660530    0.5724470    0.0962350  
C    -4.1559120    2.5549530    1.1230810  
C    -3.9345770    3.9220140    1.5900270  
O    -4.8211950    4.6132830    2.0665420  
C    -2.4864690    4.5158700    1.4717430  
O    -2.2757890    5.6549990    1.8547130  
C    -1.4328550    3.6677870    0.9013690  
H    -5.1471570    2.1294070    1.2345780  
H    -0.4284800    4.0775960    0.8714810  
H    -1.5502420   -0.6652940   -0.7689510  
C     0.4973350    1.3945160   -0.4343390  
C     1.4436320    0.3893170   -0.4006060  
C     2.6907170    0.9468920   -0.8293560  
C     2.4530250    2.3178600   -1.1097240  
N     1.1213330    2.5681240   -0.8461510  
C     3.4564420    3.1921320   -1.5392840  
C     4.7308940    2.6687710   -1.6851140  
O     5.7468020    3.4703580   -2.1097650  
C     4.9961910    1.3002710   -1.4096880  
O     6.3091930    0.9484140   -1.6453510  
C     4.0031820    0.4211650   -0.9793590  
H     1.2698430   -0.6160000   -0.0429480  
H     0.6329110    3.4122450   -1.1034630  
H     3.2780300    4.2414500   -1.7495930  
H     6.5538750    2.9268580   -2.1308660  
H     6.4692940    0.0338520   -1.3649600  
C     3.6173000   -2.0721320   -1.2417280  
C     4.2938130   -1.0026920   -0.7269260  
C     5.3402120   -1.5631360    0.1277580  
C     5.2102500   -3.0404060    0.0451830  
N     4.1368710   -3.2782630   -0.7907090  
C     6.0127920   -3.9212090    0.6933930  
C     7.0801850   -3.3962120    1.5420340  
O     7.8565250   -4.1123860    2.1542300  
C     7.2214390   -1.8356330    1.6689050  
O     8.0921410   -1.3764910    2.3895840  
C     6.2947700   -0.9866940    0.9096280  
H     5.8998940   -4.9985530    0.6191530  
H     6.3926700    0.0887880    1.0218830  
H     2.7781360   -2.0657900   -1.9246320  
H     3.8175840   -4.1915930   -1.0732300  
