66


C     1.1257520    1.6373550   -0.1476810  
C    -0.2524380    1.5978140   -0.3118780  
C    -0.6335590    0.2256850   -0.4101410  
C     0.5518510   -0.5496450   -0.2887330  
N     1.5953030    0.3339540   -0.1464540  
C     0.5751520   -1.9635140   -0.3346750  
C    -0.6700380   -2.5574830   -0.5412070  
O    -0.7670300   -3.9320980   -0.6391590  
C    -1.8659750   -1.8171330   -0.6899120  
O    -2.9807750   -2.5905570   -0.9388400  
C    -1.8663880   -0.4288350   -0.6202120  
H    -0.9274240    2.4397940   -0.2710940  
H     2.5492810    0.0859540    0.0783120  
H    -1.7162950   -4.1349060   -0.7413130  
H    -3.7868090   -2.1052380   -0.6894650  
C     0.6489250    5.8057030   -1.5206510  
C     1.8125820    6.3071500   -1.0013240  
C     2.4878030    5.2184590   -0.3528570  
C     1.6665870    4.0708530   -0.5016630  
N     0.5451480    4.4636620   -1.2034980  
C     2.0165470    2.7895880   -0.0094150  
C     3.2701230    2.7119450    0.6102160  
O     3.7199950    1.5085610    1.0899420  
C     4.0963390    3.8496440    0.7718990  
O     5.2850550    3.5789400    1.4280760  
C     3.7221630    5.0977330    0.3136290  
H     2.1534890    7.3309490   -1.0714790  
H    -0.1278770    3.8204760   -1.5905480  
H     4.5975740    1.6595940    1.4817160  
H     5.8091530    4.3906100    1.4920600  
H     4.3749170    5.9574340    0.4501510  
H    -0.1319650    6.2949850   -2.0856460  
C     3.8722110   -1.9130780    2.7345410  
C     2.7066780   -1.6918610    2.0489610  
C     2.7405260   -2.5162250    0.8692010  
C     3.9674120   -3.2322570    0.9082540  
N     4.6409930   -2.8332660    2.0447970  
C     4.3342610   -4.1775400   -0.0564560  
C     3.4227920   -4.4191300   -1.0704530  
O     3.6936060   -5.3430290   -2.0344790  
C     2.1878300   -3.7186080   -1.1376050  
O     1.4090630   -4.0653950   -2.2250350  
C     1.8316530   -2.7442010   -0.2032880  
H     1.9151420   -1.0228750    2.3529180  
H     5.5192630   -3.2137710    2.3597430  
H     5.2691460   -4.7277070   -0.0213230  
H     2.9043640   -5.3507630   -2.6097360  
H     0.4945290   -4.2064530   -1.8986270  
H     4.2223180   -1.4927370    3.6668670  
C    -3.3156220    1.2148470   -1.8196240  
C    -4.6058830    1.6654110   -1.7519670  
C    -5.2268220    1.0050000   -0.6389680  
C    -4.2436020    0.1601940   -0.0591800  
N    -3.0736460    0.3005010   -0.7982430  
C    -4.4987410   -0.6312710    1.0727860  
C    -5.7752370   -0.5781440    1.6162070  
O    -6.0747680   -1.3255180    2.7174050  
C    -6.7723090    0.2527730    1.0419160  
O    -7.9902520    0.1938960    1.6929450  
C    -6.5117560    1.0417160   -0.0641490  
H    -5.0650720    2.3792760   -2.4222440  
H    -3.7348920   -1.2330700    1.5543940  
H    -6.9993920   -1.1349410    2.9520100  
H    -8.6081450    0.8150450    1.2801380  
H    -7.2904790    1.6785540   -0.4797920  
H    -2.5274570    1.4397380   -2.5235200  
