64


C    -0.3684810    5.6750380    0.0940710  
C     0.8739410    6.1712060   -0.1287820  
C     1.7483890    5.0538850   -0.3796090  
C     0.9720870    3.8728140   -0.2950090  
N    -0.3535060    4.2722430    0.0056380  
C     1.5278600    2.6053320   -0.5003450  
C     2.8873980    2.5502210   -0.7860750  
O     3.5021930    1.3425030   -0.9932970  
C     3.6758040    3.7217760   -0.8629680  
O     5.0056420    3.4916140   -1.1403970  
C     3.1185240    4.9733040   -0.6632340  
H     1.1504920    7.2166820   -0.1104030  
H     0.9417430    1.6997680   -0.4196660  
H     4.4633180    1.5002240   -0.9691180  
H     5.5068490    4.3159130   -1.0512130  
H     3.7292920    5.8708230   -0.7302650  
H    -1.2855340    6.1868950    0.3366740  
C    -1.4842870    3.5156290    0.1861890  
C    -2.7741540    3.9739590    0.3468190  
C    -3.5672730    2.8052870    0.5265790  
C    -2.5793020    1.6672400    0.4518100  
N    -1.3658640    2.0965790    0.2459560  
C    -3.0063070    0.2892990    0.5987630  
C    -4.3396970    0.0862860    0.8122600  
O    -4.8865120   -1.1169790    0.9853170  
C    -5.3490990    1.2160700    0.8628910  
O    -6.5214350    0.8785520    1.0585380  
C    -4.8972950    2.5835300    0.7124350  
H    -3.1367280    4.9897900    0.3179410  
H    -5.8508400   -0.9342380    1.1005320  
H    -5.6403350    3.3724060    0.7613760  
C    -0.9613380   -0.9466000    1.3004970  
C    -0.3363930   -2.1277510    0.9976710  
C    -1.1018420   -2.7296070   -0.0723120  
C    -2.1891670   -1.8736010   -0.3585080  
N    -2.0901440   -0.7744680    0.4978610  
C    -3.1171600   -2.1524390   -1.3677750  
C    -2.9430440   -3.3233530   -2.0914620  
O    -3.8227150   -3.6421110   -3.0885390  
C    -1.8605360   -4.1951340   -1.8108590  
O    -1.8214800   -5.3209810   -2.6146780  
C    -0.9432810   -3.9122450   -0.8150370  
H    -3.9522900   -1.5025280   -1.5993670  
H    -3.5252830   -4.4855980   -3.4705390  
H    -1.0399300   -5.8464130   -2.3884920  
H    -0.1103570   -4.5826730   -0.6138370  
H    -0.7005970   -0.1938940    2.0294260  
C     1.0675980   -3.4336400    2.7011420  
C     0.9084100   -2.6610070    1.5750590  
C     2.2254300   -2.5021800    1.0069910  
C     3.1399440   -3.1997630    1.8334690  
N     2.4036020   -3.7614950    2.8601450  
C     4.5153430   -3.2348520    1.5643190  
C     4.9639840   -2.5423420    0.4478510  
O     6.2977780   -2.5273050    0.1423740  
C     4.0569810   -1.8325350   -0.3818770  
O     4.6398400   -1.1727740   -1.4513570  
C     2.7011870   -1.8137520   -0.1206560  
H     2.7813850   -4.3034710    3.6208030  
H     5.2278660   -3.7627980    2.1904330  
H     6.3918770   -1.9712110   -0.6506990  
H     4.0119800   -0.4930750   -1.7520960  
H     2.0206920   -1.2624450   -0.7632790  
H     0.3259520   -3.7847620    3.4050500  
