60


C    -0.7181830   -2.3791460    2.6652890  
C    -0.7123920   -3.5685110    1.9748850  
C    -1.5702490   -3.3946610    0.8345440  
C    -2.0619350   -2.0646130    0.8831240  
N    -1.5399980   -1.4801420    2.0197550  
C    -2.9567930   -1.5306450   -0.0705760  
C    -3.3438570   -2.3990680   -1.0959300  
O    -4.1517460   -1.9466530   -2.0898990  
C    -2.8642890   -3.7346910   -1.1539220  
O    -3.3422440   -4.4455380   -2.2390150  
C    -1.9908930   -4.2403150   -0.2121950  
H    -0.1862490   -4.4690010    2.2600490  
H    -1.6398590   -0.5056920    2.2588060  
H    -4.3827980   -2.7098970   -2.6475630  
H    -3.0919760   -5.3768910   -2.1503120  
H    -1.6344190   -5.2659350   -0.2816080  
H    -0.2085490   -2.0989380    3.5762680  
C    -0.9536730    2.4551610    0.0388430  
C    -1.2421480    1.1084290   -0.0019880  
C    -2.6713560    0.9598390    0.0441150  
C    -3.2288220    2.3315440    0.1172400  
N    -2.1493610    3.1822000    0.1263750  
C    -4.5548950    2.6311730    0.1389510  
C    -5.5061770    1.5344990    0.0927420  
O    -6.7185790    1.6932580    0.0677980  
C    -4.9472980    0.0636420    0.0855610  
O    -5.7393380   -0.8547450    0.1981400  
C    -3.4781870   -0.1525520   -0.0017510  
H    -0.5062320    0.3242600   -0.0740350  
H    -4.9359210    3.6473680    0.1646500  
H    -2.1903490    4.1902480    0.1106110  
C     3.1224110    0.7786830   -0.0691330  
C     3.8675480    1.9258710   -0.1743330  
C     2.9260490    3.0140320   -0.1572390  
C     1.5865670    2.3505540   -0.0522210  
N     1.7056440    1.0653570    0.0028130  
C     0.3352990    3.1184070   -0.0166200  
C     0.4952060    4.4796460   -0.0501020  
O    -0.5207370    5.3631900   -0.0158690  
C     1.8302160    5.1624710   -0.1428550  
O     1.8112340    6.3985860   -0.1703030  
C     3.0474910    4.3628520   -0.2006350  
H     4.9401790    1.9913530   -0.2555960  
H    -0.0764570    6.2463990   -0.0623070  
H     3.9939470    4.8891170   -0.2733700  
C     7.1161580   -0.9018120   -0.7125260  
C     6.8978890   -2.2283670   -0.5701370  
C     5.4778320   -2.3471640   -0.2731450  
C     4.9725130   -0.9337210   -0.2809300  
N     5.9417090   -0.1036390   -0.5370020  
C     3.5689140   -0.5987350   -0.0314460  
C     2.7436560   -1.6767090    0.2412240  
O     1.4554480   -1.5868570    0.5340590  
C     3.2501650   -3.1053600    0.2581670  
O     2.4381960   -3.9894260    0.5176240  
C     4.6640540   -3.3881010   -0.0196830  
H     7.6070650   -3.0399720   -0.6524800  
H     1.1168990   -2.4948770    0.7347260  
H     4.9779120   -4.4272590    0.0014140  
H     8.0480730   -0.3970200   -0.9370160  
