60


C     5.9846890    1.2781160    1.6598320  
C     4.9720370    1.0046780    0.7545180  
C     4.4405830    2.2866480    0.3332000  
C     5.1733660    3.2814080    1.0258720  
N     6.1036430    2.6306390    1.8200730  
C     4.9478310    4.6516650    0.8593100  
C     3.9612990    5.0315490   -0.0371080  
O     3.7016620    6.3514220   -0.2395540  
C     3.2277110    4.0513520   -0.7585500  
O     2.2933620    4.5850420   -1.6215490  
C     3.4543000    2.6972510   -0.5865100  
H     6.7465780    3.0841080    2.4516470  
H     5.5140500    5.4111930    1.3881440  
H     3.0100140    6.4136710   -0.9211570  
H     1.9415010    3.8912700   -2.1983700  
H     2.8954690    1.9719300   -1.1729250  
H     6.5997050    0.5920630    2.2241690  
C     4.5575680   -0.3216950    0.3689790  
C     5.2660510   -1.4962700    0.3352710  
C     4.3733880   -2.5567420   -0.0371330  
C     3.0480120   -1.9245880   -0.2316320  
N     3.2330740   -0.5615710   -0.0490030  
C     1.8889040   -2.5936280   -0.5077510  
C     1.9993740   -4.0593420   -0.6712960  
O     1.0367720   -4.7628650   -0.9316940  
C     3.4098780   -4.7395730   -0.5250570  
O     3.4816710   -5.9515910   -0.6716040  
C     4.5517800   -3.8991640   -0.2041230  
H     6.3273110   -1.5961370    0.5133100  
H     5.5163730   -4.3806640   -0.0772760  
H     2.4682000    0.0379280    0.2332140  
C     0.3547580   -0.8389550   -1.4921430  
C     0.5954700   -1.9220190   -0.6958760  
C    -0.6884760   -2.2571280   -0.0718760  
C    -1.6732860   -1.2816990   -0.5823160  
N    -0.9848030   -0.4754350   -1.4628110  
C    -2.9991060   -1.1955690   -0.2154880  
C    -3.4370900   -2.1699770    0.8037140  
O    -4.5692720   -2.2019980    1.2596030  
C    -2.4059850   -3.2316890    1.3419940  
O    -2.7878200   -4.0257720    2.1855300  
C    -1.0365120   -3.2079660    0.8334200  
H    -0.3449660   -3.9574580    1.1986760  
H     1.0436590   -0.3104090   -2.1380940  
H    -1.3774630    0.3614060   -1.8686340  
C    -3.9017730    0.2470070   -2.0942010  
C    -3.9149360   -0.2290150   -0.8076000  
C    -5.0272720    0.5271700   -0.1721920  
C    -5.5302790    1.4134420   -1.2576150  
N    -4.8727960    1.2319940   -2.3735090  
C    -6.6161260    2.3342180   -1.0527690  
C    -7.1744860    2.3921810    0.1799740  
O    -8.1858340    3.2087840    0.5168500  
C    -6.6832400    1.5225720    1.3002060  
O    -7.2279000    1.6370310    2.3966420  
C    -5.5767650    0.5678800    1.0564460  
H    -6.9570160    2.9571080   -1.8723170  
H    -8.3673480    3.0206000    1.4640360  
H    -5.2873250   -0.0739330    1.8789280  
H    -3.2736980   -0.0952020   -2.9093660  
