60


C    -5.9881630   -0.4720990    3.2594150  
C    -6.8481030   -1.2102730    2.4893530  
C    -6.2248930   -1.3797050    1.2072950  
C    -4.9698400   -0.7207610    1.2635910  
N    -4.8487480   -0.1880790    2.5298830  
C    -4.0741990   -0.6418200    0.1691230  
C    -4.5056240   -1.2690330   -1.0059320  
O    -3.7052490   -1.2710620   -2.1146980  
C    -5.7543480   -1.9361030   -1.0747130  
O    -6.0083430   -2.5023650   -2.3119360  
C    -6.6119970   -2.0046680    0.0061830  
H    -7.8126360   -1.5901750    2.7969360  
H    -4.0979510    0.4188820    2.8212860  
H    -4.1650950   -1.7949010   -2.7944620  
H    -6.8203940   -3.0279860   -2.2666930  
H    -7.5661080   -2.5211120   -0.0768920  
H    -6.0834320   -0.1289260    4.2799180  
C    -1.9291670    0.0190660    1.3605590  
C    -2.7780190    0.0302640    0.2923420  
C    -2.1233990    0.9562000   -0.6628010  
C    -0.8702520    1.3703710    0.0255130  
N    -0.7733720    0.8320420    1.2066000  
C     0.0728890    2.2959180   -0.5770570  
C    -0.2823000    2.8339860   -1.7754280  
O     0.4739440    3.7080010   -2.4589070  
C    -1.5591980    2.4637340   -2.4693680  
O    -1.7896880    2.9936080   -3.5568270  
C    -2.4746980    1.4872020   -1.8473340  
H    -0.0377410    3.9014290   -3.2759700  
H    -3.3769440    1.2311330   -2.3897380  
H    -2.0297140   -0.5600940    2.2712390  
C     3.4916140   -0.2485510    0.4747900  
C     4.3105300    0.6358260    1.1179190  
C     3.6106720    1.9054820    1.0887760  
C     2.3320590    1.6023630    0.3715950  
N     2.2699180    0.3583500    0.0085930  
C     1.3384150    2.6304080    0.1075780  
C     1.6470070    3.8905230    0.5179890  
O     0.8382050    4.9463520    0.3531830  
C     2.9267180    4.2193390    1.2393470  
O     3.1008840    5.3887860    1.5810080  
C     3.9052020    3.1534670    1.5083470  
H     5.2610650    0.4340600    1.5909540  
H     1.3200120    5.7055660    0.7509460  
H     4.8219730    3.4345210    2.0175180  
C     7.0652720   -2.6558430   -0.6820010  
C     6.2717240   -1.6031870   -0.3578650  
C     4.9568660   -2.1771880   -0.1215460  
C     5.1547400   -3.6410410   -0.3769730  
N     6.3893190   -3.9117670   -0.6975290  
C     4.0713050   -4.5805630   -0.2841130  
C     2.8495230   -4.0992110    0.0419720  
O     1.7522980   -4.8589290    0.1702960  
C     2.6116430   -2.6375320    0.3384250  
O     1.4891090   -2.3295740    0.7191670  
C     3.7399620   -1.6606570    0.2146100  
H     6.5411150   -0.5588310   -0.3061900  
H     4.2467680   -5.6336330   -0.4738590  
H     1.0383670   -4.2409560    0.4454810  
H     8.1199670   -2.6368150   -0.9311370  
