62


C    -5.0516190    0.3047620    2.1617640  
C    -6.2745320   -0.3033740    2.1212150  
C    -6.4332750   -0.8562870    0.8047460  
C    -5.2607830   -0.5419080    0.0736010  
N    -4.4129940    0.1712380    0.9232640  
C    -5.0621020   -0.9603710   -1.2468730  
C    -6.0758300   -1.6932600   -1.8438570  
O    -5.9365870   -2.1187680   -3.1323500  
C    -7.2621620   -2.0091520   -1.1294460  
O    -8.1752200   -2.7463570   -1.8593470  
C    -7.4495460   -1.6034890    0.1784490  
H    -6.9934730   -0.3332410    2.9289790  
H    -4.1761870   -0.7109360   -1.8178530  
H    -6.7605350   -2.5742590   -3.3764960  
H    -8.9940670   -2.8409220   -1.3508520  
H    -8.3618540   -1.8632710    0.7118950  
H    -4.5838390    0.8882520    2.9423780  
C    -0.7570020   -0.5120500    3.0901290  
C     0.0828830    0.2854030    2.3775730  
C    -0.6785010    0.8548370    1.2854840  
C    -2.0484320    0.3233780    1.4342970  
N    -2.0321430   -0.4989340    2.5415500  
C    -3.1155040    0.6368210    0.6367950  
C    -2.8754190    1.5804990   -0.4622700  
O    -3.7559920    2.0043310   -1.1896070  
C    -1.3978960    2.0612560   -0.7098810  
O    -1.1657770    2.6500760   -1.7496970  
C    -0.3406510    1.7246210    0.2762250  
H     1.1282080    0.4570300    2.5818010  
H    -0.5556690   -1.1069000    3.9710990  
H    -2.8368430   -1.0032050    2.8823250  
C     3.8318710    0.0287150   -0.1140980  
C     2.4647030    0.1551640    0.0661380  
C     2.1648210    1.5447430   -0.0003870  
C     3.4866720    2.2049020   -0.2485220  
N     4.4401560    1.3174910   -0.3148930  
C     3.6274680    3.6205810   -0.4106600  
C     2.4932470    4.3573480   -0.3346490  
O     2.4501820    5.6826230   -0.4590990  
C     1.1311010    3.7373090   -0.0591240  
O     0.2080660    4.5387060    0.0925410  
C     1.0005840    2.2805390    0.0710630  
H     1.7429160   -0.6355070    0.1735820  
H     4.5990180    4.0662620   -0.5916970  
H     1.4998170    5.9163410   -0.3249180  
C     3.1598150   -4.3589630    0.7798830  
C     2.9870610   -2.9999680    0.6494390  
C     4.2217370   -2.4519660    0.1707470  
C     5.1160690   -3.5413960    0.0401550  
N     4.4418540   -4.6869870    0.4080990  
C     6.4496660   -3.4055480   -0.3713150  
C     6.9048470   -2.1307160   -0.6479470  
O     8.1925690   -1.9318480   -1.0399500  
C     6.0483520   -1.0005950   -0.5338020  
O     6.6601830    0.1619180   -0.8439210  
C     4.6839140   -1.1278060   -0.1481140  
H     2.0821940   -2.4732140    0.9070470  
H     4.8341760   -5.6156200    0.4112280  
H     7.1234830   -4.2511750   -0.4672820  
H     8.2907870   -0.9719730   -1.1815380  
H     5.9882750    0.9025290   -0.7049810  
H     2.4667470   -5.1194910    1.1100320  
