62


C     5.6269270    0.2624390   -2.0568810  
C     4.9128250   -0.0340280   -0.9110310  
C     5.8597080   -0.6155390    0.0155300  
C     7.1194820   -0.6416560   -0.6328320  
N     6.9457540   -0.1021770   -1.8930910  
C     8.2742140   -1.1592110   -0.0316940  
C     8.1522250   -1.6610120    1.2536240  
O     9.2434240   -2.1725360    1.8924980  
C     6.8957070   -1.6476590    1.9178670  
O     6.9358400   -2.1834980    3.1917140  
C     5.7594280   -1.1401920    1.3193300  
H     7.6820490    0.0666610   -2.5604200  
H     9.2396170   -1.1774460   -0.5270280  
H     8.9526920   -2.4508540    2.7782570  
H     6.0707770   -2.0745610    3.6136010  
H     4.8139410   -1.1223380    1.8533190  
H     5.3003020    0.7593410   -2.9601170  
C     1.5869910   -1.0637000   -3.5807150  
C     0.5562270   -0.5477410   -2.8366810  
C     1.1381780   -0.0075040   -1.6409870  
C     2.5393010   -0.2157380   -1.7224460  
N     2.7791850   -0.8570790   -2.9191430  
C     3.4670670    0.1826270   -0.7358110  
C     2.9114000    0.8066160    0.3851840  
O     3.7153580    1.2388210    1.3977560  
C     1.5130920    1.0116080    0.5144280  
O     1.1298290    1.5776970    1.7143770  
C     0.6259130    0.6168310   -0.4837130  
H    -0.4875280   -0.5414420   -3.1174430  
H     3.6885380   -1.1912130   -3.2012650  
H     3.1312920    1.6841240    2.0395230  
H     0.3910950    2.1986630    1.5784150  
H     1.5695450   -1.5570920   -4.5421590  
C    -1.7107460   -0.2161920   -0.3123910  
C    -2.9848000    0.2425170   -0.0746950  
C    -2.8635340    1.6946610    0.0981860  
C    -1.4280090    2.0100410   -0.0791500  
N    -0.7774860    0.8035180   -0.3170310  
C    -0.8905570    3.2600040   -0.0218050  
C    -1.7863410    4.3855000    0.2440440  
O    -1.4030270    5.5432670    0.2927460  
C    -3.3074710    4.0703370    0.4684880  
O    -4.0690650    4.9873660    0.7253890  
C    -3.7639750    2.6757020    0.3543880  
H     0.1513920    3.4702210   -0.2455000  
H    -4.8177780    2.4593990    0.4811690  
H    -1.3706310   -1.2299900   -0.4737800  
C    -4.1733060   -0.5629350   -0.0030440  
C    -4.3177480   -1.9188860   -0.1899510  
C    -5.7105450   -2.1956430    0.0011760  
C    -6.3158000   -0.8526720    0.3107950  
N    -5.4181820    0.0890090    0.3061580  
C    -7.7220920   -0.6983800    0.5703360  
C    -8.4883520   -1.8136560    0.5255620  
O    -9.8070610   -1.8336250    0.7434040  
C    -7.9086310   -3.1841760    0.2156560  
O    -8.7056830   -4.1251920    0.2030490  
C    -6.4810250   -3.3150550   -0.0437470  
H    -3.5511650   -2.6413570   -0.4342300  
H    -8.1340830    0.2799110    0.7912420  
H   -10.0660180   -2.7791970    0.6400190  
H    -6.1003890   -4.3079880   -0.2614210  
