64


C     4.5556800   -0.6355150   -0.4405630  
C     5.2718740   -1.4717000   -1.2879780  
C     6.6071090   -1.5469630   -0.8040130  
C     6.6738340   -0.7341050    0.3640720  
N     5.4297690   -0.1645880    0.5418640  
C     7.8414500   -0.5927900    1.1197410  
C     8.9685950   -1.2739400    0.6844220  
O    10.1318740   -1.1733030    1.3814380  
C     8.9271060   -2.0783420   -0.4919000  
O    10.1329390   -2.6788020   -0.7887000  
C     7.7733580   -2.2183330   -1.2344950  
H     4.8776390   -1.9309540   -2.1841090  
H     5.1218570    0.2639540    1.4018440  
H     7.8979690    0.0213400    2.0124120  
H    10.7972680   -1.7118740    0.9183480  
H    10.0447150   -3.2093530   -1.5944360  
H     7.7620270   -2.8394540   -2.1275170  
C     2.1182180   -0.8882600   -1.0723780  
C     3.1745790   -0.2487370   -0.4810230  
C     2.5714290    0.9876720    0.0843250  
C     1.1297290    0.8741570   -0.2362450  
N     0.8944140   -0.2098080   -0.9315910  
C     0.1648250    1.9051450    0.1324220  
C     0.7082770    3.0195130    0.7113740  
O    -0.0387600    4.0986440    1.0988190  
C     2.1440400    3.1884430    0.9971430  
O     2.5188590    4.2346610    1.5433930  
C     3.0797180    2.1032010    0.6396720  
H     0.6191610    4.7229750    1.4847770  
H     4.1345580    2.2839260    0.8225500  
H     2.1332470   -1.8357120   -1.5963560  
C    -2.7972290   -1.3927910    0.9336500  
C    -1.6682610   -0.6232720    0.8848520  
C    -1.9962100    0.5780860    0.1721280  
C    -3.3697810    0.4818720   -0.1737820  
N    -3.8440830   -0.7436170    0.2875060  
C    -4.0709530    1.5046520   -0.8271450  
C    -3.3632450    2.6579710   -1.1262650  
O    -3.9820610    3.6992090   -1.7471340  
C    -1.9909420    2.7896880   -0.7887680  
O    -1.4344960    3.9879620   -1.1849090  
C    -1.2748600    1.7587750   -0.1652000  
H    -0.7058280   -0.8951570    1.2905980  
H    -5.1280110    1.4373450   -1.0597320  
H    -3.3007580    4.3935280   -1.8304890  
H    -0.9344380    4.3569460   -0.4252830  
H    -2.9617190   -2.3731700    1.3566570  
C    -6.9121990   -1.9979570    3.2524330  
C    -5.7692310   -1.5124600    2.6721990  
C    -5.9540740   -1.5962640    1.2510600  
C    -7.2440850   -2.1441490    1.0258870  
N    -7.8025630   -2.3815530    2.2658160  
C    -7.7740450   -2.3474670   -0.2545800  
C    -6.9797700   -1.9986540   -1.3350470  
O    -7.4401300   -2.1784410   -2.6070940  
C    -5.6764650   -1.4688650   -1.1445460  
O    -4.9969630   -1.2092910   -2.3122980  
C    -5.1603870   -1.2602340    0.1310370  
H    -4.9006860   -1.1336970    3.1913900  
H    -8.7228680   -2.7596420    2.4252620  
H    -8.7653390   -2.7542050   -0.4259550  
H    -6.7454160   -1.8583220   -3.2089230  
H    -4.1721650   -0.7340390   -2.1154920  
H    -7.1725690   -2.1028580    4.2962230  
