60


C    -4.8495270    0.2583900    2.6098250  
C    -6.0393380   -0.3958530    2.7449370  
C    -6.3004230   -1.0901450    1.5105300  
C    -5.2213220   -0.8230620    0.6350960  
N    -4.3397270    0.0001680    1.3343800  
C    -5.1361480   -1.3358130   -0.6618050  
C    -6.1790370   -2.1451470   -1.0880130  
O    -6.1559920   -2.6749370   -2.3429110  
C    -7.2742200   -2.4299300   -0.2282970  
O    -8.2271340   -3.2509650   -0.7977290  
C    -7.3453180   -1.9174830    1.0539090  
H    -6.6654160   -0.3891310    3.6266890  
H    -4.3058090   -1.1267340   -1.3270120  
H    -6.9715320   -3.1935860   -2.4539800  
H    -8.9629150   -3.3736370   -0.1798930  
H    -8.1934620   -2.1499730    1.6946750  
H    -4.2956610    0.8902490    3.2885700  
C    -1.9475770   -0.0935560    0.8669040  
C    -0.9783950    0.6881910    0.2934890  
C    -1.6555190    1.9007290   -0.1870720  
C    -3.0828830    1.7624270    0.1855840  
N    -3.1846740    0.5318300    0.8323760  
C    -4.0632390    2.6577320   -0.0749810  
C    -3.7042530    3.8704080   -0.8076800  
O    -4.5083670    4.7454910   -1.0863290  
C    -2.2100690    4.0304860   -1.2603980  
O    -1.8867970    5.0222710   -1.8946370  
C    -1.2472630    2.9808400   -0.9023150  
H    -5.0964110    2.5054620    0.2179450  
H    -0.2203310    3.1272860   -1.2085560  
H    -1.8593380   -1.0807140    1.2929430  
C     0.7562190   -3.2931670   -0.0640940  
C     2.0780700   -3.0252720   -0.2005170  
C     2.1857040   -1.5735890   -0.1458250  
C     0.7878820   -1.1150290    0.0399660  
N    -0.0411240   -2.1235440    0.0743790  
C     0.4233190    0.2982540    0.1665610  
C     1.4806410    1.1653770    0.1932230  
O     1.3506610    2.4920740    0.4109510  
C     2.8929140    0.7380990    0.0138600  
O     3.7533540    1.6221790    0.0650680  
C     3.2370720   -0.7021840   -0.2196310  
H     2.8897820   -3.7317820   -0.2941630  
H     2.2647010    2.8502300    0.3645360  
H     0.2673390   -4.2593700   -0.0411080  
C     4.9286590   -2.0981110   -1.4309790  
C     4.5919180   -1.0893490   -0.5585520  
C     5.9021750   -0.5779410   -0.0949200  
C     6.8939710   -1.4428240   -0.8034400  
N     6.3055000   -2.3131440   -1.5870380  
C     8.3097320   -1.3023170   -0.6166750  
C     8.7406020   -0.3531750    0.2498470  
O    10.0267000   -0.1103750    0.5263450  
C     7.7697000    0.5264020    0.9942970  
O     8.2344240    1.3559190    1.7710530  
C     6.3159590    0.3653010    0.7724440  
H     8.9924730   -1.9488190   -1.1563570  
H    10.0245560    0.6202690    1.1840940  
H     5.6580740    1.0375130    1.3080810  
H     4.2392980   -2.6898330   -2.0212970  
