60


C     5.7559420    3.4015160    0.9593850  
C     6.9265180    3.2055300    0.2782460  
C     6.9191550    1.8496430   -0.1989670  
C     5.6972160    1.2685060    0.2239100  
N     4.9887750    2.2464400    0.9028020  
C     5.3454720   -0.0743800   -0.0339910  
C     6.2799610   -0.8292250   -0.7473660  
O     5.9925550   -2.1166960   -1.0756390  
C     7.5053550   -0.2597420   -1.1805890  
O     8.3031570   -1.1396290   -1.8871180  
C     7.8315700    1.0585830   -0.9237410  
H     7.7058820    3.9402580    0.1290690  
H     4.1957790    2.0570080    1.4978040  
H     6.7901770   -2.4979770   -1.4824870  
H     9.1791590   -0.7482580   -2.0196100  
H     8.7766160    1.4701730   -1.2721840  
H     5.3849170    4.2773550    1.4728310  
C     1.2466910    1.0852220   -0.9401380  
C     0.5331830    0.1676420   -0.2082000  
C     1.5270800   -0.6805360    0.4612740  
C     2.8514500   -0.1628970    0.0490370  
N     2.6004660    0.9099000   -0.7942990  
C     4.0666760   -0.6619130    0.4174590  
C     4.0433010   -1.8250880    1.3327120  
O     5.0487740   -2.3035490    1.8242990  
C     2.6506500   -2.4461270    1.7125200  
O     2.6289850   -3.4621100    2.3887570  
C     1.4299060   -1.7811320    1.2506030  
H     0.4829900   -2.1989340    1.5692120  
H     0.8632290    1.8919930   -1.5504380  
H     3.3216180    1.4919520   -1.1947390  
C    -2.6557110    0.7259440   -3.2696350  
C    -1.4422100    0.5192580   -2.7025860  
C    -1.7144770    0.3038950   -1.2844480  
C    -3.1959830    0.3910070   -1.1902100  
N    -3.7384510    0.6597960   -2.3443320  
C    -3.9065260    0.2127340    0.0649150  
C    -3.1411940   -0.0019220    1.1663930  
O    -3.6451430   -0.1957930    2.3966840  
C    -1.6436470   -0.0707570    1.1097980  
O    -1.0562280   -0.2562370    2.1743770  
C    -0.9244490    0.1061990   -0.1909160  
H    -0.4788330    0.4842710   -3.1907400  
H    -2.8653380   -0.3159490    2.9815270  
H    -2.8797470    0.9164110   -4.3125150  
C    -6.9313000   -2.4060360   -1.7407080  
C    -8.0900240   -1.8106990   -1.3783020  
C    -7.6881240   -0.6584010   -0.5767350  
C    -6.1898220   -0.7147000   -0.5854210  
N    -5.7569130   -1.7425690   -1.2508770  
C    -5.3819050    0.2688890    0.1171360  
C    -6.0553740    1.2151280    0.8248300  
O    -5.4578580    2.1876100    1.5296200  
C    -7.5589120    1.2841210    0.8570530  
O    -8.0695890    2.1898790    1.5145070  
C    -8.3510030    0.2895860    0.1124400  
H    -9.1020820   -2.1130460   -1.6086740  
H    -6.1936020    2.7124050    1.9171570  
H    -9.4322010    0.3710790    0.1700940  
H    -6.7997120   -3.3005780   -2.3378190  
