60


C     3.5503940    0.7346420    1.8373910  
C     3.7266390    2.0833350    1.9510010  
C     4.5864850    2.4953970    0.8754270  
C     4.9176410    1.3356490    0.1324530  
N     4.2683180    0.2526880    0.7339060  
C     5.7149200    1.3808360   -1.0164420  
C     6.2018880    2.6184070   -1.4079080  
O     6.9901480    2.7159180   -2.5165800  
C     5.8891670    3.7899960   -0.6685720  
O     6.4468650    4.9426640   -1.1860480  
C     5.0916490    3.7420640    0.4593140  
H     3.3081830    2.7118420    2.7254860  
H     5.9872010    0.4985750   -1.5823810  
H     7.2529640    3.6484130   -2.6032360  
H     6.2528330    5.6884320   -0.5992110  
H     4.8543480    4.6514780    1.0076750  
H     3.0254350    0.0391970    2.4766340  
C     0.9086180   -2.2808880   -0.1865180  
C     1.5785570   -3.4405900   -0.4661050  
C     2.9860070   -3.1740340   -0.3108980  
C     3.0866320   -1.7581410    0.0914540  
N     1.7865830   -1.2718050    0.2082840  
C     4.2516820   -1.0833720    0.2972490  
C     5.5105250   -1.8517570    0.1460790  
O     6.6047300   -1.3660940    0.3601600  
C     5.4130150   -3.3645160   -0.2855950  
O     6.4561590   -3.9767080   -0.4579520  
C     4.0942320   -3.9512720   -0.4758870  
H     1.1330120   -4.3960890   -0.7005410  
H     4.0407060   -4.9943330   -0.7703590  
H     1.5774050   -0.2852460    0.1254860  
C    -1.2992240   -2.7002410   -1.1735250  
C    -2.5760820   -2.2778610   -1.0456420  
C    -2.6147660   -1.2738460   -0.0014510  
C    -1.2249980   -1.1315280    0.4835450  
N    -0.4514500   -2.0298050   -0.2713960  
C    -0.8401990   -0.3012120    1.4872010  
C    -1.8531600    0.5530760    2.0942250  
O    -1.6045110    1.3494080    2.9843970  
C    -3.3314690    0.4480060    1.5780230  
O    -4.1722580    1.1644230    2.0894640  
C    -3.6556520   -0.5410770    0.5137410  
H    -3.4094040   -2.5981470   -1.6524630  
H     0.1684920   -0.2396390    1.8758190  
H    -0.8661400   -3.4054680   -1.8681950  
C    -5.6452820   -1.9823880   -0.0036630  
C    -5.0493630   -0.7556130    0.1259420  
C    -6.0816880    0.2348580   -0.2077550  
C    -7.3026320   -0.5374040   -0.5436720  
N    -6.9627670   -1.8724410   -0.3996460  
C    -8.4895200    0.0019750   -0.9163770  
C    -8.5867110    1.4555620   -1.0182630  
O    -9.6098290    2.0349090   -1.3465490  
C    -7.2999470    2.2970630   -0.6986970  
O    -7.3440640    3.5110260   -0.8059460  
C    -6.0794230    1.5887710   -0.2846630  
H    -9.3673570   -0.5915920   -1.1525950  
H    -5.2168630    2.1932560   -0.0315370  
H    -5.2197480   -2.9579140    0.1916250  
H    -7.6113820   -2.6409750   -0.4762890  
