62


C     3.1156130   -2.2309950   -1.7848810  
C     3.2451070   -1.2349090   -0.8376670  
C     4.5011630   -1.4890010   -0.1565270  
C     5.0724200   -2.6454970   -0.7475610  
N     4.2037880   -3.0722750   -1.7323210  
C     6.2878180   -3.1944800   -0.3211970  
C     6.9410950   -2.5663550    0.7272890  
O     8.1297400   -3.0567560    1.1786460  
C     6.3789270   -1.4154890    1.3433890  
O     7.1409080   -0.9130120    2.3788660  
C     5.1777530   -0.8764960    0.9219680  
H     4.3528630   -3.8658070   -2.3362140  
H     6.7245770   -4.0797870   -0.7718300  
H     8.4160150   -2.4901340    1.9158740  
H     6.6980480   -0.1432480    2.7659680  
H     4.7631470   -0.0028900    1.4186880  
H     2.3328910   -2.3811510   -2.5145630  
C    -1.2341750   -1.1458510   -0.3086700  
C     0.0967970   -1.5351390   -0.4754490  
C     0.8885850   -0.3641170   -0.4696470  
C    -0.0010270    0.7433830   -0.2818430  
N    -1.2666240    0.2378990   -0.1969070  
C     0.4332230    2.0846820   -0.2204690  
C     1.8111230    2.2720840   -0.3429790  
O     2.3263040    3.5199660   -0.2529740  
C     2.7098960    1.1812110   -0.5323980  
O     4.0227410    1.5830130   -0.6546950  
C     2.2910640   -0.1388660   -0.6043870  
H     0.4455680   -2.5527800   -0.5752170  
H    -2.1330280    0.7431940   -0.0719620  
H     3.2741800    3.4602510   -0.4701330  
H     4.5646730    0.8212770   -0.9233860  
C    -2.6792290    3.1524090    2.7789570  
C    -1.6681180    2.5533060    2.0986010  
C    -1.3995450    3.3594900    0.9231760  
C    -2.3461100    4.5003340    0.9857680  
N    -3.0982120    4.3076800    2.1284060  
C    -2.4021450    5.5182200    0.0881230  
C    -1.4719310    5.4944950   -1.0295360  
O    -1.4024930    6.3825580   -1.8661170  
C    -0.5135670    4.2551180   -1.1720470  
O     0.1551750    4.1577270   -2.1843050  
C    -0.4934950    3.2265760   -0.0954000  
H    -1.1547910    1.6477470    2.3836100  
H    -3.0887580    6.3547680    0.1737870  
H    -3.1561010    2.8523590    3.7026540  
H    -3.8200910    4.9315410    2.4527930  
C    -2.4474680   -1.8838950   -0.2340560  
C    -2.6857840   -3.2405160   -0.3141200  
C    -4.0966530   -3.3957050   -0.1697060  
C    -4.6130050   -1.9902490   -0.0022590  
N    -3.6490850   -1.1150960   -0.0398650  
C    -6.0138160   -1.7191310    0.1747500  
C    -6.8543140   -2.7809390    0.1860190  
O    -8.1789480   -2.6954980    0.3409740  
C    -6.3658130   -4.2125250    0.0203470  
O    -7.2412790   -5.0865150    0.0511260  
C    -4.9511420   -4.4613660   -0.1573980  
H    -1.9596090   -4.0284000   -0.4567610  
H    -6.3657510   -0.7000510    0.2905600  
H    -8.4884050   -3.6329840    0.3011490  
H    -4.6311610   -5.4919510   -0.2735320  
