62


C     3.6240340   -0.8113960   -2.1268790  
C     3.3080350   -0.1498350   -0.9575900  
C     4.5413030   -0.0675460   -0.1970630  
C     5.5540620   -0.6918100   -0.9696790  
N     4.9627680   -1.1347290   -2.1361200  
C     6.8778870   -0.8124730   -0.5297980  
C     7.1867180   -0.2965540    0.7188330  
O     8.4604530   -0.3845760    1.1937790  
C     6.1831930    0.3192530    1.5158420  
O     6.6445670    0.7708540    2.7351800  
C     4.8768820    0.4366090    1.0794710  
H     5.4401880   -1.6101150   -2.8861490  
H     7.6531530   -1.2922570   -1.1183130  
H     8.4666490    0.0098490    2.0832340  
H     5.9073640    1.1281780    3.2524020  
H     4.1243300    0.8979970    1.7142140  
H     2.9906270   -1.0505370   -2.9690820  
C    -0.7956100   -1.9792380   -0.9150510  
C     0.5545530   -1.7694090   -1.0402650  
C     0.8006830   -0.4077250   -0.6616010  
C    -0.4457810    0.1562060   -0.2921720  
N    -1.4052190   -0.8245770   -0.4486710  
C    -0.6133120    1.4937490    0.1389980  
C     0.5673080    2.2441630    0.1881120  
O     0.5300610    3.5481990    0.5911820  
C     1.8232760    1.6912730   -0.1620950  
O     2.8624080    2.5939320   -0.0539240  
C     1.9830170    0.3735230   -0.5855720  
H     1.2871090   -2.5111530   -1.3233280  
H    -2.4020090   -0.6664970   -0.4093010  
H     1.4445860    3.8815240    0.5490250  
H     3.6807260    2.1786610   -0.3760200  
C    -1.5789380   -3.7849730   -2.4327870  
C    -2.3450320   -4.9019260   -2.3879270  
C    -2.8745000   -5.0105210   -1.0446680  
C    -2.3361430   -3.8496160   -0.2939190  
N    -1.5585290   -3.1216750   -1.1979040  
C    -2.5773660   -3.6057240    1.0179990  
C    -3.4362120   -4.5372350    1.7489920  
O    -3.7014230   -4.4038970    2.9332870  
C    -4.0388690   -5.7612600    0.9671220  
O    -4.7696580   -6.5401020    1.5587120  
C    -3.6894380   -5.9192020   -0.4471020  
H    -2.5339370   -5.5824440   -3.2055040  
H    -2.1561490   -2.7631160    1.5557010  
H    -4.0968690   -6.7768180   -0.9739060  
H    -1.0211680   -3.3571760   -3.2549130  
C    -2.9221480    1.3808470    1.1949180  
C    -1.9287840    2.0206470    0.5091110  
C    -2.5351980    3.3268270    0.1541650  
C    -3.9062190    3.2650980    0.7346040  
N    -4.1195940    2.1304440    1.3419540  
C    -4.8369330    4.3559290    0.6023140  
C    -4.4400540    5.4469130   -0.0950700  
O    -5.2045300    6.5327750   -0.3043090  
C    -3.0738900    5.5286060   -0.7118390  
O    -2.7846050    6.5495010   -1.3352600  
C    -2.1314750    4.3998100   -0.5504290  
H    -5.8232950    4.2811150    1.0466720  
H    -4.6470660    7.1432310   -0.8349060  
H    -1.1455790    4.5100010   -0.9856950  
H    -2.8730980    0.4017650    1.6580230  
