62


C     5.6858780    0.0309800   -2.1951610  
C     5.3306380    0.0621440   -0.8625880  
C     6.3732150   -0.6548280   -0.1527520  
C     7.3203370   -1.0852770   -1.1175700  
N     6.8707390   -0.6556380   -2.3500590  
C     8.4600250   -1.8270910   -0.7828310  
C     8.6475000   -2.1443580    0.5531520  
O     9.7428680   -2.8608690    0.9345060  
C     7.7038690   -1.7335400    1.5335470  
O     8.0250810   -2.1349260    2.8151430  
C     6.5787600   -1.0030690    1.2005930  
H     7.3494050   -0.7967960   -3.2260210  
H     9.1853740   -2.1576110   -1.5192600  
H     9.6874200   -2.9830010    1.8981010  
H     7.3450210   -1.8267250    3.4324180  
H     5.8657620   -0.7091480    1.9670210  
H     5.1861240    0.4732000   -3.0452640  
C     0.9748580   -0.2621570   -1.8646630  
C     2.3286930   -0.4042330   -1.8284200  
C     2.8319500    0.4801510   -0.8097530  
C     1.7192940    1.1571840   -0.2563790  
N     0.5709250    0.6949560   -0.9208630  
C     1.8355930    2.0337570    0.8258910  
C     3.1097330    2.2535020    1.3270970  
O     3.2853290    3.1167750    2.3680000  
C     4.2378700    1.6049150    0.7680840  
O     5.4320670    1.9531970    1.3628620  
C     4.1326390    0.7110840   -0.2985270  
H     2.9135870   -1.0575510   -2.4599190  
H     0.9963200    2.5626790    1.2584560  
H     4.2430980    3.1802560    2.5277670  
H     6.1632100    1.5562750    0.8591850  
H     0.2397240   -0.7053520   -2.5197490  
C    -2.9914170   -1.7717330   -0.4308610  
C    -1.7215900   -1.3287090   -0.5520120  
C    -1.7579540    0.1196360   -0.5789960  
C    -3.1753820    0.5073620   -0.4656900  
N    -3.8984010   -0.6931480   -0.3648450  
C    -3.6359170    1.7877370   -0.4797550  
C    -2.6612930    2.8643890   -0.5604410  
O    -2.9613900    4.0469190   -0.5168610  
C    -1.1408050    2.4947630   -0.7048730  
O    -0.3359820    3.3887700   -0.8735090  
C    -0.7582150    1.0530050   -0.6850620  
H    -0.8343120   -1.9425320   -0.5864350  
H    -4.6845010    2.0559840   -0.4550420  
H    -3.3717300   -2.7781010   -0.3330280  
C    -5.2647090   -0.8661360   -0.2242710  
C    -6.0369300   -1.9119210   -0.6483410  
C    -7.3798210   -1.6681530   -0.1885570  
C    -7.3376280   -0.3809760    0.5462820  
N    -6.0297460    0.0925680    0.4458480  
C    -8.3947480    0.1781210    1.1778570  
C    -9.6850570   -0.5141440    1.1122710  
O   -10.6911780   -0.0826820    1.6507640  
C    -9.7646360   -1.8592050    0.3026740  
O   -10.8370040   -2.4408410    0.2327160  
C    -8.5428560   -2.3637860   -0.3208830  
H    -5.7123370   -2.7336830   -1.2694490  
H    -8.3435750    1.1184630    1.7181570  
H    -8.6049390   -3.3027350   -0.8623300  
H    -5.6279820    0.7279820    1.1215100  
