60


C     4.8200840    0.3324990   -0.0599510  
C     4.5233980   -1.0128890    0.1956200  
C     5.7141780   -1.7590140    0.0408040  
C     6.7425480   -0.8317370   -0.3128040  
N     6.1750920    0.4115030   -0.3664330  
C     8.0664350   -1.2267880   -0.5397340  
C     8.3593230   -2.5741280   -0.4068210  
O     9.6262480   -3.0155630   -0.6134680  
C     7.3439920   -3.5173540   -0.0519850  
O     7.8109160   -4.8113870    0.0355610  
C     6.0422800   -3.1302800    0.1708190  
H     3.5654680   -1.3940390    0.5132770  
H     6.6395450    1.2977200   -0.5116610  
H     8.8524280   -0.5290550   -0.8077500  
H     9.6295130   -3.9785730   -0.4710330  
H     7.0883360   -5.4053760    0.2878080  
H     5.2844580   -3.8628780    0.4399070  
C     0.3689250    1.0553010    0.0993650  
C     1.5897720    0.4298080   -0.0471440  
C     2.5806500    1.4612320    0.0431340  
C     1.7898950    2.6988140    0.2392480  
N     0.5055030    2.4619190    0.2839110  
C     2.3971450    4.0017300    0.3491680  
C     3.7387820    4.0756450    0.2255930  
O     4.4382280    5.2229620    0.2668990  
C     4.5827350    2.8489280    0.0066130  
O     5.7931910    3.0561300   -0.1477910  
C     3.9656650    1.4911020   -0.0102430  
H     1.7605100   -0.6157710   -0.2543020  
H     1.7799260    4.8804050    0.4991810  
H     5.3751880    4.9649150    0.1299800  
C    -1.2663720   -0.8485870   -0.0509950  
C    -0.9535120    0.4817770    0.0766430  
C    -2.2386880    1.1882660    0.1777870  
C    -3.2943970    0.1527130    0.0949400  
N    -2.6338400   -1.0475810   -0.0490830  
C    -4.6448960    0.3897610    0.1140770  
C    -5.0666080    1.7918590    0.3148330  
O    -6.2287050    2.1093980    0.4984330  
C    -3.9631590    2.9039820    0.3537850  
O    -4.3104960    4.0698920    0.4333860  
C    -2.5516340    2.5027900    0.2999280  
H    -1.7849590    3.2664620    0.3468010  
H    -0.6026410   -1.6971270   -0.1462940  
H    -3.0913910   -1.9479830   -0.0650110  
C    -5.5288120   -3.5838320    2.0358120  
C    -4.9355570   -2.3932820    1.7603820  
C    -5.7266070   -1.8173420    0.6776510  
C    -6.7929230   -2.8356100    0.4360200  
N    -6.6656720   -3.8663030    1.2282040  
C    -7.8244320   -2.6403360   -0.5478660  
C    -7.7979160   -1.4949200   -1.2670090  
O    -8.6895200   -1.1837360   -2.2193830  
C    -6.7043810   -0.4719430   -1.0959880  
O    -6.6741980    0.4510430   -1.9005570  
C    -5.6648050   -0.6546010   -0.0275900  
H    -4.0979690   -1.9365710    2.2687000  
H    -8.5892950   -3.3955590   -0.6900860  
H    -8.3859850   -0.3292790   -2.5974610  
H    -5.2426530   -4.3053560    2.7925670  
