60


C     6.0557970   -0.7990890   -3.4254820  
C     4.9164950   -0.3675010   -2.7975170  
C     4.9548070   -0.8733610   -1.4530280  
C     6.1624700   -1.6089380   -1.3242630  
N     6.8070670   -1.5528860   -2.5431170  
C     6.5530770   -2.2277280   -0.1312730  
C     5.7026500   -2.1003500    0.9550310  
O     6.0283170   -2.6813310    2.1450610  
C     4.4817660   -1.3833320    0.8492440  
O     3.7261930   -1.4213070    2.0086820  
C     4.0838290   -0.7649890   -0.3365180  
H     4.1501900    0.2544790   -3.2378670  
H     7.7040290   -1.9655250   -2.7451560  
H     7.4806580   -2.7812190   -0.0272040  
H     5.3234330   -2.4435080    2.7735170  
H     3.1047140   -0.6756130    2.0308790  
H     6.4017920   -0.6299320   -4.4353940  
C     1.8308350   -0.2514380   -1.3858830  
C     2.7943400   -0.0573230   -0.4368430  
C     2.2805290    0.9801560    0.4519620  
C     0.9345740    1.3409160   -0.0489190  
N     0.7143920    0.5414500   -1.1568330  
C     0.1195270    2.2947270    0.4895290  
C     0.6190240    2.9787880    1.7076330  
O    -0.0744270    3.7307290    2.3665940  
C     2.0777950    2.6706120    2.2026110  
O     2.5263860    3.3108940    3.1395000  
C     2.8341300    1.6178090    1.5237170  
H     3.8502090    1.4296030    1.8591590  
H     1.8456100   -0.9369840   -2.2227900  
H    -0.0501040    0.6723570   -1.8015840  
C    -3.5181670   -0.1382490   -0.1966350  
C    -4.3353620    0.8541040   -0.6843160  
C    -3.5792600    2.0768280   -0.7131840  
C    -2.2276690    1.7437780   -0.2072580  
N    -2.2420460    0.3938470    0.0590430  
C    -1.2080860    2.6417560   -0.0424390  
C    -1.4790140    4.0374310   -0.4505070  
O    -0.6161410    4.8970950   -0.4621930  
C    -2.9199910    4.4128020   -0.9522320  
O    -3.1592130    5.5765560   -1.2344050  
C    -3.9141680    3.3479140   -1.0729400  
H    -5.3624100    0.7186520   -0.9812030  
H    -4.9038280    3.6144470   -1.4309120  
H    -1.5146390   -0.1135250    0.5414000  
C    -7.2021020   -2.4599650   -0.8816780  
C    -6.8472890   -3.6830970   -0.4325640  
C    -5.4651650   -3.5415580    0.0107110  
C    -5.1366020   -2.1030070   -0.2561230  
N    -6.1530110   -1.4865030   -0.7761990  
C    -3.8171300   -1.5375300    0.0534160  
C    -2.9188140   -2.4218660    0.5943760  
O    -1.6592750   -2.0992330    0.9480890  
C    -3.2324950   -3.8620730    0.8645550  
O    -2.3345000   -4.5477660    1.3547710  
C    -4.5661020   -4.3895030    0.5437700  
H    -7.4416420   -4.5853310   -0.3994660  
H    -1.2714000   -2.9330770    1.3070920  
H    -4.7541750   -5.4376920    0.7546010  
H    -8.1513510   -2.1439160   -1.2958460  
