62


C     4.5355000   -0.0902890   -0.1075600  
C     5.0613940   -1.3083570   -0.5268340  
C     6.4668020   -1.2838170   -0.2797230  
C     6.7609860   -0.0168490    0.2960610  
N     5.5802710    0.6812760    0.3797790  
C     8.0563190    0.3564170    0.6769080  
C     9.0721310   -0.5641640    0.4756790  
O    10.3525420   -0.2535020    0.8290560  
C     8.7965240   -1.8368470   -0.0981230  
O     9.9150560   -2.6382050   -0.2330860  
C     7.5195680   -2.2034100   -0.4746050  
H     4.4934440   -2.1586360   -0.8780890  
H     5.4317210    1.5679720    0.8397540  
H     8.2852850    1.3216480    1.1163580  
H    10.9062290   -1.0233900    0.6124830  
H     9.6578610   -3.4899210   -0.6156610  
H     7.3344370   -3.1830350   -0.9113990  
C     1.1786470   -1.1866540   -2.7224690  
C     0.2113790   -0.4138330   -2.1306340  
C     0.8314990    0.2826050   -1.0325230  
C     2.1889550   -0.1244840   -1.0138410  
N     2.3628380   -1.0362010   -2.0354240  
C     3.1626550    0.3966720   -0.1286360  
C     2.6969870    1.4357300    0.6871070  
O     3.5504350    2.0782310    1.5417480  
C     1.3443450    1.8582780    0.6999710  
O     1.0984660    2.8392470    1.6274640  
C     0.3647600    1.2679410   -0.1072690  
H    -0.8084910   -0.3144790   -2.4735430  
H     3.2696380   -1.3460840   -2.3521520  
H     3.0054980    2.7623690    1.9815230  
H     0.4630470    3.4767770    1.2164980  
H     1.1204040   -1.8346640   -3.5855100  
C    -3.1061250   -1.3549640    0.1018350  
C    -4.1420990   -0.4552910    0.0746100  
C    -3.5202050    0.8729900    0.0209030  
C    -2.0573850    0.6451090    0.0180530  
N    -1.8860620   -0.7226840    0.0755050  
C    -1.0708430    1.6081300   -0.0143920  
C    -1.5639730    2.9842190    0.0781340  
O    -0.8369120    3.9665350    0.2339810  
C    -3.1093670    3.2639200    0.0098690  
O    -3.4805440    4.4256620   -0.0205030  
C    -4.0296440    2.1321180    0.0147970  
H    -5.0897330    2.3458050   -0.0262270  
H    -3.1595290   -2.4351520    0.1190310  
H    -0.9929870   -1.1755880   -0.0653590  
C    -6.4471430   -3.5170340    2.3577400  
C    -5.4403040   -2.7033040    1.9543530  
C    -6.0274120   -1.8480130    0.9266230  
C    -7.4427170   -2.3011280    0.8547010  
N    -7.6821870   -3.2799610    1.6841300  
C    -8.3963330   -1.6881360   -0.0350980  
C    -7.9667580   -0.6659870   -0.8080640  
O    -8.7489940    0.0089430   -1.6690880  
C    -6.5420540   -0.1886210   -0.7733980  
O    -6.2424480    0.7278740   -1.5357290  
C    -5.5481200   -0.8412300    0.1400110  
H    -4.4303270   -2.6607320    2.3361060  
H    -9.4211170   -2.0414980   -0.0603590  
H    -8.1635270    0.6714330   -2.0952250  
H    -6.4144940   -4.2884280    3.1179780  
