62


C    -4.9174360   -0.9862880    2.3386290  
C    -4.5615500   -0.6137810    1.0451910  
C    -5.7220630   -0.8983850    0.2136650  
C    -6.7103380   -1.4518250    1.0639170  
N    -6.1876050   -1.4789150    2.3490090  
C    -7.9597390   -1.8898800    0.6138910  
C    -8.2242690   -1.7701670   -0.7413300  
O    -9.4256310   -2.1724130   -1.2397460  
C    -7.2460500   -1.2276890   -1.6155190  
O    -7.6510460   -1.1713980   -2.9337600  
C    -6.0131930   -0.7991580   -1.1609940  
H    -6.6958590   -1.7529600    3.1764340  
H    -8.7095040   -2.3117580    1.2750970  
H    -9.4163120   -1.9934470   -2.1962420  
H    -6.9730550   -0.7244900   -3.4622030  
H    -5.2978630   -0.3620010   -1.8485580  
H    -4.3554470   -0.8706360    3.2535960  
C    -0.4580860   -1.2846520    2.6329960  
C    -1.7668760   -1.4725490    2.3302470  
C    -2.0902390   -0.4388980    1.3512970  
C    -0.8113060    0.2739930    1.1514330  
N     0.1308350   -0.2098360    1.9175380  
C    -0.6677950    1.3994700    0.2210360  
C    -1.8186630    1.7401440   -0.4257100  
O    -1.8861230    2.7617750   -1.3366570  
C    -3.1150680    1.0469630   -0.2600780  
O    -4.0531520    1.4480780   -0.9597570  
C    -3.2528700   -0.0702230    0.7293330  
H    -2.4301730   -2.2408440    2.7005040  
H    -2.8242100    2.7524570   -1.6389200  
H     0.1602960   -1.8512340    3.3186330  
C     3.5780200    0.0357870   -0.5878880  
C     2.2177240    0.0812990   -0.3685000  
C     1.8454540    1.4492740   -0.1772490  
C     3.0366040    2.2130510   -0.3023280  
N     4.0789290    1.3332370   -0.5131810  
C     3.0692540    3.6078940   -0.2250250  
C     1.8575270    4.2530900   -0.0407230  
O     1.8068520    5.6110520    0.0254830  
C     0.6444490    3.5238390    0.0771700  
O    -0.4596500    4.3227690    0.2878340  
C     0.6071760    2.1221240    0.0472850  
H     1.5762310   -0.7810190   -0.2743300  
H     4.9963820    1.6045530   -0.8328810  
H     3.9843740    4.1838830   -0.3168640  
H     0.8626860    5.8295960    0.1450540  
H    -1.1631660    4.0368560   -0.3344960  
C     4.0989570   -2.2301700   -1.5446450  
C     4.4418740   -1.0997260   -0.8585760  
C     5.8307450   -1.2840890   -0.4360070  
C     6.2523300   -2.6143910   -0.9459310  
N     5.1491200   -3.1422630   -1.5824790  
C     7.4901430   -3.1468680   -0.7780400  
C     8.4831100   -2.3792830   -0.0349680  
O     9.6240810   -2.7710730    0.1590610  
C     8.0499960   -0.9840130    0.5458120  
O     8.8591750   -0.3299450    1.1838580  
C     6.6820220   -0.5158590    0.2926930  
H     7.7764520   -4.1213170   -1.1619750  
H     6.3947910    0.4392600    0.7204110  
H     3.1597140   -2.4640470   -2.0272450  
H     5.1405860   -4.0133820   -2.0892420  
