64


C    -4.7817760   -0.1716380    0.0648780  
C    -5.3556470   -1.4329120   -0.0572760  
C    -6.7735550   -1.2670630   -0.0668210  
C    -7.0254730    0.1277370    0.0549990  
N    -5.8080480    0.7592580    0.1406820  
C    -8.3204500    0.6614590    0.0736550  
C    -9.3799740   -0.2252790   -0.0340530  
O   -10.6634290    0.2409880   -0.0224990  
C    -9.1472640   -1.6226260   -0.1570850  
O   -10.3056870   -2.3735040   -0.2533440  
C    -7.8701180   -2.1485590   -0.1738900  
H    -4.8229600   -2.3593400   -0.2200260  
H    -5.6376400    1.7546470    0.1241140  
H    -8.5170190    1.7245770    0.1659550  
H   -11.2490620   -0.5302550   -0.1130440  
H   -10.0744000   -3.3083800   -0.3548990  
H    -7.7186830   -3.2223270   -0.2692840  
C    -1.2355570   -2.4350710    1.3434630  
C    -0.2893220   -1.4873480    1.0554220  
C    -0.9761240   -0.3439830    0.5178710  
C    -2.3550820   -0.6720350    0.5037370  
N    -2.4809490   -1.9607930    0.9827770  
C    -3.3799870    0.2231090    0.1164830  
C    -2.9306340    1.5177870   -0.1761630  
O    -3.8233490    2.5041380   -0.5030050  
C    -1.5613360    1.8754190   -0.1724190  
O    -1.3448670    3.1805780   -0.5498700  
C    -0.5446310    0.9578830    0.1183400  
H     0.7739340   -1.5903260    1.2119960  
H    -3.3636300   -2.3608480    1.2636730  
H    -3.2749840    3.3041890   -0.6375300  
H    -0.6457370    3.5362850    0.0515080  
H    -1.1263840   -3.4227360    1.7689630  
C     2.8833800   -1.1256020   -1.7729420  
C     1.6461090   -0.7191220   -1.3838190  
C     1.8125550    0.4708680   -0.5858750  
C     3.2702920    0.7338010   -0.5533960  
N     3.8802870   -0.2798460   -1.2834890  
C     3.8618160    1.7760890    0.0884890  
C     2.9949100    2.7160320    0.7705570  
O     3.3976990    3.6690350    1.4210350  
C     1.4370280    2.5210860    0.6404250  
O     0.7405310    3.4518440    1.0476700  
C     0.8932810    1.2914870    0.0412440  
H     0.7100570   -1.1967540   -1.6257840  
H     4.9351280    1.9217180    0.1276880  
H     3.1744080   -1.9728160   -2.3794930  
C     5.8761390   -0.3075660   -2.7555790  
C     5.2663570   -0.4144490   -1.5266570  
C     6.2848560   -0.7257880   -0.5573890  
C     7.5057590   -0.7956030   -1.2727190  
N     7.2227710   -0.5481430   -2.6038740  
C     8.7277620   -1.0802390   -0.6497480  
C     8.7115360   -1.2952510    0.7187810  
O     9.8723190   -1.5702960    1.3765200  
C     7.4924800   -1.2307810    1.4501000  
O     7.6444030   -1.4734850    2.7995690  
C     6.2879250   -0.9532010    0.8333110  
H     7.9027520   -0.5219440   -3.3476350  
H     9.6672290   -1.1314060   -1.1903280  
H     9.6554960   -1.6640970    2.3204430  
H     6.8049910   -1.3169350    3.2572590  
H     5.3671640   -0.9075550    1.4097540  
H     5.4484250   -0.0752570   -3.7201540  
