62


C     5.5662680   -1.7187210    1.4083360  
C     4.9719220   -0.7455560    0.6172210  
C     6.0343420    0.1720900    0.2473950  
C     7.2236600   -0.2988030    0.8562580  
N     6.9055550   -1.4508080    1.5528980  
C     8.4568030    0.3543880    0.7375820  
C     8.4907840    1.5128770   -0.0209630  
O     9.6628540    2.1883730   -0.1854690  
C     7.3086790    2.0035220   -0.6384050  
O     7.5008980    3.1641320   -1.3633260  
C     6.0947180    1.3586730   -0.5103090  
H     7.5696740   -2.0498870    2.0183380  
H     9.3658730   -0.0135940    1.2020710  
H     9.4785380    2.9380550   -0.7782400  
H     6.7145430    3.3402520   -1.9015750  
H     5.2150270    1.7373920   -1.0192680  
H     5.1400600   -2.6251230    1.8153590  
C     1.4642050   -1.6415060    3.0558270  
C     0.4793140   -1.4949440    2.1278910  
C     1.1066170   -1.0916620    0.8890900  
C     2.5556080   -1.0354180    1.1665940  
N     2.7069750   -1.4058800    2.4950480  
C     3.5484330   -0.7000330    0.2803470  
C     3.0804590   -0.3420170   -1.0737150  
O     3.8317950   -0.0187260   -1.9788650  
C     1.5374290   -0.3649780   -1.3909690  
O     1.1803630    0.0617570   -2.4757790  
C     0.5901020   -0.8140440   -0.3547320  
H    -0.5759390   -1.6562790    2.2858710  
H     1.3861010   -1.9201810    4.0986220  
H     3.5732360   -1.2851130    2.9993440  
C    -3.1260340    1.0562520    1.2726750  
C    -1.8408390    0.6872000    1.0547380  
C    -1.8394760   -0.2399740   -0.0596260  
C    -3.2521840   -0.3584440   -0.4885770  
N    -3.9967160    0.4384430    0.3617710  
C    -3.6872890   -1.0972760   -1.5535760  
C    -2.6989500   -1.8302830   -2.3301010  
O    -2.9682240   -2.4646880   -3.3388880  
C    -1.2112640   -1.8069710   -1.8338810  
O    -0.4145920   -2.5734540   -2.3417330  
C    -0.8320420   -0.9003650   -0.7099350  
H    -0.9765980    1.0196620    1.6090310  
H    -4.7096350   -1.0616700   -1.9193200  
H    -3.5422750    1.7220090    2.0160250  
C    -6.6543970    3.9847190    0.1649610  
C    -5.5542050    3.1674880    0.1563310  
C    -6.0324560    1.8228210    0.3171010  
C    -7.4481970    1.8881480    0.4140760  
N    -7.7951930    3.2199340    0.3239280  
C    -8.2592120    0.7549030    0.5474370  
C    -7.6265000   -0.4781760    0.5882250  
O    -8.3585930   -1.6182990    0.7124810  
C    -6.2109780   -0.5806670    0.5227030  
O    -5.7206180   -1.8632360    0.6621260  
C    -5.4143550    0.5549420    0.3918540  
H    -4.5287710    3.4856570    0.0334920  
H    -8.7381430    3.5757810    0.3368000  
H    -9.3413490    0.8072580    0.6055900  
H    -7.7218210   -2.3566780    0.7027840  
H    -4.9662090   -2.0040290    0.0583480  
H    -6.7235070    5.0586760    0.0657360  
