60


C     7.3628390    1.3838870    1.6643610  
C     6.0642660    1.1851660    1.2628820  
C     6.0109470   -0.0886170    0.5951660  
C     7.3272320   -0.6206440    0.6403020  
N     8.1272790    0.3043000    1.2802130  
C     7.6602870   -1.8833270    0.1419120  
C     6.6284500   -2.6406290   -0.3894190  
O     6.8772780   -3.8834270   -0.8740010  
C     5.2957870   -2.1471580   -0.4450780  
O     4.4191930   -3.0209300   -1.0332150  
C     4.9607390   -0.8596930   -0.0002770  
H     5.2417150    1.8573730    1.4595690  
H     9.1048720    0.1763890    1.4914020  
H     8.6654410   -2.2900240    0.1833990  
H     6.0120010   -4.2389050   -1.1553390  
H     3.5775790   -2.9876130   -0.5202240  
H     7.8050720    2.2105410    2.2020190  
C     3.7218820    3.0103460   -1.5701000  
C     2.3784200    2.9660540   -1.3210120  
C     2.0929230    1.6934670   -0.7211780  
C     3.3850250    0.9841900   -0.6419480  
N     4.3274840    1.8425890   -1.1665890  
C     3.6082100   -0.2890990   -0.1588240  
C     2.3844260   -1.0253730    0.1514840  
O     2.3509900   -2.2230280    0.4266850  
C     0.9875600   -0.2962370    0.1161340  
O     0.0171710   -0.9910070    0.3922760  
C     0.9090390    1.1194780   -0.2695980  
H     1.6656340    3.7268560   -1.5929650  
H     4.3063670    3.7949310   -2.0318780  
H     5.3194960    1.6531520   -1.1600140  
C    -0.3471590    1.8321930   -0.1663260  
C    -0.6123460    3.1885780   -0.1590460  
C    -2.0275970    3.3646190   -0.0126890  
C    -2.6067850    2.0074750    0.0866060  
N    -1.5535250    1.1410630   -0.0091720  
C    -3.9500610    1.7263090    0.2146880  
C    -4.8550580    2.8975680    0.3322820  
O    -6.0296380    2.8074450    0.6340570  
C    -4.2577860    4.3379170    0.1374280  
O    -5.0218380    5.2913190    0.1050630  
C    -2.8112050    4.4822360    0.0193320  
H     0.1118970    3.9864190   -0.1908750  
H    -2.4060440    5.4856870   -0.0709700  
H    -1.5954140    0.1309100    0.0251040  
C    -4.4691610    0.3742840    0.2649380  
C    -3.8777260   -0.7559190    0.7773630  
C    -4.8039480   -1.8338600    0.5271280  
C    -5.9430910   -1.1756840   -0.1913050  
N    -5.7521200    0.1003000   -0.3388000  
C    -7.0840230   -1.9324070   -0.6440840  
C    -7.1029720   -3.2586010   -0.3769280  
O    -8.0979780   -4.0880750   -0.7263390  
C    -5.9747570   -3.9459840    0.3591300  
O    -6.0883170   -5.1584380    0.5496180  
C    -4.8172330   -3.1613270    0.7964210  
H    -2.9581760   -0.8333720    1.3415300  
H    -7.8926140   -1.4341530   -1.1670240  
H    -7.8192720   -4.9715630   -0.3942730  
H    -4.0200250   -3.6905120    1.3093530  
