62


C     2.3113020   -0.9965560   -1.8566030  
C     3.3649960   -0.3233350   -1.2861270  
C     2.8175130    0.7715040   -0.5271320  
C     1.4108470    0.7024240   -0.6753610  
N     1.1344610   -0.3724610   -1.4968320  
C     0.5309100    1.6420320   -0.0920620  
C     1.1251810    2.6546070    0.6643930  
O     0.3401050    3.5583540    1.3100250  
C     2.5343340    2.7304100    0.8182000  
O     2.9462110    3.7897380    1.6016580  
C     3.3836020    1.8121250    0.2334410  
H     0.2118450   -0.6603350   -1.7831040  
H     0.9302170    4.2210070    1.7097500  
H     3.9140480    3.8086080    1.6390440  
H     4.4603660    1.8842510    0.3632720  
H     2.3132630   -1.8747860   -2.4854550  
C    -2.4919930   -1.4942330    0.7327400  
C    -1.3549910   -0.7672290    0.6377220  
C    -1.6970230    0.5070060    0.0368730  
C    -3.1568210    0.4632180   -0.2114940  
N    -3.6011260   -0.7723770    0.2513110  
C    -3.8702990    1.4689290   -0.7916710  
C    -3.1647720    2.6868810   -1.1652880  
O    -3.7255860    3.6600590   -1.6468710  
C    -1.6110160    2.7465330   -0.9446200  
O    -1.0058880    3.7126460   -1.3676610  
C    -0.9315800    1.5943220   -0.2860770  
H    -0.3721770   -1.0733400    0.9630130  
H    -4.9274700    1.4020190   -1.0218810  
H    -2.6457050   -2.4910190    1.1170810  
C    -7.3543820    1.0062740    1.6315770  
C    -8.1957540    0.0022100    1.2805430  
C    -7.3925420   -1.0535930    0.6989800  
C    -5.9929090   -0.5631700    0.7368470  
N    -6.0303310    0.6730040    1.3411720  
C    -4.9233270   -1.2630770    0.2465520  
C    -5.1740360   -2.6096490   -0.2916460  
O    -4.2790800   -3.3297640   -0.7042520  
C    -6.6546910   -3.1435030   -0.3117020  
O    -6.8542480   -4.2628090   -0.7540760  
C    -7.7117550   -2.2817020    0.2087150  
H    -9.2667380   -0.0179450    1.4187660  
H    -8.7294510   -2.6577770    0.1848810  
H    -7.5738180    1.9599320    2.0926770  
H    -5.2579560    1.3242260    1.3465550  
C     5.3968240   -0.6697050   -2.6821110  
C     6.7086680   -1.0081400   -2.4910250  
C     6.8961920   -1.1898530   -1.0791670  
C     5.6424070   -0.9482540   -0.4596030  
N     4.7309150   -0.6268000   -1.4606930  
C     5.4491970   -1.0606890    0.9237120  
C     6.5464530   -1.4069180    1.6971190  
O     6.4147300   -1.5258080    3.0534110  
C     7.8107740   -1.6417160    1.0963780  
O     8.8069030   -1.9739660    1.9987020  
C     7.9953360   -1.5403330   -0.2702510  
H     7.4573520   -1.1089720   -3.2650560  
H     4.4874620   -0.8929780    1.3952420  
H     7.2829610   -1.7928880    3.4008070  
H     9.6242820   -2.1666090    1.5163920  
H     8.9731930   -1.7314300   -0.7088560  
H     4.8558470   -0.4300510   -3.5864460  
