64


C    -3.7995140   -0.0009010   -1.4990610  
C    -3.1774770   -0.9599220   -0.7216740  
C    -4.2397240   -1.7189910   -0.0948980  
C    -5.4680930   -1.1648990   -0.5363220  
N    -5.1662170   -0.1279330   -1.3965590  
C    -6.7153730   -1.6392670   -0.1099860  
C    -6.7234390   -2.6961130    0.7853450  
O    -7.9096050   -3.2033550    1.2344530  
C    -5.5037300   -3.2610970    1.2427410  
O    -5.6732050   -4.3082830    2.1325960  
C    -4.2760740   -2.7892440    0.8206780  
H    -5.8384480    0.4675610   -1.8541970  
H    -7.6543080   -1.2136270   -0.4491760  
H    -7.6951490   -3.9336150    1.8401040  
H    -4.8052100   -4.6649160    2.3719570  
H    -3.3574240   -3.2514160    1.1690910  
H    -3.3673660    0.7458360   -2.1505180  
C    -0.1464230    2.1521020   -0.1072880  
C     0.9747570    1.3170010   -0.0669640  
C     0.5206620   -0.0223630   -0.2177920  
C    -0.8936380    0.0333640   -0.3579810  
N    -1.2605980    1.3519660   -0.2765970  
C    -1.7210420   -1.0946780   -0.5586840  
C    -1.0412850   -2.3142800   -0.6045010  
O    -1.7330930   -3.4756950   -0.7937190  
C     0.3700720   -2.3991340   -0.4644150  
O     0.8440280   -3.6954420   -0.5291890  
C     1.1835270   -1.2813210   -0.2780430  
H     2.0082530    1.6303990   -0.0560360  
H    -2.1928440    1.7329210   -0.3722980  
H    -1.0760370   -4.1945990   -0.7992840  
H     1.7896490   -3.6992440   -0.2901000  
C     2.6073970    5.2049580    1.4444410  
C     1.9084790    6.3225980    1.1147130  
C     0.6784330    5.8932510    0.4856300  
C     0.7265150    4.4210440    0.4595050  
N     1.9391710    4.0614760    1.0201330  
C    -0.2601790    3.5941680   -0.0300150  
C    -1.4928970    4.2860660   -0.4702170  
O    -2.5196730    3.6958100   -0.7838300  
C    -1.5188940    5.8620280   -0.5412160  
O    -2.5112080    6.3898540   -1.0234860  
C    -0.3816910    6.5930130   -0.0171510  
H     2.2099460    7.3451230    1.2898840  
H    -0.4162750    7.6774470   -0.0349230  
H     3.5627670    5.1134320    1.9441420  
H     2.1255900    3.1265910    1.3533500  
C     2.6299400   -1.4097730   -0.1161770  
C     3.5074990   -0.7598380    0.7199040  
C     4.8213030   -1.2971960    0.4983410  
C     4.6975830   -2.2914460   -0.5014760  
N     3.3449670   -2.4000490   -0.8275580  
C     5.7894320   -3.0096550   -0.9938290  
C     7.0379260   -2.7263700   -0.4557550  
O     8.1378540   -3.3966880   -0.9043180  
C     7.1787450   -1.7497760    0.5638370  
O     8.4773430   -1.5902770    1.0071150  
C     6.0929400   -1.0394040    1.0458030  
H     3.2272700   -0.0248970    1.4618970  
H     3.0523860   -2.6648090   -1.7611030  
H     5.6983850   -3.7695250   -1.7632810  
H     8.9031890   -3.0637290   -0.4047040  
H     8.5029880   -0.9148630    1.7007540  
H     6.2274230   -0.2932340    1.8265650  
