64


C    -4.3355090    3.3817500   -1.4445010  
C    -3.8194850    4.6000730   -1.7578210  
C    -2.5135220    4.6882790   -1.1565820  
C    -2.2772570    3.4702750   -0.4760820  
N    -3.4120790    2.6605610   -0.6707370  
C    -1.1152970    3.2458140    0.2716350  
C    -0.1620070    4.2563360    0.2964750  
O     0.9814870    4.0779780    1.0108560  
C    -0.3731290    5.4713260   -0.4037510  
O     0.6629480    6.3717000   -0.2848590  
C    -1.5360010    5.6974350   -1.1191120  
H    -4.3044440    5.3536300   -2.3631470  
H    -0.9319200    2.3440260    0.8425130  
H     1.5279150    4.8749140    0.8980640  
H     0.4584130    7.1765830   -0.7836650  
H    -1.6926660    6.6430790   -1.6336300  
H    -5.2650010    2.9139730   -1.7312400  
C    -3.6484440    1.3850900   -0.2035310  
C    -4.8447860    0.7774780    0.0751270  
C    -4.5652680   -0.5814870    0.4491570  
C    -3.0970250   -0.7291520    0.3714200  
N    -2.5805080    0.5146160    0.0283130  
C    -2.4181010   -1.8889720    0.5950470  
C    -3.2125570   -3.0695560    1.0051260  
O    -2.7003230   -4.1350140    1.2950340  
C    -4.7786430   -2.9217420    1.0908110  
O    -5.4293210   -3.9171900    1.3768610  
C    -5.3691050   -1.6243430    0.8098780  
H    -5.8145990    1.2520150    0.0707870  
H    -6.4488330   -1.5344250    0.8717780  
H    -1.6738270    0.6205580   -0.4075620  
C    -0.1537190   -1.0937220    1.2423120  
C     1.1559140   -1.3812820    0.9498040  
C     1.1262660   -2.4803980    0.0073190  
C    -0.2296030   -2.8159600   -0.2209860  
N    -1.0122290   -1.9525220    0.5487730  
C    -0.6145740   -3.8304230   -1.1044650  
C     0.3917310   -4.5356150   -1.7467890  
O     0.0705770   -5.5399350   -2.6133990  
C     1.7569000   -4.2293810   -1.5092250  
O     2.6436720   -5.0226490   -2.2157540  
C     2.1326840   -3.2181770   -0.6446910  
H    -1.6485940   -4.1050090   -1.2724710  
H     0.9060120   -5.9443510   -2.9044370  
H     3.5390910   -4.8833390   -1.8735160  
H     3.1830640   -2.9962400   -0.4723850  
H    -0.5612750   -0.3603030    1.9236090  
C     2.5552210   -0.4738570    2.8568600  
C     2.3348020   -0.7272360    1.5213370  
C     3.4829430   -0.1987250    0.8166380  
C     4.3554990    0.3575960    1.7870640  
N     3.7612680    0.1789310    3.0201160  
C     5.5679460    0.9732080    1.4506490  
C     5.9039320    1.0351770    0.1072710  
O     7.0758920    1.6245400   -0.2766560  
C     5.0369460    0.4962770   -0.8791820  
O     5.5043020    0.6414770   -2.1745800  
C     3.8408810   -0.1107680   -0.5438240  
H     4.1601340    0.4504200    3.9046890  
H     6.2378440    1.3991410    2.1909050  
H     7.1150880    1.5741000   -1.2471710  
H     4.8435720    0.2962650   -2.7929110  
H     3.1883700   -0.5101350   -1.3170130  
H     1.9467950   -0.7351700    3.7111840  
