62


C     5.9337370    1.0589370    2.2739620  
C     5.0970080    0.7969050    1.2009430  
C     5.4031890   -0.5501520    0.7594370  
C     6.4236320   -1.0378490    1.6113990  
N     6.7214040   -0.0315810    2.5167320  
C     6.9884570   -2.3102630    1.4755810  
C     6.5166740   -3.1111670    0.4474680  
O     7.0304310   -4.3580960    0.2697450  
C     5.5085070   -2.6338430   -0.4335560  
O     5.1613360   -3.5367260   -1.4146670  
C     4.9543880   -1.3739530   -0.2928480  
H     7.3892780   -0.1066430    3.2691700  
H     7.7722000   -2.6805290    2.1281150  
H     6.5909560   -4.7496570   -0.5050980  
H     4.5301950   -3.1339500   -2.0292970  
H     4.2105060   -1.0246460   -1.0047830  
H     5.9880470    1.9384850    2.8991580  
C     4.1147800    1.7167130    0.6840520  
C     4.0842550    3.0883170    0.6907000  
C     2.8441360    3.5156010    0.1073570  
C     2.1181340    2.2818880   -0.2640450  
N     2.9504350    1.2334210    0.0529410  
C     0.8378140    2.2356720   -0.7657980  
C     0.2040010    3.5442200   -1.0710480  
O    -0.8417260    3.6495890   -1.6843070  
C     0.9550630    4.8593790   -0.6564970  
O     0.3854530    5.9291650   -0.8163520  
C     2.2972380    4.7486090   -0.1012690  
H     4.8783050    3.7351420    1.0352040  
H     2.8078610    5.6668510    0.1725960  
H     2.5990540    0.2933180    0.1868260  
C     0.1352290    0.9956740   -1.0208000  
C     0.6284800   -0.2247960   -1.4141600  
C    -0.5131700   -1.1041650   -1.5128250  
C    -1.6655210   -0.2470180   -1.0948280  
N    -1.2891810    0.9598540   -0.8092350  
C    -3.0276740   -0.7678870   -1.0351940  
C    -3.2058550   -2.0537640   -1.4640220  
O    -4.4048820   -2.6575530   -1.5489300  
C    -2.0657210   -2.9233320   -1.8822490  
O    -2.3340960   -4.0741690   -2.2429620  
C    -0.6969920   -2.3912210   -1.8806700  
H     1.6378820   -0.4604520   -1.7230050  
H    -4.2032430   -3.5646970   -1.8737290  
H     0.0967760   -3.0649680   -2.1880050  
C    -4.2307380    1.4012970   -0.9302330  
C    -5.3442660    1.9030120   -0.3273820  
C    -5.9156460    0.8531480    0.4726280  
C    -5.0989910   -0.2929240    0.3063870  
N    -4.0646610    0.0555030   -0.5746460  
C    -5.3310030   -1.4806520    1.0074470  
C    -6.4246980   -1.5220850    1.8620060  
O    -6.6930400   -2.6669930    2.5613040  
C    -7.2629710   -0.3933380    2.0206980  
O    -8.3111600   -0.5852860    2.9030350  
C    -7.0179240    0.7885060    1.3413460  
H    -5.7125390    2.9147020   -0.4294510  
H    -4.7114060   -2.3607030    0.9013870  
H    -7.4895590   -2.4958140    3.0921590  
H    -8.8409610    0.2239760    2.9509930  
H    -7.6607560    1.6540050    1.4912000  
H    -3.5083810    1.8789070   -1.5727920  
