60


C     5.7690430    1.8745640    1.5172700  
C     7.1284290    1.8117640    1.5904030  
C     7.5569640    0.7490410    0.7206570  
C     6.3943040    0.1790860    0.1478850  
N     5.2904160    0.8848990    0.6475960  
C     6.4545820   -0.8522690   -0.7949700  
C     7.7081940   -1.3345900   -1.1399380  
O     7.8164240   -2.3464250   -2.0485290  
C     8.8817130   -0.7863940   -0.5610390  
O    10.0517310   -1.3694420   -1.0058020  
C     8.8192460    0.2458700    0.3575190  
H     7.7579080    2.4365880    2.2095550  
H     5.5755570   -1.3027200   -1.2380980  
H     8.7612780   -2.5621390   -2.1299610  
H    10.8030260   -1.0019350   -0.5173020  
H     9.7300790    0.6654980    0.7798680  
H     5.0662280    2.4994040    2.0479550  
C     2.1449600    3.7371180   -0.4282500  
C     3.3392390    3.1601030   -0.1400350  
C     3.1035320    1.7400190    0.0242940  
C     1.6608760    1.5309610   -0.2023980  
N     1.1403160    2.7753840   -0.4956900  
C     0.9928220    0.3326180   -0.1491890  
C     1.8075240   -0.8431150    0.1611990  
O     1.3722130   -1.9843400    0.1703110  
C     3.3374270   -0.6512250    0.4853580  
O     3.9631960   -1.6135720    0.8863300  
C     3.9402800    0.6962740    0.3314620  
H     4.2927950    3.6600160   -0.0677290  
H     1.9111120    4.7753930   -0.6216430  
H     0.1497920    2.9631770   -0.5376860  
C    -1.0885230    0.6784620   -1.5510170  
C    -0.4369980    0.1921600   -0.4525810  
C    -1.4537650   -0.4920020    0.3527700  
C    -2.7312010   -0.3571420   -0.3807070  
N    -2.4342180    0.3350200   -1.5387720  
C    -3.9482140   -0.8227920    0.0385830  
C    -3.9723470   -1.4997520    1.3481700  
O    -4.9916790   -1.9550990    1.8407850  
C    -2.6243060   -1.6472920    2.1462020  
O    -2.6541600   -2.1838990    3.2409850  
C    -1.3927150   -1.1208680    1.5535760  
H    -0.4685250   -1.2570960    2.1029950  
H    -0.6795820    1.2208580   -2.3939690  
H    -3.1351710    0.6813180   -2.1763550  
C    -5.3133480   -1.0942650   -2.0709420  
C    -5.1705820   -0.7074170   -0.7680020  
C    -6.4684710   -0.1587370   -0.3618830  
C    -7.3550180   -0.2604360   -1.5463530  
N    -6.5870710   -0.8209830   -2.5509160  
C    -8.6515720    0.1389550   -1.5804860  
C    -9.2241340    0.7332340   -0.3768950  
O   -10.3775290    1.1298360   -0.3108300  
C    -8.2957830    0.8768940    0.8837250  
O    -8.7424980    1.4009820    1.8906670  
C    -6.9145480    0.3820970    0.7988990  
H    -9.2821750    0.0462880   -2.4594610  
H    -6.3008730    0.4520530    1.6896890  
H    -4.5892560   -1.5818040   -2.7115000  
H    -6.9455330   -1.1250190   -3.4429340  
