60


C     3.6849300   -0.6296800   -0.0559880  
C     4.3754820    0.5203690    0.3482100  
C     5.7608090    0.2499100    0.2610620  
C     5.8932340   -1.0938470   -0.2058970  
N     4.6326320   -1.5926770   -0.3875860  
C     7.1385120   -1.7014710   -0.4070640  
C     8.2661940   -0.9457480   -0.1316580  
O     9.5005770   -1.4824580   -0.3066760  
C     8.1539760    0.4006740    0.3384720  
O     9.3740360    1.0022070    0.5606680  
C     6.9303980    0.9990480    0.5357310  
H     3.9235680    1.4266770    0.7197570  
H     4.3712830   -2.5368990   -0.6371020  
H     7.2470320   -2.7209420   -0.7610790  
H    10.1544040   -0.8045370   -0.0604650  
H     9.2414770    1.9060330    0.8833410  
H     6.8660840    2.0242410    0.8938420  
C    -0.0257600    1.8845750    0.0286420  
C     1.2999310    1.5089870   -0.0356640  
C     1.2771640    0.0822740   -0.0467980  
C    -0.1641370   -0.2719950    0.0163770  
N    -0.9156420    0.8015450    0.0665180  
C    -0.6665600   -1.6462580   -0.0037160  
C     0.3076830   -2.6039390   -0.1651340  
O     0.0904700   -3.9139410   -0.2209410  
C     1.7802950   -2.2678030   -0.2667980  
O     2.5217280   -3.2438210   -0.4576430  
C     2.2685140   -0.8842270   -0.1196360  
H     2.1612410    2.1437470   -0.1631610  
H     0.9823190   -4.3138570   -0.3544670  
C    -2.0820860   -1.9382930    0.1153160  
C    -3.0863390   -1.1182160    0.5658580  
C    -4.2991270   -1.8966900    0.4815160  
C    -3.8515720   -3.2166170   -0.0647590  
N    -2.5709790   -3.2418100   -0.2750620  
C    -4.7864640   -4.2866980   -0.3103280  
C    -6.0886420   -4.0593270   -0.0211760  
O    -7.0701800   -4.9578970   -0.1903040  
C    -6.5686460   -2.7375370    0.5354450  
O    -7.7735030   -2.6340820    0.7688180  
C    -5.6011200   -1.6591450    0.7677360  
H    -2.9913760   -0.1054160    0.9202870  
H    -4.4383760   -5.2329750   -0.7091390  
H    -7.8888170   -4.4982690    0.1048720  
H    -5.9829270   -0.7178850    1.1509520  
C     0.2584040    4.3047700    0.2878910  
C    -0.4743760    5.4407480    0.2840110  
C    -1.8531420    5.0717790    0.0459990  
C    -1.8724180    3.5953480   -0.0955930  
N    -0.5382270    3.1679740    0.0707620  
C    -2.9944490    2.8847060   -0.3636980  
C    -4.2669540    3.6067210   -0.4766190  
O    -5.3245640    3.0343590   -0.6858920  
C    -4.2645120    5.1659070   -0.3163690  
O    -5.3142970    5.7801460   -0.4151080  
C    -2.9799240    5.8212550   -0.0561010  
H    -0.1001360    6.4421190    0.4422810  
H    -2.9942370    1.8108980   -0.4875220  
H    -2.9734180    6.9026430    0.0411550  
H     1.3174800    4.1756200    0.4550390  
