62


C    -4.8822490    0.3564920    0.0525640  
C    -5.3680480   -0.3148240    1.1500230  
C    -6.7890280   -0.4510300    0.9980860  
C    -7.1353890    0.1641400   -0.2291110  
N    -5.9736910    0.7131260   -0.7712010  
C    -8.4437230    0.1933300   -0.7178040  
C    -9.4293370   -0.4034550    0.0569090  
O   -10.7225860   -0.4071330   -0.3753470  
C    -9.1047410   -1.0053710    1.3011330  
O   -10.1931120   -1.5436440    1.9592360  
C    -7.8067770   -1.0328180    1.7789060  
H    -4.7771740   -0.6227500    2.0016020  
H    -5.8516000    0.7978730   -1.7735600  
H    -8.7127420    0.6597780   -1.6600200  
H   -11.2521590   -0.8628770    0.3016060  
H    -9.9029320   -1.9465690    2.7908790  
H    -7.5808820   -1.5033010    2.7337080  
C    -0.9168500   -1.6583110    0.5046390  
C    -2.2462480   -1.3593620    0.5094380  
C    -2.3939610   -0.0213540    0.0022850  
C    -1.0956520    0.4552440   -0.2976650  
N    -0.1858350   -0.5622330    0.0354110  
C    -0.8711670    1.6875370   -0.9152940  
C    -1.9831300    2.4719780   -1.1953110  
O    -1.8128060    3.6958050   -1.7741090  
C    -3.2868920    2.0308090   -0.8804590  
O    -4.2765050    2.9364640   -1.2021680  
C    -3.5245840    0.7846510   -0.2819020  
H    -3.0395060   -2.0232370    0.8199980  
H     0.1140360    2.0577990   -1.1622030  
H    -2.6942010    4.1033080   -1.8403050  
H    -5.1176880    2.6408060   -0.8070980  
H    -0.4003720   -2.5603650    0.7876570  
C     2.4868760   -3.6089090   -1.4491980  
C     3.6855360   -2.9773930   -1.3822030  
C     3.3909880   -1.6594510   -0.8333970  
C     1.9240460   -1.6723010   -0.6293420  
N     1.4028600   -2.8133160   -0.9895540  
C     1.2072480   -0.5240490   -0.0804070  
C     1.9645840    0.5500850    0.3005010  
O     1.4504810    1.6515540    0.8876220  
C     3.4262820    0.6065450    0.0927760  
O     4.0158490    1.6428280    0.4080140  
C     4.1414230   -0.5783800   -0.4873470  
H     4.6571430   -3.3713850   -1.6441400  
H     2.2104680    2.2627560    1.0011010  
H     2.2818070   -4.6165490   -1.7891670  
C     6.0742560   -0.9113350   -1.9775130  
C     7.4195700   -0.7778580   -1.9788410  
C     7.8097960   -0.2466580   -0.6915870  
C     6.5574330   -0.0598810    0.0805810  
N     5.5057300   -0.4686340   -0.7685330  
C     6.5287780    0.3500800    1.3688040  
C     7.7980960    0.6795650    2.0280510  
O     7.8517050    1.0538990    3.1877050  
C     9.1264470    0.5395270    1.2071340  
O    10.1875960    0.8273410    1.7366670  
C     9.0280320    0.0458140   -0.1677650  
H     8.0817950   -1.0071440   -2.8014560  
H     5.6209870    0.4811700    1.9426760  
H     9.9502330   -0.0903490   -0.7242800  
H     5.4146690   -1.2568370   -2.7609180  
