62


C    -2.8393080   -1.4564970    0.5179940  
C    -3.9099560   -0.6988130    0.0961320  
C    -3.3652890    0.6068890   -0.2246330  
C    -1.9730730    0.5620590    0.0419990  
N    -1.6872370   -0.6986720    0.5255510  
C    -1.1179290    1.6777900   -0.1191550  
C    -1.7170830    2.8271540   -0.6548320  
O    -0.9610610    3.9185140   -0.9513930  
C    -3.1104520    2.8826840   -0.9166550  
O    -3.5289630    4.1044580   -1.4103920  
C    -3.9425020    1.8065540   -0.6880960  
H    -0.7531990   -1.0838100    0.4475930  
H    -1.5698670    4.6093620   -1.2673080  
H    -4.4847170    4.0799800   -1.5659160  
H    -5.0102350    1.8771380   -0.8785420  
H    -2.8161450   -2.4968750    0.8103200  
C     2.1916140   -1.1331730   -0.8818960  
C     3.2890020   -0.4604710   -0.3951520  
C     2.7193050    0.7735420    0.1790490  
C     1.2569980    0.6746320   -0.0957470  
N     0.9781770   -0.4655780   -0.6983620  
C     0.3091290    1.7018230    0.2789510  
C     0.8361600    2.7181070    1.0388340  
O     0.1082590    3.7017140    1.5701170  
C     2.3013980    2.8309470    1.3558720  
O     2.6627290    3.7910340    2.0348960  
C     3.2408640    1.8019850    0.8699300  
H     0.7526870    4.2767880    2.0423270  
H     4.2952220    1.8916160    1.1025970  
H     2.1821490   -2.1002250   -1.3715920  
C     4.6639610   -0.8539920   -0.4167840  
C     5.2416420   -1.9790990   -0.9647750  
C     6.6445810   -1.8711300   -0.6995630  
C     6.7825870   -0.5729940    0.0492020  
N     5.6321110    0.0120260    0.2093330  
C     8.0613470   -0.0961340    0.5041380  
C     9.1442120   -0.8618890    0.2317800  
O    10.3952950   -0.5540000    0.5874000  
C     9.0389140   -2.1767300   -0.5223280  
O    10.0942740   -2.7861930   -0.7104870  
C     7.7328010   -2.6398150   -0.9729190  
H     4.7490290   -2.7829080   -1.4939690  
H     8.1364070    0.8422660    1.0420990  
H    10.9452800   -1.2988530    0.2488760  
H     7.6924960   -3.5829910   -1.5085410  
C    -6.6797320   -2.7184950    3.0137060  
C    -5.5989600   -2.1184610    2.4223010  
C    -5.9811720   -1.7821210    1.0785720  
C    -7.3271590   -2.2044110    0.9149490  
N    -7.7245310   -2.7743070    2.1081970  
C    -8.0447540   -2.0203900   -0.2733950  
C    -7.3814430   -1.3991400   -1.3193890  
O    -8.0190790   -1.2059000   -2.5135290  
C    -6.0382790   -0.9693950   -1.1773900  
O    -5.5161460   -0.3890200   -2.3217080  
C    -5.3138430   -1.1417670    0.0012070  
H    -4.6441300   -1.9253020    2.8897820  
H    -8.6359240   -3.1628610    2.2913340  
H    -9.0721100   -2.3455780   -0.4023430  
H    -7.3648340   -0.8145340   -3.1182660  
H    -4.5568870   -0.2841510   -2.2049490  
H    -6.7988360   -3.1136980    4.0127950  
