60


C     5.3436220   -0.7813300   -2.0868140  
C     5.2683370   -0.1231610   -0.8656670  
C     6.6199750   -0.1234630   -0.3284960  
C     7.4359010   -0.8101190   -1.2606450  
N     6.6275400   -1.1913450   -2.3198670  
C     8.8028830   -1.0383340   -1.0667940  
C     9.3668400   -0.5575970    0.1040680  
O    10.6951390   -0.7371860    0.3467010  
C     8.5669740    0.1287390    1.0559350  
O     9.2668030    0.5493500    2.1699550  
C     7.2167850    0.3440610    0.8589340  
H     6.9535130   -1.6190270   -3.1731730  
H     9.4212280   -1.5616250   -1.7888100  
H    10.8934580   -0.2976380    1.1921640  
H     8.7137500    1.1522670    2.6892520  
H     6.6391310    0.8994810    1.5894710  
H     4.5723950   -0.9281700   -2.8291000  
C     1.1152140   -1.6620490   -0.8589710  
C     2.4587660   -1.5236410   -0.9546550  
C     2.8113830   -0.2118380   -0.4486420  
C     1.5458130    0.4123440   -0.0224670  
N     0.5278260   -0.5045570   -0.3145510  
C     1.4347680    1.6160920    0.5978550  
C     2.6547620    2.3567460    0.8542500  
O     2.6879480    3.4262560    1.4450770  
C     4.0211820    1.7400050    0.3718460  
O     5.0356690    2.3782100    0.5901480  
C     4.0305120    0.4177860   -0.3193060  
H     3.1459240   -2.2662750   -1.3301230  
H     0.4911690    2.0497030    0.9067820  
H     0.4794610   -2.4864460   -1.1523550  
C    -2.2485550   -2.9466930    1.8907290  
C    -3.4089200   -2.3090350    1.5628090  
C    -3.0736980   -1.1945700    0.7152070  
C    -1.6087260   -1.2267220    0.5835350  
N    -1.1679870   -2.3382350    1.2764760  
C    -0.8492740   -0.3229210   -0.1127000  
C    -1.5653090    0.7758200   -0.7743260  
O    -1.0326500    1.5768960   -1.5188960  
C    -3.1099990    0.9073110   -0.5154390  
O    -3.6253060    1.9635860   -0.8603990  
C    -3.8455540   -0.2038160    0.1182980  
H    -4.3904960   -2.5714590    1.9220020  
H    -2.0958470   -3.8056110    2.5302360  
H    -0.1980220   -2.5245700    1.4841290  
C    -5.2949880   -0.2035390    0.1174230  
C    -6.1777600   -1.2528080    0.3009700  
C    -7.5103830   -0.7447630    0.1522770  
C    -7.3684980    0.7031260   -0.1421870  
N    -6.0169330    0.9635400   -0.1374750  
C    -8.4121720    1.5432350   -0.3612220  
C    -9.7661990    1.0002200   -0.3043630  
O   -10.7655250    1.6789740   -0.4876690  
C    -9.9400730   -0.5319090    0.0079570  
O   -11.0670860   -1.0027110    0.0607320  
C    -8.7378800   -1.3360930    0.2243600  
H    -5.9179610   -2.2887560    0.4507250  
H    -8.2907180    2.6000060   -0.5772780  
H    -8.8691590   -2.3927300    0.4379160  
H    -5.5552600    1.8215390   -0.4116740  
