60


C    -1.3683760   -4.0930090   -0.7003830  
C    -2.4786920   -4.8721360   -0.6371900  
C    -3.5914130   -4.0201010   -0.2953220  
C    -3.0936300   -2.7023450   -0.1673010  
N    -1.7013980   -2.7570510   -0.4210020  
C    -3.9166540   -1.6275930    0.1781520  
C    -5.2628630   -1.8962030    0.3953620  
O    -6.1029720   -0.8766720    0.7458700  
C    -5.7764490   -3.2079300    0.2635330  
O    -7.1293010   -3.3134440    0.5088490  
C    -4.9544770   -4.2702370   -0.0796180  
H    -2.5127470   -5.9377520   -0.8196330  
H    -3.5376260   -0.6204280    0.2707340  
H    -6.9972420   -1.2538680    0.8136700  
H    -7.4212270   -4.2233050    0.3493300  
H    -5.3594280   -5.2757370   -0.1719570  
H    -0.3501490   -4.3516970   -0.9436460  
C    -0.7810870   -1.7419510   -0.3811370  
C     0.5976180   -1.8443010   -0.4752390  
C     1.0792120   -0.5119620   -0.3784060  
C    -0.1624600    0.3212540   -0.2293980  
N    -1.2413390   -0.4175900   -0.2339450  
C    -0.1341270    1.7619530   -0.1041320  
C     1.1150610    2.3078880   -0.0571120  
O     1.3397420    3.6050570    0.1268190  
C     2.3966300    1.4969350   -0.1748580  
O     3.4348870    2.1627140   -0.1091270  
C     2.3481450    0.0448380   -0.3698300  
H     1.1905910   -2.7414270   -0.5481260  
H     2.3209960    3.7038780    0.0870150  
C     3.6755380   -1.8354880   -1.3959490  
C     3.5609170   -0.7194520   -0.6051280  
C     4.9259160   -0.5555100   -0.0381770  
C     5.6969960   -1.6898340   -0.6205690  
N     4.9569620   -2.4170430   -1.4183870  
C     7.0821980   -1.9148410   -0.3115400  
C     7.6836190   -1.0694210    0.5601350  
O     8.9664850   -1.1633690    0.9461670  
C     6.9325180    0.0692710    1.1836100  
O     7.5376280    0.7918710    1.9747160  
C     5.5116030    0.2884650    0.8326520  
H     7.6071030   -2.7478880   -0.7658050  
H     9.1027020   -0.4204260    1.5747080  
H     5.0230240    1.1438470    1.2812330  
H     2.9008360   -2.2692030   -2.0154220  
C    -3.8474020    1.8277350    2.3876210  
C    -2.6182710    1.5505950    1.8809810  
C    -2.4003350    2.4388160    0.7597870  
C    -3.6185380    3.2841840    0.6683120  
N    -4.4477300    2.8710410    1.6919020  
C    -3.8204410    4.2668130   -0.2463480  
C    -2.7697360    4.5221200   -1.2186980  
O    -2.8349830    5.4020300   -2.0637030  
C    -1.4867330    3.6133330   -1.1814880  
O    -0.6527350    3.7596510   -2.0573070  
C    -1.3547820    2.5906100   -0.1108700  
H    -1.9391950    0.7900810    2.2316670  
H    -4.7162520    4.8792530   -0.2786150  
H    -4.3695120    1.3619410    3.2125170  
H    -5.3944030    3.1895530    1.8253710  
