64


C     5.5478600   -1.5573030    1.5916290  
C     6.8240790   -1.0991550    1.7746190  
C     6.9796490    0.0644690    0.9479040  
C     5.7477390    0.2655090    0.2744220  
N     4.8760790   -0.7420030    0.6799460  
C     5.5320080    1.3359840   -0.6012410  
C     6.5852750    2.2118260   -0.8102770  
O     6.4319750    3.2709340   -1.6602860  
C     7.8287560    2.0226000   -0.1512540  
O     8.7792120    2.9792550   -0.4622910  
C     8.0355500    0.9687630    0.7188320  
H     7.5744400   -1.5506310    2.4097000  
H     4.5946840    1.4845520   -1.1236550  
H     7.2827450    3.7413210   -1.6863980  
H     9.6165160    2.7503560   -0.0329350  
H     8.9948150    0.8464130    1.2185510  
H     5.0508290   -2.4301440    1.9914730  
C     1.3966830   -0.7868600    3.2664170  
C     0.4480140   -0.9756930    2.2938880  
C     1.1293050   -1.0142110    1.0284060  
C     2.5090040   -0.8561990    1.3170200  
N     2.6432300   -0.7094350    2.6797630  
C     3.5108890   -0.8815830    0.3320920  
C     3.0917050   -1.0980850   -0.9790660  
O     3.9981430   -1.1671840   -1.9851010  
C     1.7155570   -1.2574040   -1.2936230  
O     1.4899560   -1.4406510   -2.6373290  
C     0.7072010   -1.1886290   -0.3251170  
H    -0.6132890   -1.0773310    2.4646230  
H     3.5223580   -0.5737870    3.1555440  
H     3.4761490   -1.3583530   -2.7895070  
H     0.8285180   -2.1669420   -2.7179260  
H     1.2870800   -0.7025280    4.3382810  
C    -2.7590480    1.3619340    0.7411020  
C    -1.5165600    0.8546120    0.5470900  
C    -1.6621510   -0.3805920   -0.1890440  
C    -3.1185130   -0.5407840   -0.4217190  
N    -3.7426090    0.5368290    0.1759420  
C    -3.6911760   -1.5832150   -1.0932730  
C    -2.8061140   -2.5844220   -1.6577870  
O    -3.1909930   -3.5718650   -2.2644120  
C    -1.2545120   -2.3623750   -1.5197580  
O    -0.5357420   -3.1085770   -2.1810650  
C    -0.7315710   -1.2821260   -0.6590760  
H    -0.5872650    1.2903220    0.8778220  
H    -4.7560950   -1.6588300   -1.2898520  
H    -3.0692940    2.2661850    1.2463260  
C    -6.3029450    3.9304130   -1.0876670  
C    -5.2343510    3.0947890   -0.8915100  
C    -5.7309190    1.9403190   -0.1969930  
C    -7.1248110    2.1330100   -0.0012420  
N    -7.4411100    3.3572560   -0.5516980  
C    -7.9468120    1.1877280    0.6233270  
C    -7.3491080    0.0181290    1.0678500  
O    -8.0965020   -0.9403940    1.6795080  
C    -5.9534390   -0.1972090    0.9137180  
O    -5.4881850   -1.3674750    1.4784050  
C    -5.1456560    0.7515930    0.2908820  
H    -4.2194240    3.2760230   -1.2154510  
H    -8.3649900    3.7592960   -0.5808160  
H    -9.0137910    1.3310650    0.7581180  
H    -7.4893960   -1.6725300    1.8929060  
H    -4.7850700   -1.7551100    0.9258670  
H    -6.3510940    4.8947980   -1.5730840  
