64


C     0.8090910    1.6460560   -0.0292420  
C    -0.4817550    1.1578000    0.0065850  
C    -0.4185180   -0.2728830   -0.0155540  
C     0.9531900   -0.6227590   -0.0445650  
N     1.6814110    0.5504430   -0.0223690  
C     1.4194530   -1.9528730   -0.0877910  
C     0.4341630   -2.9453820   -0.0891100  
O     0.7999010   -4.2548910   -0.0920410  
C    -0.9405780   -2.6198870   -0.0359960  
O    -1.7636820   -3.7296410   -0.0330490  
C    -1.4032370   -1.2991610    0.0029440  
H    -1.3718610    1.7594650    0.1037790  
H     2.6548210    0.6130530   -0.2869100  
H    -0.0184690   -4.7777590   -0.1675730  
H    -2.6767360   -3.4470930   -0.2265070  
C    -0.8628650    5.4663980   -1.6890510  
C    -0.6679410    4.1544360   -1.3440190  
C     0.5662210    4.0838700   -0.6114500  
C     1.0828370    5.4059910   -0.5548720  
N     0.1871650    6.2258430   -1.2095750  
C     2.3008480    5.7292350    0.0525170  
C     3.0174800    4.6868950    0.6181980  
O     4.2067290    4.9373410    1.2367300  
C     2.5275450    3.3580260    0.5770830  
O     3.3837790    2.4420650    1.1774520  
C     1.3092950    3.0210740   -0.0240400  
H    -1.3152640    3.3316750   -1.6066960  
H     0.2979600    7.2189910   -1.3390230  
H     2.6913220    6.7406650    0.0966390  
H     4.5182260    4.0859340    1.5929570  
H     2.8744900    1.6997390    1.5439490  
H    -1.6671050    5.9290760   -2.2435120  
C    -2.8331850   -0.9998010    0.0201390  
C    -3.5494830    0.0012980   -0.5946850  
C    -4.9373040   -0.1842540   -0.2817140  
C    -5.0261760   -1.3311310    0.5434480  
N    -3.7440170   -1.8630290    0.6705050  
C    -6.2351570   -1.7921340    1.0702940  
C    -7.3848390   -1.0848500    0.7458040  
O    -8.5907630   -1.4892160    1.2359250  
C    -7.3184910    0.0545890   -0.0993740  
O    -8.5456060    0.6406120   -0.3389070  
C    -6.1181270    0.5076400   -0.6158570  
H    -3.1316230    0.7513920   -1.2513500  
H    -3.4659170   -2.3686310    1.5033590  
H    -6.3071850   -2.6676870    1.7073700  
H    -9.2627680   -0.8733960    0.8958420  
H    -8.4297540    1.4178180   -0.9052180  
H    -6.0905770    1.3858540   -1.2576500  
C     4.9319710   -1.0301210    2.5166160  
C     3.6627370   -1.1000620    2.0431830  
C     3.7627560   -1.8594500    0.7998330  
C     5.2159200   -2.1792200    0.6921350  
N     5.8942870   -1.6877350    1.6930450  
C     5.7415000   -2.9622780   -0.3963270  
C     4.8672720   -3.4069560   -1.3273570  
O     5.2129780   -4.1475480   -2.3933670  
C     3.3976800   -3.0728130   -1.2711320  
O     2.7085440   -3.4343300   -2.2184560  
C     2.8544170   -2.2819480   -0.1193230  
H     2.7544560   -0.7316410    2.4991380  
H     6.8021850   -3.1817690   -0.4464480  
H     4.3811660   -4.2745370   -2.9008930  
H     5.2753540   -0.5570020    3.4293150  
