62


C     2.4410030   -1.5056670    0.2514800  
C     1.2210660   -0.8715740    0.2623090  
C     1.4495420    0.5040610   -0.0560620  
C     2.8459540    0.6430020   -0.2426330  
N     3.4375490   -0.6013520   -0.0492960  
C     3.4641110    1.8597670   -0.5629820  
C     2.6608550    2.9827860   -0.6619350  
O     3.2127260    4.1929420   -0.9514560  
C     1.2573400    2.9039390   -0.4684520  
O     0.6314130    4.0907200   -0.5976610  
C     0.6065750    1.6622240   -0.1936400  
H     0.2894030   -1.3540690    0.5109800  
H     4.5318820    1.9432210   -0.7328840  
H     2.4760320    4.8306140   -0.9866140  
H    -0.3514930    3.9344610   -0.4226400  
H     2.6909560   -2.5396130    0.4361960  
C    -0.8210150    1.6060530   -0.0974090  
C    -1.6928240    0.5279710   -0.0066490  
C    -3.0021560    1.0616160    0.0640290  
C    -2.8109740    2.5508400   -0.0031450  
N    -1.5449720    2.8487740   -0.1037860  
C    -3.9048640    3.4698910    0.0268950  
C    -5.1475930    2.9335800    0.1145810  
O    -6.2677880    3.6482390    0.1659140  
C    -5.3950280    1.4327500    0.1901620  
O    -6.5736830    1.1025380    0.3508370  
C    -4.2680250    0.5081940    0.1252780  
H    -1.4435350   -0.5182040   -0.0316650  
H    -3.7363460    4.5398600   -0.0183010  
H    -6.9878560    2.9756010    0.2515360  
C    -2.8923170   -3.0110490    2.5591290  
C    -3.0228610   -1.7439860    2.0947890  
C    -3.9684590   -1.8395880    0.9881790  
C    -4.3148800   -3.2928170    0.9394430  
N    -3.6848730   -3.9706330    1.8583890  
C    -5.2593780   -3.8201260   -0.0108550  
C    -5.8305180   -2.9518630   -0.8757850  
O    -6.7169430   -3.3023370   -1.8221520  
C    -5.4825610   -1.4871370   -0.8794750  
O    -5.9589890   -0.8035880   -1.7798710  
C    -4.5400860   -0.9348630    0.1480020  
H    -2.5416620   -0.8470370    2.4560720  
H    -5.4894040   -4.8797400   -0.0172850  
H    -6.9120420   -2.4752960   -2.3151420  
H    -2.2779270   -3.3556380    3.3828330  
C     6.7786300    0.9483290    2.3179810  
C     7.7693690    0.2296630    1.7024170  
C     7.1443870   -0.5683990    0.6851220  
C     5.7554590   -0.2815150    0.7375190  
N     5.5585910    0.6381180    1.7434730  
C     4.8268800   -0.8958160   -0.1236090  
C     5.3140980   -1.8215770   -1.0444240  
O     4.4575740   -2.4498510   -1.8969720  
C     6.7003900   -2.1214820   -1.0918180  
O     7.0214930   -3.0622030   -2.0516730  
C     7.6120560   -1.5114370   -0.2512780  
H     8.8224460    0.2611950    1.9451460  
H     4.6723720    1.0571650    1.9794430  
H     4.9958330   -3.0293620   -2.4644530  
H     7.9828950   -3.1728990   -2.0901520  
H     8.6686670   -1.7638520   -0.3100230  
H     6.8342590    1.6629410    3.1267790  
