64


C    -1.5037600   -0.6301730    1.9056920  
C    -0.7244270   -0.5307730    0.7741780  
C    -1.6427600   -0.3369320   -0.3277010  
C    -2.9542460   -0.3235140    0.2094700  
N    -2.8388070   -0.4996040    1.5738020  
C    -4.1216540   -0.1867760   -0.5721940  
C    -3.9230590   -0.0592430   -1.9476690  
O    -4.9889020    0.1133630   -2.7788050  
C    -2.6167360   -0.0875660   -2.5036240  
O    -2.5963220    0.0490980   -3.8832130  
C    -1.4848380   -0.2230780   -1.7228800  
H    -3.6186560   -0.5838430    2.2073940  
H    -4.6408250    0.1089080   -3.6873470  
H    -1.7101660   -0.1656360   -4.2098210  
H    -0.4970150   -0.2497150   -2.1769500  
H    -1.1995670   -0.7564120    2.9352400  
C     1.5149340   -1.6001130    1.3014940  
C     0.7354190   -0.6303620    0.7149580  
C     1.6573390    0.2706040    0.0566940  
C     2.9686590   -0.2074760    0.3061020  
N     2.8562190   -1.3302980    1.1022010  
C     4.1335810    0.4493760   -0.1585950  
C     3.9109330    1.5678410   -0.9773720  
O     4.9583500    2.2023800   -1.5735660  
C     2.6031660    2.0556370   -1.2236360  
O     2.5749090    3.1846470   -2.0268830  
C     1.4822200    1.4435000   -0.7006580  
H     3.5798740   -2.0416330    1.0766810  
H     4.5926310    2.9758920   -2.0373970  
H     1.6631750    3.5033290   -2.0971560  
H     0.4888530    1.8444070   -0.8882760  
H     1.2071520   -2.4815360    1.8470950  
C    -5.8440020    2.6063490    2.3669430  
C    -7.0762660    2.0200620    2.4992350  
C    -7.0950970    0.8746900    1.6326840  
C    -5.8285940    0.8163100    0.9958810  
N    -5.0841060    1.8792740    1.4691060  
C    -5.4693960   -0.1682620    0.0501750  
C    -6.4457930   -1.1228400   -0.2361600  
O    -6.1770610   -2.1334850   -1.1100680  
C    -7.7197380   -1.0784430    0.3908530  
O    -8.5657350   -2.1021930   -0.0027560  
C    -8.0549410   -0.1059270    1.3129490  
H    -7.8780880    2.3635710    3.1386220  
H    -4.1598890    2.1178740    1.1441770  
H    -6.9907220   -2.6599230   -1.1933760  
H    -9.4296850   -1.9822190    0.4177580  
H    -9.0396570   -0.1012480    1.7767200  
H    -5.4344840    3.4853010    2.8447610  
C     6.2106010   -3.4841270   -0.1054730  
C     7.4884900   -3.1209580    0.1417160  
C     7.4421750   -1.6768340    0.3362380  
C     5.9984440   -1.3154760    0.1252630  
N     5.2908980   -2.3879000   -0.1065420  
C     5.5150100    0.0567290    0.2028440  
C     6.4398820    0.9694760    0.6398840  
O     6.1604890    2.2555400    0.8847270  
C     7.8804640    0.6286680    0.8900360  
O     8.6262750    1.5337660    1.2665100  
C     8.3507510   -0.7539730    0.6990010  
H     8.3656930   -3.7497040    0.2034810  
H     7.0144720    2.6555550    1.1639180  
H     9.3992670   -0.9587810    0.8922870  
H     5.8216150   -4.4778160   -0.2933230  
