66


C     5.7595290    1.4509690   -1.8129610  
C     7.0725220    1.1792140   -2.0863860  
C     7.5426210    0.2889590   -1.0635120  
C     6.4491150    0.0487570   -0.1895280  
N     5.3601360    0.7756330   -0.6634120  
C     6.5430340   -0.8040840    0.9220020  
C     7.7677860   -1.4109870    1.1613400  
O     7.9125750   -2.2506120    2.2281990  
C     8.8736390   -1.1725170    0.3043000  
O    10.0235020   -1.8450630    0.6756800  
C     8.7733380   -0.3416720   -0.7970010  
H     7.6418020    1.5724720   -2.9176200  
H     5.6990270   -1.0237450    1.5670850  
H     8.8289500   -2.5763880    2.2145390  
H    10.7270020   -1.6576650    0.0369760  
H     9.6332410   -0.1826110   -1.4451730  
H     5.0516040    2.0874900   -2.3238400  
C     1.3223290   -0.2078320   -2.2178630  
C     2.6759770   -0.0503660   -2.0891990  
C     2.9099820    0.4962720   -0.7830750  
C     1.6475960    0.6476180   -0.1559200  
N     0.6798470    0.2120200   -1.0548850  
C     1.5005010    1.1129680    1.1555470  
C     2.6548100    1.4509570    1.8429600  
O     2.5752150    1.9159830    3.1234500  
C     3.9324610    1.3407370    1.2332440  
O     4.9761050    1.7620610    2.0263420  
C     4.0706820    0.8650420   -0.0672120  
H     3.4196640   -0.2850890   -2.8374050  
H     0.5340490    1.2170410    1.6336910  
H     3.4871870    2.0743420    3.4244850  
H     5.8206210    1.4604840    1.6509030  
H     0.7334940   -0.5574990   -3.0542620  
C    -1.8179100   -3.3403200   -0.9638660  
C    -3.0131400   -2.7157370   -0.7155370  
C    -2.7452470   -1.3082230   -0.6143880  
C    -1.3532880   -1.1466510   -0.8238930  
N    -0.8121690   -2.3951860   -1.0327650  
C    -0.7151180    0.1065990   -0.8206120  
C    -1.5160790    1.2231380   -0.5917850  
O    -0.9619890    2.4657400   -0.5661050  
C    -2.9078870    1.0785400   -0.3664120  
O    -3.5454200    2.2826650   -0.1356560  
C    -3.5531050   -0.1624060   -0.3765290  
H    -3.9755980   -3.1981980   -0.6317500  
H     0.1694370   -2.5772410   -1.1766340  
H    -1.6760750    3.0853250   -0.3317690  
H    -4.4449280    2.1050130    0.1969010  
H    -1.5950960   -4.3886720   -1.1029370  
C    -4.9866840   -0.2704720   -0.1066940  
C    -5.6987430   -1.2038360    0.6086710  
C    -7.0825950   -0.8204830    0.5909810  
C    -7.1717150    0.3755820   -0.1606300  
N    -5.8776670    0.7420850   -0.5299160  
C    -8.3841990    1.0221180   -0.4127120  
C    -9.5348640    0.4533580    0.1166540  
O   -10.7458970    1.0416750   -0.1030410  
C    -9.4626450   -0.7332940    0.8918810  
O   -10.6876640   -1.1687300    1.3591730  
C    -8.2589060   -1.3702550    1.1363860  
H    -5.2675980   -2.0407520    1.1401820  
H    -5.7019460    1.2509240   -1.3883670  
H    -8.4570830    1.9368670   -0.9921150  
H   -11.4156960    0.5003390    0.3493010  
H   -10.5686420   -1.9827930    1.8702980  
H    -8.2286470   -2.2814350    1.7305150  
