62


C     3.5366520   -1.7755280   -1.3109820  
C     4.0377170   -0.6424900   -0.7045160  
C     5.1282520   -1.0902320    0.1411140  
C     5.2285740   -2.4977050   -0.0090720  
N     4.2440400   -2.8838190   -0.8961230  
C     6.1725690   -3.2683140    0.6811600  
C     7.0313130   -2.6063420    1.5443600  
O     7.9721240   -3.3081810    2.2388640  
C     6.9383360   -1.1990280    1.7189360  
O     7.8544200   -0.6893250    2.6183460  
C     6.0053420   -0.4404840    1.0374540  
H     4.0820730   -3.8273450   -1.2119690  
H     6.2503690   -4.3449010    0.5685080  
H     8.4585520   -2.6707830    2.7898380  
H     7.7223750    0.2660770    2.7093010  
H     5.9463140    0.6336170    1.1952840  
H     2.7349380   -1.8669940   -2.0298270  
C    -0.0776360    1.1949630   -0.5310230  
C     0.9958200    0.3285330   -0.4923270  
C     2.1746480    1.0759090   -0.8070210  
C     1.7653250    2.4178680   -1.0236530  
N     0.3985540    2.4726140   -0.8228120  
C     2.6595750    3.4438820   -1.3467150  
C     3.9984920    3.1001660   -1.4479220  
O     4.9209990    4.0492940   -1.7773290  
C     4.4307480    1.7664980   -1.2238890  
O     5.7924910    1.5952130   -1.3823380  
C     3.5511540    0.7357920   -0.9003570  
H     0.9496150   -0.7139020   -0.2102710  
H    -0.1880870    3.2354890   -1.1261250  
H     2.3499560    4.4695830   -1.5176810  
H     5.7813700    3.5982640   -1.8378610  
H     5.9977340    0.6460530   -1.3337400  
C    -2.1497010   -0.2193030   -0.6040780  
C    -1.4890990    0.9366370   -0.3132620  
C    -2.4727540    1.8332030    0.2891340  
C    -3.7616750    1.0968330    0.3006470  
N    -3.4999730   -0.1686200   -0.2114730  
C    -4.9398190    1.6349590    0.7211030  
C    -4.9425180    2.9994200    1.2442420  
O    -5.9571050    3.5587920    1.6313650  
C    -3.5741480    3.7612000    1.3192030  
O    -3.5407640    4.8806890    1.8031840  
C    -2.3803700    3.0919700    0.7894320  
H    -5.8918360    1.1214600    0.6484330  
H    -1.4448410    3.6402780    0.8274590  
H    -1.7765430   -1.1086320   -1.0867110  
C    -6.4344870   -1.9095370    2.5284340  
C    -6.9768560   -2.8251440    1.6876710  
C    -6.2747410   -2.7248250    0.4249480  
C    -5.2704430   -1.6498110    0.6050560  
N    -5.3939460   -1.2176190    1.9067840  
C    -4.4169660   -1.2262220   -0.3800070  
C    -4.4581130   -1.9338670   -1.6709960  
O    -3.7024640   -1.6700080   -2.5922160  
C    -5.5082050   -3.0923510   -1.8567640  
O    -5.5278330   -3.6788780   -2.9267970  
C    -6.3890490   -3.4174460   -0.7411990  
H    -7.7758350   -3.5150440    1.9162020  
H    -7.1131780   -4.2133410   -0.8819830  
H    -6.6860620   -1.6818270    3.5555790  
H    -4.9601960   -0.3819330    2.2716400  
