62


C    -4.7992850    0.9945450   -1.7874680  
C    -5.4123430    2.1739790   -1.4665660  
C    -5.9423860    2.0312400   -0.1389750  
C    -5.6168340    0.7242310    0.3024510  
N    -4.9134710    0.0964930   -0.7240340  
C    -5.9595520    0.2481680    1.5731190  
C    -6.6558620    1.1061230    2.4095840  
O    -7.0200600    0.6908310    3.6581250  
C    -6.9983160    2.4169520    1.9827020  
O    -7.6923210    3.1480180    2.9285630  
C    -6.6511370    2.8851890    0.7294960  
H    -5.4944440    3.0405220   -2.1088390  
H    -5.7138280   -0.7515340    1.9114060  
H    -7.4982800    1.4265880    4.0776740  
H    -7.9068940    4.0212390    2.5688080  
H    -6.9190070    3.8949860    0.4244660  
H    -4.3122710    0.6797400   -2.6997110  
C    -0.7072130   -0.9941300   -0.9251820  
C    -0.8905350   -2.3660780   -0.8468860  
C    -2.2906510   -2.6121180   -0.7615160  
C    -2.9310700   -1.3453020   -0.7916520  
N    -1.9609330   -0.3784140   -0.9306300  
C    -4.3246280   -1.1901770   -0.6905130  
C    -5.0829180   -2.3538710   -0.5705840  
O    -6.4321260   -2.2762620   -0.4804880  
C    -4.4486210   -3.6314490   -0.5417090  
O    -5.3440470   -4.6706400   -0.4180170  
C    -3.0812900   -3.7769760   -0.6432060  
H    -0.1017360   -3.1043070   -0.8915770  
H    -2.1212060    0.5956720   -0.7126470  
H    -6.7727200   -3.1844790   -0.3937080  
H    -4.8712510   -5.5162450   -0.4109120  
H    -2.6250420   -4.7635400   -0.6167490  
C     0.5024470   -0.2333290   -1.0401230  
C     1.7962630   -0.5812000   -0.7246550  
C     2.6512300    0.5302130   -1.0139320  
C     1.7663960    1.5953010   -1.5300260  
N     0.4716080    1.0970400   -1.4847800  
C     2.1727000    2.8178510   -1.9560140  
C     3.5850950    3.1372510   -1.8459300  
O     4.0613200    4.2111440   -2.1805580  
C     4.5509840    2.0520990   -1.2391210  
O     5.7279740    2.3589310   -1.1232300  
C     4.0176470    0.7222550   -0.8632520  
H     2.0894990   -1.5087370   -0.2579610  
H     1.4963030    3.5735300   -2.3430470  
H    -0.2557890    1.4510190   -2.0907560  
C     4.7814440   -1.6805060   -0.6932150  
C     4.9122450   -0.3396370   -0.4324260  
C     6.1337470   -0.2718460    0.4148420  
C     6.5610960   -1.6921340    0.5483000  
N     5.7716500   -2.4983130   -0.1147130  
C     7.7119820   -2.0783990    1.3184290  
C     8.4058620   -1.1035270    1.9534980  
O     9.4927690   -1.3161160    2.7136980  
C     7.9934630    0.3359440    1.8555160  
O     8.6632650    1.1659230    2.4687940  
C     6.8166940    0.7075530    1.0376370  
H     7.9916050   -3.1241710    1.3824820  
H     9.7624500   -0.4261010    3.0315920  
H     6.5840020    1.7617440    0.9583360  
H     4.0325050   -2.1475000   -1.3206040  
