62


C     0.5745400    4.0106810   -0.4397290  
C     1.5162880    4.9767530   -0.5794860  
C     2.8114560    4.3444230   -0.4981880  
C     2.5999390    2.9598420   -0.3069210  
N     1.1940180    2.7576610   -0.2735440  
C     3.6557300    2.0561850   -0.1683340  
C     4.9472270    2.5712640   -0.2342500  
O     6.0103250    1.7291980   -0.1022040  
C     5.1735970    3.9537400   -0.4332710  
O     6.5040060    4.3090890   -0.4767260  
C     4.1186360    4.8444580   -0.5640260  
H     1.3210510    6.0303070   -0.7282290  
H     3.4973950    0.9978130   -0.0155320  
H     6.8176150    2.2626600   -0.2019840  
H     6.5850530    5.2591560   -0.6479620  
H     4.3047960    5.9061990   -0.7105340  
H    -0.5011760    4.0797660   -0.4547070  
C     0.5000300    1.5942430   -0.1167970  
C    -0.8790900    1.4319940   -0.0194000  
C    -1.0814560    0.0406380    0.1070490  
C     0.3099170   -0.5452810    0.0740790  
N     1.2165150    0.3842870   -0.0547780  
C     0.5718430   -1.9713910    0.1351010  
C    -0.5583860   -2.7324870    0.1653030  
O    -0.5342880   -4.0805660    0.1863660  
C    -1.9757970   -2.2018050    0.2280950  
O    -2.8399830   -3.0702660    0.3648730  
C    -2.2167500   -0.7548770    0.1823260  
H    -1.6410310    2.1916770   -0.0716670  
H    -1.4924970   -4.3316030    0.2638680  
C    -3.5632700   -0.2313940    0.2156910  
C    -3.9912560    0.9745540    0.7223280  
C    -5.4104130    1.0212310    0.4883520  
C    -5.7068600   -0.2697570   -0.2148070  
N    -4.6411960   -0.9973400   -0.3640820  
C    -7.0412730   -0.5992150   -0.6494060  
C    -8.0262310    0.2884520   -0.3787800  
O    -9.3136640    0.1160240   -0.7126410  
C    -7.7599450    1.5903160    0.3442940  
O    -8.7282390    2.3289710    0.5387000  
C    -6.3959760    1.9119800    0.7640980  
H    -3.4067470    1.7070180    1.2596130  
H    -7.2298160   -1.5350110   -1.1635210  
H    -9.7707090    0.9228840   -0.3823550  
H    -6.2409440    2.8587770    1.2724030  
C     4.3095530   -1.1271380    2.5191160  
C     3.0235730   -1.1336740    2.0469190  
C     2.9724350   -2.0686680    0.9569760  
C     4.2782920   -2.6141730    0.8280080  
N     5.0692910   -2.0214520    1.7893330  
C     4.6129870   -3.5929560   -0.1140280  
C     3.5939990   -4.0511210   -0.9317850  
O     3.8396260   -5.0161520   -1.8614080  
C     2.2754420   -3.5354730   -0.8219630  
O     1.3863580   -4.0757350   -1.7338140  
C     1.9428210   -2.5268470    0.0886490  
H     2.2111590   -0.5333560    2.4272070  
H     6.0551640   -2.1881420    1.9127690  
H     5.6127570   -4.0044650   -0.2087280  
H     2.9826320   -5.1775980   -2.3000220  
H     0.5882420   -4.3639400   -1.2472030  
H     4.7539080   -0.5557290    3.3216410  
