60


C    -0.9322530   -4.7223910   -0.2538630  
C    -1.3296320   -3.3889000   -0.1553630  
C    -2.7784200   -3.4097190   -0.0224400  
C    -3.1781370   -4.7646600   -0.0440420  
N    -2.0260750   -5.5309530   -0.1878610  
C    -4.5116500   -5.1725540    0.0650060  
C    -5.4688950   -4.1772440    0.2024640  
O    -6.7835900   -4.5101430    0.3205110  
C    -5.0878240   -2.8086840    0.2202400  
O    -6.1445460   -1.9359870    0.3574270  
C    -3.7670020   -2.4169880    0.1024900  
H    -2.0018240   -6.5393990   -0.2215010  
H    -4.8158800   -6.2139890    0.0510990  
H    -7.2823920   -3.6804610    0.4225530  
H    -5.8106990   -1.0305580    0.4596970  
H    -3.4885730   -1.3695290    0.0993760  
H     0.0599170   -5.1391990   -0.3523140  
C    -0.4676440   -2.2476530   -0.1658440  
C     0.8968430   -2.1433120   -0.3489820  
C     1.2137730   -0.7552700   -0.2367210  
C    -0.1042430   -0.0963340    0.0350250  
N    -1.0689760   -0.9641650    0.0621660  
C    -0.2573160    1.3466470    0.2319690  
C     0.9134290    2.0468780    0.1633050  
O     1.0052080    3.3740920    0.3496100  
C     2.2545840    1.4184030   -0.1195960  
O     3.2083000    2.2056200   -0.1673510  
C     2.3797100   -0.0298940   -0.3259870  
H     1.5960950   -2.9490770   -0.5198830  
H     1.9672410    3.5693010    0.2344130  
C     3.8431880   -1.5616230   -1.6612930  
C     3.6715240   -0.6119550   -0.6902870  
C     5.0029960   -0.3716130   -0.1192550  
C     5.9363090   -1.2653290   -0.8501590  
N     5.1645150   -1.9563010   -1.7657790  
C     7.2712420   -1.3534880   -0.6236570  
C     7.8506790   -0.5276200    0.4299440  
O     9.0395970   -0.5362930    0.7101900  
C     6.8814230    0.4047590    1.2412260  
O     7.3358500    1.0894840    2.1433350  
C     5.4560470    0.4200310    0.8850710  
H     7.9276050   -2.0158700   -1.1798570  
H     4.8141190    1.0956950    1.4366120  
H     3.0970300   -1.9843040   -2.3205090  
H     5.5271170   -2.5937390   -2.4576980  
C    -2.6267020    1.2794830    1.1025050  
C    -1.5752370    1.9128860    0.4961730  
C    -2.1330080    3.2301160    0.1114790  
C    -3.5493830    3.1776620    0.5858210  
N    -3.8205680    2.0377640    1.1636790  
C    -4.4617890    4.2725920    0.3943870  
C    -4.0085900    5.3687850   -0.2592520  
O    -4.7476900    6.4595080   -0.5156430  
C    -2.5978180    5.4450280   -0.7717950  
O    -2.2609220    6.4685850   -1.3649620  
C    -1.6763990    4.3104830   -0.5514010  
H    -5.4788070    4.1984110    0.7633460  
H    -4.1483600    7.0713130   -0.9977960  
H    -0.6634380    4.4205910   -0.9169910  
H    -2.6178970    0.2863440    1.5260660  
