64


C    -0.1859400    1.6417670   -0.0236210  
C     1.0425560    0.9889190   -0.1583000  
C     0.7995730   -0.4108820   -0.1461600  
C    -0.6135560   -0.5792610   -0.0284050  
N    -1.1700260    0.6687380    0.0602950  
C    -1.2543900   -1.8408040   -0.0048070  
C    -0.3805820   -2.9193040   -0.1090010  
O    -0.8698670   -4.2040820   -0.0841750  
C     1.0303470   -2.7851410   -0.2284190  
O     1.6908690   -3.9935980   -0.2991110  
C     1.6612570   -1.5464740   -0.2250460  
H     1.9943800    1.4636220   -0.3325020  
H    -2.1580130    0.8957690    0.0666350  
H    -0.0856290   -4.7784540   -0.2067120  
H     2.3721720   -3.9193960   -1.0044420  
C    -4.7253180    0.0317990   -2.1780780  
C    -3.4729390   -0.3810310   -1.8060110  
C    -3.6296030   -1.2552440   -0.6736030  
C    -5.0251560   -1.3475660   -0.4208430  
N    -5.6635470   -0.5492140   -1.3472330  
C    -5.5693200   -2.1557560    0.5836410  
C    -4.6784940   -2.9046840    1.3345550  
O    -5.1324270   -3.7363190    2.3147970  
C    -3.2777250   -2.8275390    1.1116540  
O    -2.5298970   -3.6134240    1.9687770  
C    -2.7231260   -1.9901470    0.1411010  
H    -2.5490280   -0.1017350   -2.2907760  
H    -6.6587000   -0.3990130   -1.3960420  
H    -6.6358130   -2.2293330    0.7709080  
H    -4.3329820   -4.1620760    2.6793760  
H    -1.8657990   -4.0904500    1.4272650  
H    -5.0311630    0.6989180   -2.9712720  
C     4.3711170    0.7408820    2.4239060  
C     5.5579210    0.4052020    1.8247190  
C     5.2421860   -0.4576570    0.7227430  
C     3.8283970   -0.6018900    0.6976320  
N     3.3292300    0.1323830    1.7528300  
C     3.1382350   -1.4085370   -0.2395610  
C     3.9592770   -2.0877490   -1.1390030  
O     3.3939780   -2.9365620   -2.0756220  
C     5.3681910   -1.9591050   -1.1344250  
O     5.9944900   -2.7111340   -2.1132050  
C     6.0201710   -1.1502060   -0.2252650  
H     6.5429980    0.7213730    2.1391270  
H     2.3469090    0.2439090    1.9543930  
H     4.1245180   -3.2919510   -2.6143070  
H     6.9508990   -2.5643200   -2.0742190  
H     7.1049120   -1.0676920   -0.2331290  
H     4.1761810    1.3603450    3.2881890  
C     2.2851540    5.3025620    0.6574000  
C     1.8429810    4.0180690    0.5949810  
C     0.4482190    4.0515000    0.2104930  
C     0.1055130    5.4795300    0.0664240  
N     1.2648190    6.1829020    0.3218570  
C    -1.1198510    5.9801340   -0.2656170  
C    -2.1970650    5.0416360   -0.4619970  
O    -3.3371490    5.3501180   -0.7836740  
C    -1.8921050    3.5138330   -0.2307420  
O    -2.8495390    2.7531420   -0.2270720  
C    -0.4903090    3.0559700   -0.0087620  
H     2.4284270    3.1454950    0.8352850  
H    -1.3162070    7.0396980   -0.3945500  
H     3.2629650    5.6811620    0.9229260  
H     1.3282730    7.1883890    0.3444040  
