62


C    -4.6611480    1.8856380   -2.7431620  
C    -5.7565850    2.1862690   -1.9775140  
C    -5.5679250    1.5538720   -0.7013890  
C    -4.3191970    0.8826290   -0.7516930  
N    -3.7815150    1.1140470   -2.0027300  
C    -3.8065130    0.1138050    0.3155160  
C    -4.6036590    0.0442680    1.4597910  
O    -4.1581970   -0.6410390    2.5484650  
C    -5.8511100    0.7163510    1.5286550  
O    -6.4999350    0.5569180    2.7402830  
C    -6.3384640    1.4653000    0.4746060  
H    -6.6027180    2.7852350   -2.2855200  
H    -2.9523030    0.6649700   -2.3585950  
H    -4.8856700   -0.6594430    3.1944410  
H    -7.4064490    0.8894560    2.6656870  
H    -7.2985370    1.9712100    0.5555280  
H    -4.4238040    2.1612760   -3.7611490  
C     0.3445460    1.5037590   -0.4093960  
C    -1.0036430    1.4226400   -0.2047000  
C    -1.3241420    0.0269130   -0.0128380  
C    -0.0480980   -0.7075090   -0.1172890  
N     0.9438800    0.2497640   -0.3258030  
C     0.1168010   -2.0577580   -0.0284390  
C    -1.1058720   -2.8273780    0.2949510  
O    -1.0869220   -4.0141900    0.5630810  
C    -2.4892610   -2.0787200    0.3421250  
O    -3.4975130   -2.7568670    0.4274940  
C    -2.5169300   -0.6026070    0.2352770  
H    -1.6909980    2.2498290   -0.1136390  
H     1.8425330    0.0201600   -0.7280610  
C     0.6359550    3.7652560   -1.3392370  
C     1.5638640    4.7472000   -1.3789800  
C     2.7395530    4.2714710   -0.6784450  
C     2.4201620    2.9002180   -0.2119920  
N     1.1190940    2.6273110   -0.6660620  
C     3.2544090    2.1417420    0.5403970  
C     4.5613410    2.6961590    0.9042760  
O     5.3506400    2.0961180    1.6159960  
C     4.9432730    4.1191240    0.3659080  
O     6.0460820    4.5755710    0.6180450  
C     3.9385420    4.8503280   -0.4134690  
H     1.4530680    5.7101630   -1.8562600  
H     3.0100870    1.1542570    0.9131150  
H     4.1905230    5.8523810   -0.7468450  
H    -0.3606710    3.7330770   -1.7570220  
C     3.9938750   -1.5248680    2.1000580  
C     4.7089110   -2.4551730    1.3975760  
C     3.8180650   -3.0380030    0.4320120  
C     2.5589400   -2.4043980    0.5916860  
N     2.6981410   -1.4671560    1.6016190  
C     1.4231220   -2.7301610   -0.1827870  
C     1.6003620   -3.7345450   -1.1399790  
O     0.5706190   -4.0641130   -1.9665310  
C     2.8520950   -4.3788160   -1.3064950  
O     2.8544910   -5.3343540   -2.3063280  
C     3.9551130   -4.0427930   -0.5441390  
H     5.7543470   -2.6915430    1.5400180  
H     1.9224620   -1.0225470    2.0694010  
H     0.8507170   -4.8417470   -2.4801840  
H     3.6765390   -5.8445980   -2.2625100  
H     4.9069200   -4.5467410   -0.6993250  
H     4.3043490   -0.8587910    2.8923680  
