60


C     4.3658130    3.5563260   -0.7599610  
C     3.8264570    4.7919320   -0.6030130  
C     2.5158570    4.6276970   -0.0231260  
C     2.2997740    3.2413400    0.1533470  
N     3.4586710    2.5767330   -0.3175230  
C     1.1339830    2.7426560    0.7406400  
C     0.1595040    3.6608400    1.1183530  
O    -0.9951830    3.2088680    1.6771380  
C     0.3560890    5.0505930    0.9299180  
O    -0.6965410    5.8313040    1.3524980  
C     1.5253410    5.5402760    0.3696400  
H     4.3001130    5.7258930   -0.8739330  
H     0.9777530    1.6892910    0.9224290  
H    -1.5294040    3.9825450    1.9269000  
H    -0.4624430    6.7685030    1.2784030  
H     1.6712990    6.6107580    0.2423350  
H     5.3126930    3.2575140   -1.1806180  
C     3.7235350    1.2335420   -0.3671400  
C     4.9264170    0.6190580   -0.6506470  
C     4.6542130   -0.7757690   -0.6159010  
C     3.1872280   -0.8722590   -0.2625280  
N     2.6610950    0.3237700   -0.1365310  
C     2.4972390   -2.1293780   -0.1116520  
C     3.2613960   -3.2311010   -0.4158950  
O     2.7869730   -4.4641000   -0.4593520  
C     4.7475970   -3.1702020   -0.7679310  
O     5.2818170   -4.2613650   -0.9897840  
C     5.4073250   -1.8908200   -0.8364320  
H     5.8847700    1.0789770   -0.8371110  
H     3.5722550   -5.0304980   -0.6684190  
H     6.4622980   -1.8683540   -1.0872620  
C    -1.2616250    0.0189490   -1.0697700  
C    -2.1589680   -0.7122050   -0.3409660  
C    -1.3724040   -1.7288910    0.3633810  
C     0.0346090   -1.5254050   -0.0592150  
N     0.0292410   -0.4753300   -0.9639170  
C     1.1038090   -2.2719280    0.3572050  
C     0.8143810   -3.2685670    1.4165980  
O     1.6872280   -3.8376640    2.0482840  
C    -0.6813850   -3.5864100    1.7663370  
O    -0.9189520   -4.5389050    2.4917430  
C    -1.7254690   -2.7265230    1.2125380  
H    -2.7481570   -2.9073550    1.5206770  
H    -1.4484030    0.9003620   -1.6702750  
H     0.8643240    0.1057670   -1.0424520  
C    -5.0402840   -0.1884210   -3.5995160  
C    -6.1717650    0.0276610   -2.8800450  
C    -5.8128010   -0.0413730   -1.4792330  
C    -4.3575830   -0.3131570   -1.4412790  
N    -3.9415940   -0.3509900   -2.7626550  
C    -3.6100790   -0.4977340   -0.3096170  
C    -4.3420390   -0.4055310    0.9722530  
O    -3.8006790   -0.5508060    2.0551980  
C    -5.8868110   -0.0906460    0.9508540  
O    -6.4739590   -0.0118300    2.0190860  
C    -6.5455160    0.0810070   -0.3383840  
H    -7.1589310    0.2168530   -3.2759350  
H    -7.6111120    0.2880270   -0.3424450  
H    -4.9065530   -0.2273500   -4.6727100  
H    -3.0410660   -0.7075640   -3.0465690  
