62


C    -3.5330540    4.2091650    0.7486800  
C    -2.8800380    3.0196410    0.4195120  
C    -1.5321220    3.3943480    0.0058130  
C    -1.4509110    4.8005470    0.1151250  
N    -2.6850260    5.2559230    0.5703710  
C    -0.3028270    5.5328220   -0.2044430  
C     0.7952600    4.8148740   -0.6500790  
O     1.9465180    5.4603890   -0.9789150  
C     0.7416990    3.3956760   -0.7745400  
O     1.9155700    2.8662670   -1.2336740  
C    -0.4041000    2.6837820   -0.4570240  
H    -2.9165980    6.2234130    0.7408500  
H    -0.2466140    6.6133950   -0.1220240  
H     2.5701480    4.7741580   -1.2811130  
H     1.9157590    1.8920220   -1.3126090  
H    -0.4442820    1.6065970   -0.5691290  
H    -4.5415450    4.3631350    1.1049770  
C    -3.4544140    1.7141890    0.4902170  
C    -4.7379540    1.3018730    0.8027500  
C    -4.7359220   -0.1201200    0.7098040  
C    -3.3261200   -0.4644160    0.3050520  
N    -2.5912250    0.6050180    0.1973310  
C    -2.8726690   -1.8217920    0.0778370  
C    -3.8079190   -2.7880780    0.3110300  
O    -3.5784830   -4.0950220    0.2099210  
C    -5.2408360   -2.4781810    0.7302330  
O    -5.9691410   -3.4642800    0.9002880  
C    -5.6591210   -1.1058160    0.9079430  
H    -5.5864130    1.9232290    1.0544570  
H    -4.4489830   -4.5104240    0.4293640  
H    -6.6875220   -0.9241490    1.2028670  
C     1.0650350   -0.4294790    1.5447680  
C     1.8534580   -0.9839700    0.5578380  
C     0.9561230   -1.7017790   -0.3225010  
C    -0.3503230   -1.5336320    0.1890580  
N    -0.2513450   -0.7865270    1.3523020  
C    -1.5014250   -2.0810860   -0.4191400  
C    -1.2761370   -2.8220880   -1.5826200  
O    -2.3254910   -3.3362610   -2.2791990  
C     0.0371200   -3.0237600   -2.0867020  
O     0.0753140   -3.7923240   -3.2363670  
C     1.1499960   -2.4812360   -1.4772990  
H    -1.0276690   -0.2239090    1.6761330  
H    -1.9555390   -3.7725590   -3.0669000  
H     0.9458030   -3.7059460   -3.6524990  
H     2.1424780   -2.6393990   -1.8921840  
H     1.3430280    0.2358410    2.3509580  
C     5.1480430   -2.1652290    3.1993000  
C     6.2094170   -1.7385470    2.4640870  
C     5.6833390   -1.1439600    1.2537540  
C     4.2086910   -1.2583770    1.3516360  
N     3.9509810   -1.8749230    2.5577210  
C     3.3069340   -0.8424410    0.4108490  
C     3.8741090   -0.1655650   -0.7608000  
O     3.1877590    0.3992340   -1.6067940  
C     5.4394070   -0.1166380   -0.9373860  
O     5.8893860    0.3201070   -1.9858300  
C     6.2766750   -0.5946440    0.1579840  
H     7.2522810   -1.8266050    2.7315810  
H     7.3535870   -0.5253650    0.0413640  
H     5.1358740   -2.6644360    4.1593150  
H     3.0245880   -2.1367990    2.8606470  
