64


C     4.1762990    0.5561690    2.2571890  
C     3.7566770    0.0761900    1.0262010  
C     4.8001320    0.4328870    0.0825370  
C     5.7998200    1.1289610    0.8062180  
N     5.3918330    1.1862790    2.1260120  
C     6.9568290    1.6467930    0.2099610  
C     7.1100060    1.4530840   -1.1528880  
O     8.2203320    1.9228870   -1.7906560  
C     6.1182890    0.7594070   -1.8970470  
O     6.4128340    0.6418680   -3.2429130  
C     4.9769150    0.2575630   -1.3044230  
H     5.9367620    1.5602330    2.8871420  
H     7.7222100    2.1750070    0.7693530  
H     8.1487350    1.6498760   -2.7220440  
H     5.7916840    0.0211550   -3.6526020  
H     4.2515270   -0.2965400   -1.8904950  
H     3.7239990    0.4329310    3.2313980  
C    -0.2323130    0.7961200    2.6714240  
C    -0.9097710   -0.2460410    2.1185190  
C     0.0155920   -0.9652340    1.2668030  
C     1.3142930   -0.2755270    1.4048770  
N     1.1007610    0.7698150    2.2916470  
C     2.4885400   -0.6165080    0.7828160  
C     2.3981820   -1.7808280   -0.1170960  
O     3.3596680   -2.2472040   -0.7085160  
C     0.9999340   -2.4732910   -0.3578930  
O     0.9379230   -3.3097490   -1.2423670  
C    -0.1661770   -2.0443620    0.4371220  
H    -1.9445510   -0.5012480    2.2887260  
H    -0.5958890    1.5793880    3.3235070  
H     1.7633040    1.5220200    2.4134540  
C    -4.0364350   -0.3896980   -0.9189370  
C    -4.7645050   -1.5538880   -0.8909180  
C    -3.8710130   -2.5911850   -0.4560650  
C    -2.6104540   -1.9878220   -0.2152250  
N    -2.7377650   -0.6421000   -0.5071610  
C    -1.4749030   -2.6973690    0.2275340  
C    -1.6512740   -4.0698980    0.4234620  
O    -0.6164000   -4.8208420    0.8899040  
C    -2.9055410   -4.6888620    0.1909470  
O    -2.9100280   -6.0475060    0.4512070  
C    -4.0090640   -3.9755480   -0.2403370  
H    -5.8179200   -1.6451850   -1.1147010  
H    -1.9765260    0.0166680   -0.5665830  
H    -0.9044180   -5.7499490    0.8753670  
H    -3.7483170   -6.4292610    0.1523130  
H    -4.9602520   -4.4775810   -0.4052000  
C    -5.2231870    1.2055600   -2.3918410  
C    -5.4381070    2.5535610   -2.4548140  
C    -4.7373610    3.1490490   -1.3508210  
C    -4.1121270    2.0950010   -0.6372000  
N    -4.4161400    0.9023250   -1.2965770  
C    -3.3610000    2.3153620    0.5245150  
C    -3.2193020    3.6238600    0.9584650  
O    -2.4851940    3.8902020    2.0841280  
C    -3.8257260    4.6924640    0.2508440  
O    -3.5910720    5.9372420    0.8059510  
C    -4.5800120    4.4696860   -0.8873620  
H    -6.0175760    3.0674210   -3.2095500  
H    -2.8952160    1.5159090    1.0871410  
H    -2.5262750    4.8515220    2.2274680  
H    -4.0521770    6.6135250    0.2882010  
H    -5.0442510    5.3032070   -1.4110930  
H    -5.5496160    0.4075570   -3.0425660  
