64


C    -4.7659170   -0.1825350    0.0415710  
C    -5.4150220   -1.4102560    0.0250550  
C    -6.8196110   -1.1597290   -0.0561570  
C    -6.9843500    0.2518310   -0.0860580  
N    -5.7311550    0.8136110   -0.0135680  
C    -8.2417650    0.8632100   -0.1736990  
C    -9.3526330    0.0368650   -0.2328920  
O   -10.6027570    0.5799290   -0.3199440  
C    -9.2071280   -1.3769030   -0.2033120  
O   -10.4077810   -2.0616100   -0.2685710  
C    -7.9666120   -1.9787570   -0.1155520  
H    -4.9383930   -2.3795480   -0.0194780  
H    -5.5005680    1.7875840   -0.1441530  
H    -8.3719820    1.9402440   -0.1970680  
H   -11.2342540   -0.1590780   -0.3527090  
H   -10.2350590   -3.0144600   -0.2595150  
H    -7.8820780   -3.0638390   -0.0951140  
C    -1.4248640   -2.5152060    1.7167710  
C    -0.4070390   -1.6638680    1.3767850  
C    -1.0037880   -0.5404220    0.7111950  
C    -2.4013390   -0.7779640    0.6654340  
N    -2.6262450   -1.9972100    1.2706160  
C    -3.3402980    0.1272100    0.1133180  
C    -2.7925770    1.3289630   -0.3515540  
O    -3.6067870    2.2982390   -0.8873380  
C    -1.4019270    1.5846900   -0.3130100  
O    -1.0512670    2.8067030   -0.8523720  
C    -0.4777800    0.6732270    0.1986430  
H     0.6449230   -1.8121870    1.5726070  
H    -3.5425940   -2.3297980    1.5298320  
H    -3.0236330    3.0093840   -1.2082460  
H    -0.0829380    2.8415540   -0.9396510  
H    -1.3970840   -3.4634500    2.2349180  
C     3.0525690   -1.2507390   -1.8337280  
C     1.7965690   -0.9418020   -1.3939180  
C     1.9174950    0.2021580   -0.5332790  
C     3.2900640    0.5518870   -0.4932170  
N     3.9784080   -0.3536510   -1.2982940  
C     3.7772210    1.6510820    0.2243470  
C     2.8544540    2.4015080    0.9357340  
O     3.2691410    3.4732840    1.6694000  
C     1.4749070    2.0671720    0.9142880  
O     0.6860570    2.8982300    1.6814060  
C     0.9774350    0.9835070    0.1875400  
H     0.8871200   -1.4715070   -1.6379610  
H     4.8268660    1.9210700    0.2503680  
H     2.4881330    3.8219930    2.1338750  
H    -0.1977840    2.4989830    1.7623770  
H     3.3984670   -2.0496170   -2.4741190  
C     5.9714280   -0.1897760   -2.7451400  
C     5.3625010   -0.3699110   -1.5398510  
C     6.4064990   -0.6476090   -0.5613350  
C     7.6831320   -0.6081210   -1.3142060  
N     7.3460440   -0.3420330   -2.6297050  
C     8.9048210   -0.8078030   -0.7590210  
C     8.9772350   -1.0972210    0.6714270  
O    10.0302860   -1.2917700    1.2580710  
C     7.6306680   -1.1644870    1.4830870  
O     7.6713710   -1.4214690    2.6749510  
C     6.3723810   -0.9149430    0.7689780  
H     9.8316940   -0.7691400   -1.3231560  
H     5.4477570   -0.9502090    1.3358630  
H     5.5191220    0.0331520   -3.7021240  
H     8.0064410   -0.2400020   -3.3841800  
