62


C    -2.6443370   -1.2027710   -1.7161700  
C    -3.8711800   -1.7832230   -1.5821010  
C    -3.7378780   -2.8514460   -0.6292120  
C    -2.3821820   -2.8804110   -0.2177900  
N    -1.7156880   -1.8585850   -0.9025510  
C    -1.9105060   -3.7772790    0.7465070  
C    -2.8204570   -4.6731780    1.2894690  
O    -2.4056950   -5.5720870    2.2320710  
C    -4.1768720   -4.6669710    0.8792730  
O    -4.9593260   -5.6186310    1.5077830  
C    -4.6418800   -3.7703580   -0.0664620  
H    -4.7721540   -1.4832580   -2.0994790  
H    -0.8783870   -3.8074270    1.0714540  
H    -3.1821960   -6.1015170    2.4823120  
H    -5.8718540   -5.5432640    1.1921750  
H    -5.6901940   -3.7709410   -0.3588500  
H    -2.3240690   -0.3757140   -2.3303630  
C    -0.0369620    2.0186810   -0.1261120  
C     1.3092340    1.7398080   -0.0545710  
C     1.4055920    0.3262990   -0.2885170  
C    -0.0090770   -0.1123850   -0.4874860  
N    -0.8419830    0.8875500   -0.3882130  
C    -0.3667400   -1.4896280   -0.7662380  
C     0.6723820   -2.3666160   -0.8661490  
O     0.5235240   -3.6662970   -1.1388080  
C     2.1080730   -1.9624670   -0.6213030  
O     2.9263840   -2.8801130   -0.6328480  
C     2.4574750   -0.5461470   -0.3655690  
H     2.1372040    2.4137240    0.1008540  
H     1.4356700   -4.0383320   -1.0870540  
C     4.4344980    1.4360630    3.0711210  
C     5.7147770    1.4091820    2.5844610  
C     5.6593130    0.7995530    1.2857330  
C     4.3002180    0.4768280    1.0351280  
N     3.5788430    0.8714540    2.1419480  
C     3.8654290   -0.1787550   -0.1405540  
C     4.8556350   -0.4737130   -1.0837470  
O     4.5072920   -1.0351950   -2.2732120  
C     6.2151800   -0.1476760   -0.8483730  
O     7.0546170   -0.5007580   -1.8882920  
C     6.6264430    0.4747530    0.3146890  
H     6.5969540    1.7734730    3.0925910  
H     2.5782400    0.7919200    2.2366060  
H     5.3309620   -1.2212310   -2.7570850  
H     7.9737830   -0.3280110   -1.6368110  
H     7.6771350    0.7108210    0.4712290  
H     4.0511750    1.8105940    4.0097440  
C     0.0490220    4.4359950    0.2356630  
C    -0.7769910    5.5006000    0.3288880  
C    -2.1321560    5.0228100    0.1602080  
C    -2.0393010    3.5561790   -0.0434010  
N    -0.6597320    3.2421940    0.0117370  
C    -3.1184760    2.7600390   -0.2331250  
C    -4.4491810    3.3837490   -0.2489870  
O    -5.4680510    2.7368660   -0.4277650  
C    -4.5618090    4.9314800   -0.0320930  
O    -5.6623360    5.4592810   -0.0360660  
C    -3.3193830    5.6801460    0.1677920  
H    -0.4788440    6.5258100    0.4964640  
H    -3.0467690    1.6906640   -0.3769100  
H    -3.3914570    6.7530400    0.3182110  
H     1.1260150    4.4019880    0.3057290  
