60


C     0.6457190    3.8388290   -1.0850440  
C     1.5673210    4.8261760   -1.2158830  
C     2.8145700    4.3390380   -0.6794790  
C     2.5959870    3.0177960   -0.2271960  
N     1.2442500    2.7074680   -0.4949200  
C     3.5926930    2.2773090    0.4175820  
C     4.8422630    2.8699530    0.5614290  
O     5.8360710    2.1802640    1.1809600  
C     5.0844700    4.1821310    0.0834750  
O     6.3678130    4.6252510    0.2986150  
C     4.0826960    4.9210110   -0.5240140  
H     1.3905860    5.7973470   -1.6573900  
H     3.4484710    1.2899980    0.8392230  
H     6.6286640    2.7449280    1.1909630  
H     6.4697260    5.5293640   -0.0348260  
H     4.2737580    5.9363700   -0.8636380  
H    -0.3852810    3.7908720   -1.3993110  
C     0.5696830    1.5370090   -0.2711520  
C    -0.7913680    1.3396770   -0.1266850  
C    -1.0155050   -0.0547380    0.0445110  
C     0.3181220   -0.6890690    0.0078970  
N     1.2400360    0.3302680   -0.1696800  
C     0.5708860   -2.0286850    0.0810060  
C    -0.5904550   -2.8935340    0.3587410  
O    -0.4848610   -4.0900520    0.5525970  
C    -2.0089090   -2.2414720    0.4907100  
O    -2.9208510   -2.9963740    0.8137330  
C    -2.1773840   -0.8036690    0.2305500  
H    -1.5231780    2.1254080   -0.0482960  
H     2.1993860    0.1780380   -0.4453990  
C    -3.5095900   -0.2338370    0.1640360  
C    -3.9451130    0.9621740   -0.3808260  
C    -5.3685110    1.0310210   -0.2296830  
C    -5.7701390   -0.2249840    0.4517770  
N    -4.6093380   -0.9289100    0.6721800  
C    -7.0517910   -0.5467680    0.7646910  
C    -8.1104720    0.3962350    0.4183760  
O    -9.2910340    0.1928830    0.6614330  
C    -7.7065530    1.7366480   -0.3003060  
O    -8.5825140    2.5384700   -0.5939840  
C    -6.2933790    1.9687350   -0.5879020  
H    -3.3427260    1.6875420   -0.9025500  
H    -7.3287480   -1.4715750    1.2609990  
H    -6.0261370    2.8954110   -1.0872870  
H    -4.5199170   -1.8875690    0.9870760  
C     4.5939900   -1.5166580    2.0260500  
C     3.2730680   -1.3676330    1.7473060  
C     3.0074130   -2.3033780    0.6611200  
C     4.3311530   -2.9646180    0.4262080  
N     5.2510010   -2.4936440    1.2217750  
C     4.4993030   -3.9992310   -0.5583070  
C     3.4158190   -4.3594660   -1.2850230  
O     3.4307160   -5.3021580   -2.2377110  
C     2.0814210   -3.6797210   -1.1177650  
O     1.1957510   -3.9777590   -1.9100120  
C     1.9029280   -2.6333590   -0.0595330  
H     2.5560510   -0.7306920    2.2455070  
H     5.4686860   -4.4647810   -0.6964560  
H     2.5238690   -5.3165640   -2.6148840  
H     5.1743780   -0.9921310    2.7757380  
