64


C     0.3375780    4.0812160    1.2561580  
C    -0.3762370    5.2384930    1.3208560  
C    -1.6127810    5.0255170    0.6147530  
C    -1.5980800    3.6953930    0.1303660  
N    -0.3876870    3.1157090    0.5442430  
C    -2.6290650    3.1752330   -0.6612430  
C    -3.7140760    4.0007610   -0.9247840  
O    -4.7459200    3.5337940   -1.6828830  
C    -3.7573120    5.3257480   -0.4214350  
O    -4.8993470    6.0172740   -0.7667180  
C    -2.7197180    5.8451140    0.3327590  
H    -0.0679000    6.1428160    1.8273210  
H    -2.6011140    2.1846580   -1.0984400  
H    -5.3849820    4.2606170   -1.7825350  
H    -4.8456550    6.9257400   -0.4346680  
H    -2.7590080    6.8710920    0.6925830  
H     1.2905100    3.8138420    1.6871480  
C     0.0627940    1.8277140    0.3246730  
C     1.3481190    1.3696140    0.1999340  
C     1.2917580   -0.0591930    0.0671560  
C    -0.1291440   -0.4106380    0.0881260  
N    -0.8407560    0.7756310    0.2131580  
C    -0.6738500   -1.6778240    0.0258370  
C     0.3197570   -2.7525310   -0.0335520  
O     0.0554150   -3.9452920    0.0772300  
C     1.8330750   -2.3940300   -0.2731110  
O     2.5533350   -3.3347820   -0.5956140  
C     2.2962380   -1.0126630   -0.0871240  
H     2.2229620    1.9916720    0.1125170  
H    -1.7619840    0.7926910    0.6338680  
C     3.7146470   -0.7237970   -0.0689040  
C     4.4227540    0.3962860    0.3765880  
C     5.8074030    0.1334520    0.2034940  
C     5.9142670   -1.1740410   -0.3564960  
N     4.6428930   -1.6590390   -0.5114710  
C     7.1473630   -1.7652430   -0.6586420  
C     8.2909820   -1.0302480   -0.3904100  
O     9.5184140   -1.5565160   -0.6630340  
C     8.2039530    0.2772800    0.1703620  
O     9.4344580    0.8734600    0.3751710  
C     6.9902420    0.8610380    0.4669600  
H     3.9997210    1.2750890    0.8373920  
H     4.3558180   -2.5860750   -0.8006250  
H     7.2339300   -2.7592970   -1.0844050  
H    10.1809700   -0.8932100   -0.4031850  
H     9.3064460    1.7516060    0.7630500  
H     6.9489100    1.8611820    0.8943140  
C    -2.0939310   -1.9670210    0.0578470  
C    -3.2076710   -1.1527990   -0.1616020  
C    -4.3694660   -1.9645270   -0.0263440  
C    -3.9217510   -3.2811790    0.2809020  
N    -2.5511580   -3.2483290    0.3304760  
C    -4.8052070   -4.3499370    0.4786880  
C    -6.1607920   -4.0877620    0.3614840  
O    -7.0665910   -5.0907920    0.5419740  
C    -6.6260550   -2.7774410    0.0525470  
O    -8.0030170   -2.6834590   -0.0278790  
C    -5.7562090   -1.7238670   -0.1402880  
H    -3.2010020   -0.1215280   -0.4828380  
H    -1.9077730   -4.0236420    0.4334430  
H    -4.4693420   -5.3548100    0.7117950  
H    -7.9508880   -4.7078060    0.4088130  
H    -8.2500830   -1.7797220   -0.2734180  
H    -6.1340710   -0.7309340   -0.3762860  
