62


C     6.8002490   -3.2108420    0.8217410  
C     6.0462660   -2.0591470    0.8235040  
C     4.8061020   -2.3535250    0.1700280  
C     4.8677220   -3.7177540   -0.2017240  
N     6.0917640   -4.2098620    0.1993240  
C     3.8214910   -4.3951690   -0.8436170  
C     2.6686220   -3.6824600   -1.1111310  
O     1.6158160   -4.2883400   -1.7220650  
C     2.5511740   -2.3084530   -0.7593490  
O     1.3567330   -1.7839180   -1.0991510  
C     3.6176530   -1.5997190   -0.1316530  
H     6.3569620   -1.1313770    1.2758170  
H     6.4076160   -5.1582130    0.0673350  
H     3.8842260   -5.4421870   -1.1231040  
H     0.9222850   -3.6090210   -1.8167040  
H     1.3358570   -0.8273810   -0.7913660  
H     7.7880410   -3.3952090    1.2190330  
C     3.4914250   -0.1989770    0.1556250  
C     4.3912860    0.7368090    0.6261250  
C     3.6974000    1.9789800    0.6969900  
C     2.3007450    1.6680910    0.2389390  
N     2.2018930    0.4154480   -0.0823130  
C     1.2481480    2.6748990    0.1573750  
C     1.6649990    3.9313550    0.4738930  
O     0.8640930    5.0188850    0.4137030  
C     3.0604950    4.2887950    0.9320460  
O     3.2462770    5.4860920    1.1917840  
C     4.0578150    3.2500180    1.0383090  
H     5.4361010    0.5984110    0.8477520  
H     1.4534910    5.7603970    0.7112330  
H     5.0534000    3.5288120    1.3668830  
C    -1.7080080   -0.4253030    1.4886800  
C    -0.6150680    0.3725140    1.3533980  
C    -0.8571410    1.2628000    0.2461170  
C    -2.1373400    0.9461180   -0.2679780  
N    -2.6510260   -0.1154130    0.4983110  
C    -2.7488510    1.6904630   -1.2795850  
C    -2.0375290    2.7637640   -1.7916390  
O    -2.5803080    3.5310630   -2.7740480  
C    -0.7449610    3.0922130   -1.3085430  
O    -0.1651940    4.1677940   -1.9466100  
C    -0.1187430    2.3427990   -0.3066430  
H     0.2763770    0.3195780    1.9599610  
H    -3.7325570    1.4691780   -1.6717430  
H    -1.9194010    4.2236130   -2.9644980  
H     0.1950100    4.7731780   -1.2661120  
H    -1.9023090   -1.2420390    2.1671770  
C    -5.7166600   -1.2658340    3.4641160  
C    -4.5925090   -0.7261620    2.9307720  
C    -4.6775330   -1.0115310    1.5016290  
C    -5.9540520   -1.7543230    1.3575200  
N    -6.5598420   -1.8993250    2.5052170  
C    -6.4387940   -2.2124380    0.0785230  
C    -5.6892700   -1.9454470   -1.0134670  
O    -6.0235460   -2.3047460   -2.2671210  
C    -4.3790120   -1.2200540   -0.9176340  
O    -3.7213810   -1.0969070   -1.9455100  
C    -3.9058540   -0.7194610    0.4187620  
H    -3.8120440   -0.1756560    3.4355510  
H    -7.3797230   -2.7476020    0.0167140  
H    -5.2733320   -2.0231480   -2.8331660  
H    -6.0310740   -1.2547280    4.5008690  
