60


C    -2.4174510    2.8413780    0.0746790  
C    -3.7067130    3.3890790    0.1274110  
C    -4.6253930    2.3299340   -0.0148100  
C    -3.8600090    1.1234050   -0.1542560  
N    -2.5409450    1.4674600   -0.0993910  
C    -4.4560420   -0.1332910   -0.3118810  
C    -5.8394360   -0.1786260   -0.3334350  
O    -6.4724880   -1.3631870   -0.4851090  
C    -6.6239610    1.0169530   -0.1977180  
O    -7.9764390    0.7774160   -0.2429090  
C    -6.0412820    2.2508770   -0.0406990  
H    -3.9339570    4.4385510    0.2547100  
H    -1.7430280    0.8513750   -0.1586570  
H    -3.8829950   -1.0492160   -0.4064940  
H    -7.4320980   -1.1980860   -0.4606300  
H    -8.4668460    1.6049600   -0.1249040  
H    -6.6507480    3.1454880    0.0619590  
C    -1.1357550    3.4394190    0.1698540  
C    -0.7559880    4.7534930    0.3574840  
C     0.6644770    4.7510350    0.3821250  
C     1.0467170    3.3074290    0.1858990  
N    -0.0043090    2.5550390    0.0627550  
C     2.4459310    2.8767350    0.1492550  
C     3.3593150    3.8876300    0.3144390  
O     4.6842670    3.7129570    0.3174070  
C     2.9944500    5.3455230    0.5142620  
O     3.9626690    6.1109450    0.6431980  
C     1.6100500    5.7276050    0.5390770  
H    -1.3993140    5.6143360    0.4714250  
H     5.0397750    4.6336740    0.4576910  
H     1.3712080    6.7760210    0.6829750  
C     2.8115120    1.4871160   -0.0462740  
C     1.9919340    0.3930950   -0.2315900  
C     2.8199490   -0.7620410   -0.3653370  
C     4.2194450   -0.2923650   -0.2483660  
N     4.1465010    1.0704860   -0.0670820  
C     5.3099680   -1.1001360   -0.2996220  
C     5.1015460   -2.5297500   -0.4908900  
O     6.0113170   -3.3434050   -0.5150070  
C     3.6293340   -3.0597130   -0.6798310  
O     3.4531600   -4.2415580   -0.9252620  
C     2.5282380   -2.0894590   -0.5684120  
H     0.9179170    0.4339860   -0.2453210  
H     6.3279760   -0.7378500   -0.1991440  
H     4.9290110    1.6938360    0.0646120  
C     0.3436050   -1.9631570   -1.7471080  
C    -0.8934930   -2.5203130   -1.7040960  
C    -0.8816580   -3.5112490   -0.6495220  
C     0.4861820   -3.4842470   -0.0736440  
N     1.1984810   -2.5151210   -0.7886100  
C     0.8819500   -4.2471220    0.9736040  
C    -0.0856360   -5.1709920    1.5663600  
O     0.1799210   -5.8837780    2.5216310  
C    -1.5304350   -5.2359090    0.9509680  
O    -2.3466050   -6.0076430    1.4307980  
C    -1.8402260   -4.3481610   -0.1708060  
H    -1.7194890   -2.2970610   -2.3646180  
H     1.8836530   -4.2254570    1.3854830  
H    -2.8448680   -4.3853630   -0.5819200  
H     0.7325320   -1.2032730   -2.4115510  
