64


C    -3.8243950   -1.5091380    2.5770430  
C    -3.7858850   -0.9643550    1.3150910  
C    -4.8259090   -1.5881640    0.5386570  
C    -5.4676800   -2.5128410    1.4000800  
N    -4.8317880   -2.4491120    2.6256300  
C    -6.5399130   -3.3113980    0.9810680  
C    -6.9668320   -3.1714370   -0.3295910  
O    -8.0100310   -3.9203900   -0.7886570  
C    -6.3285090   -2.2517190   -1.2066880  
O    -6.8650990   -2.2349650   -2.4792650  
C    -5.2702730   -1.4660790   -0.7929760  
H    -5.0761190   -2.9942680    3.4373030  
H    -7.0387510   -4.0188060    1.6355810  
H    -8.1617820   -3.6650420   -1.7151060  
H    -6.4420740   -1.5359920   -2.9998030  
H    -4.7951190   -0.7675190   -1.4772500  
H    -3.2108110   -1.2933830    3.4395550  
C    -1.4789780   -0.1622140    0.8594200  
C    -0.8560570    0.9694780    0.3807460  
C    -1.9195230    1.9005460    0.0568010  
C    -3.1471600    1.2663110    0.3760610  
N    -2.8549580   -0.0024800    0.8634080  
C    -4.3895360    1.8876100    0.1948380  
C    -4.3937120    3.1669500   -0.3390140  
O    -5.5772170    3.8181430   -0.5379390  
C    -3.1761870    3.8096520   -0.6876580  
O    -3.3443290    5.0737660   -1.2204900  
C    -1.9505770    3.1981980   -0.4989320  
H    -5.3252170    1.4058770    0.4547520  
H    -5.3647670    4.6938630   -0.9042630  
H    -2.4771170    5.4631580   -1.4069320  
H    -1.0314440    3.7077950   -0.7776300  
H    -1.0478150   -1.0889790    1.2094870  
C     2.3701920   -1.5268370   -1.5053320  
C     1.1723980   -1.0426480   -1.0621710  
C     1.4327080    0.2055640   -0.3973380  
C     2.8283670    0.4345840   -0.4784660  
N     3.3947530   -0.6442190   -1.1577470  
C     3.4425610    1.5884600    0.0221520  
C     2.6204270    2.5191460    0.6379700  
O     3.1584590    3.6588760    1.1632470  
C     1.2231320    2.3032190    0.7431350  
O     0.5559640    3.3137350    1.4097740  
C     0.5986570    1.1645490    0.2350210  
H     0.2095270   -1.5150770   -1.1938100  
H     4.5088920    1.7705630   -0.0476250  
H     2.4308880    4.1415750    1.5929550  
H    -0.3682350    3.0433400    1.5443750  
H     2.6125370   -2.4411980   -2.0280550  
C     5.2982200   -0.9106570   -2.7047200  
C     4.7546290   -0.8184470   -1.4592050  
C     5.8354780   -1.0048230   -0.4984650  
C     7.0615040   -1.2110860   -1.3066140  
N     6.6627590   -1.1611600   -2.6298550  
C     8.2980120   -1.4093040   -0.7836120  
C     8.4389180   -1.4423010    0.6697130  
O     9.5095870   -1.6161270    1.2311220  
C     7.1443080   -1.2506720    1.5440330  
O     7.2407270   -1.2948540    2.7595260  
C     5.8656970   -1.0263980    0.8583280  
H     9.1876590   -1.5509730   -1.3897150  
H     4.9787090   -0.8787510    1.4656620  
H     4.8047580   -0.8246000   -3.6633740  
H     7.2819300   -1.2407800   -3.4209570  
