60


C    -6.4711350    3.1142740    1.6155240  
C    -7.6629120    2.6873380    1.0926080  
C    -7.3940040    1.4807530    0.3629150  
C    -6.0035420    1.2216640    0.4850150  
N    -5.4675840    2.2356940    1.2484880  
C    -5.3672860    0.1279520   -0.1477590  
C    -6.1921810   -0.7269990   -0.8862450  
O    -5.6634480   -1.8430350   -1.4581590  
C    -7.5835590   -0.4855900   -1.0021040  
O    -8.2472870   -1.4354160   -1.7556070  
C    -8.1875820    0.6002880   -0.3974810  
H    -8.6206860    3.1755470    1.2079000  
H    -4.4995160    2.3050700    1.5221250  
H    -6.3699970   -2.2625910   -1.9797540  
H    -9.1718010   -1.1708660   -1.8707510  
H    -9.2578290    0.7651040   -0.5050940  
H    -6.2443480    3.9767580    2.2260030  
C    -2.4053370   -0.2927340    3.1774020  
C    -3.5702770   -0.1443640    2.5017760  
C    -3.1995390   -0.1788930    1.0898970  
C    -1.7190440   -0.3681620    1.1112280  
N    -1.2646860   -0.4323740    2.3326500  
C    -0.9296570   -0.4662740   -0.1066590  
C    -1.6296940   -0.3891630   -1.2736760  
O    -1.0624720   -0.5006930   -2.4807270  
C    -3.1173770   -0.1658760   -1.3286460  
O    -3.6082300    0.0001920   -2.4394710  
C    -3.9160190   -0.0998910   -0.0623540  
H    -4.5692420   -0.0436180    2.9012720  
H    -1.7844460   -0.3296740   -3.1260080  
H    -2.2572620   -0.3248120    4.2505240  
C     1.9433920   -3.3173210    1.7708980  
C     0.8272670   -2.6589970    1.3715050  
C     1.2520450   -1.5372200    0.5635940  
C     2.7285520   -1.6042050    0.5123030  
N     3.0827400   -2.7223930    1.2342720  
C     3.5671250   -0.7183380   -0.1313590  
C     2.8891520    0.3957550   -0.8144490  
O     3.4802680    1.2672310   -1.4326410  
C     1.3174780    0.4917360   -0.7725050  
O     0.8053040    1.4758870   -1.2750790  
C     0.5408010   -0.5650740   -0.0919000  
H    -0.1905450   -2.9015700    1.6302060  
H     2.0407370   -4.1934760    2.3978620  
H     4.0324330   -2.9193860    1.5149040  
C     5.7098880   -2.0738630   -0.2035630  
C     5.0115650   -0.8925540   -0.1845640  
C     6.0829920    0.1400220   -0.1627530  
C     7.3458700   -0.6471200   -0.1596930  
N     7.1133790   -1.9337940   -0.1961580  
C     8.6394270   -0.0192750   -0.1273950  
C     8.6866410    1.3336800   -0.0800200  
O     9.8206320    2.0527610   -0.0366280  
C     7.4329500    2.1572770   -0.0667200  
O     7.5507230    3.3805510   -0.0118660  
C     6.1140060    1.4855790   -0.1218860  
H     9.5355150   -0.6299200   -0.1333810  
H     9.5303050    2.9911270   -0.0091040  
H     5.2374690    2.1200010   -0.1580670  
H     5.2983130   -3.0738680   -0.2795790  
