62


C     4.1999350   -0.1294310    0.0961700  
C     3.4445730    1.0441040   -0.0175340  
C     4.3404140    2.1308800   -0.1474820  
C     5.6604190    1.5868360   -0.1061040  
N     5.5427380    0.2327140    0.0391130  
C     6.8070390    2.3855150   -0.2038030  
C     6.6209170    3.7504120   -0.3449360  
O     7.6957620    4.5749940   -0.4444930  
C     5.3070080    4.3135500   -0.3884440  
O     5.3069950    5.6847940   -0.5333690  
C     4.1795190    3.5299520   -0.2919170  
H     2.3691160    1.1081090    0.0263400  
H     6.2832880   -0.4448470    0.1616850  
H     7.8124120    1.9795610   -0.1731550  
H     7.3606750    5.4840830   -0.5381290  
H     4.3955220    6.0113340   -0.5668670  
H     3.1888390    3.9780480   -0.3284700  
C     0.2757890   -2.3612770   -0.1769400  
C     1.2181470   -1.3553020   -0.2397700  
C     2.4726920   -1.9533760    0.1410640  
C     2.1123090   -3.3603560    0.4261470  
N     0.8414340   -3.6007720    0.2452910  
C     3.0839040   -4.3390570    0.8478000  
C     4.3718940   -3.9455500    0.9295320  
O     5.3889020   -4.7580380    1.2748580  
C     4.7885180   -2.5380780    0.6178660  
O     6.0048590   -2.3145820    0.6845840  
C     3.7730920   -1.4978870    0.2640660  
H     1.0690450   -0.3677200   -0.6502030  
H     2.7729240   -5.3558770    1.0593980  
H     6.1953910   -4.2014060    1.2277870  
C    -2.4572600    0.9106970    0.7259630  
C    -3.6319000    0.3741970    0.2094990  
C    -3.2759910   -0.9395460   -0.3020810  
C    -1.8889290   -1.1038860   -0.0900880  
N    -1.4277840    0.0365810    0.5434230  
C    -1.1532820   -2.2616900   -0.4416840  
C    -1.8977690   -3.2865590   -1.0503570  
O    -1.2957180   -4.4210090   -1.4729620  
C    -3.2882920   -3.1254340   -1.2895650  
O    -3.8639600   -4.2138540   -1.9140830  
C    -3.9780030   -1.9830380   -0.9373020  
H    -0.4982960    0.1184050    0.9318220  
H    -1.9901290   -4.9918650   -1.8483530  
H    -4.8216120   -4.0832570   -1.9788550  
H    -5.0446950   -1.9094500   -1.1160840  
H    -2.3135860    1.8425910    1.2527370  
C    -4.7760730    4.6635920   -0.2399000  
C    -4.0557250    3.5142320   -0.2759510  
C    -4.9988170    2.4564870    0.0794050  
C    -6.2741110    3.1787840    0.2847860  
N    -6.1421330    4.4680230    0.1091730  
C    -7.4958540    2.4928440    0.6271360  
C    -7.4493190    1.1471680    0.7349510  
O    -8.5166110    0.3738170    1.0188710  
C    -6.1767210    0.3785690    0.5283440  
O    -6.2493240   -0.8457420    0.6339380  
C    -4.8926220    1.1001240    0.2311070  
H    -3.0190000    3.3893740   -0.5531730  
H    -8.4125030    3.0538310    0.7722530  
H    -8.1709250   -0.5443580    1.0395320  
H    -4.4364880    5.6697370   -0.4558890  
