60


C     0.8510430   -1.8221290    2.4635620  
C     1.4840490   -2.8619180    1.8289660  
C     0.6131720   -3.3065450    0.7774290  
C    -0.5453830   -2.4894560    0.8200980  
N    -0.3709990   -1.5960100    1.8579730  
C    -1.6529150   -2.6672520   -0.0439220  
C    -1.5291690   -3.6958550   -0.9888570  
O    -2.5074880   -3.8788840   -1.9101020  
C    -0.3695950   -4.5123220   -1.0479730  
O    -0.4180180   -5.4631560   -2.0475540  
C     0.6915490   -4.3359950   -0.1828770  
H     2.4429870   -3.2827640    2.0990960  
H    -1.0413270   -0.8956790    2.1344800  
H    -2.2927470   -4.6866500   -2.4093130  
H     0.3434820   -6.0569500   -1.9709740  
H     1.5690370   -4.9760220   -0.2456740  
H     1.1612400   -1.2276880    3.3113160  
C    -2.4379450    1.7379470    0.0116800  
C    -1.8652600    0.4845030   -0.0539110  
C    -2.9095470   -0.4929680    0.0654360  
C    -4.1721210    0.2689090    0.1932930  
N    -3.8202440    1.5989860    0.1730440  
C    -5.4117930   -0.2828030    0.2762630  
C    -5.5179570   -1.7314590    0.2514000  
O    -6.5826280   -2.3315740    0.2604020  
C    -4.1899700   -2.5717180    0.2311350  
O    -4.2638390   -3.7693820    0.4302290  
C    -2.8841140   -1.8700940    0.0459400  
H    -0.8152280    0.2963710   -0.1923080  
H    -6.3232590    0.3040100    0.3320440  
H    -4.4611030    2.3786480    0.1761070  
C     1.8234140    2.8841770   -0.1824160  
C     1.7156640    4.2428550   -0.3072420  
C     0.3056930    4.5241700   -0.2775580  
C    -0.3470790    3.1825650   -0.1347850  
N     0.5444140    2.2390910   -0.0669330  
C    -1.8066410    3.0395940   -0.0762190  
C    -2.5077910    4.2211540   -0.1155390  
O    -3.8508330    4.3002940   -0.0612020  
C    -1.8707630    5.5681550   -0.2421040  
O    -2.6320930    6.5427110   -0.2736950  
C    -0.4180140    5.6689020   -0.3260670  
H     2.5121890    4.9679550   -0.3963660  
H    -4.0439290    5.2688640   -0.1187020  
H     0.0146400    6.6600570   -0.4183620  
C     3.0007820    2.0589370   -0.1554750  
C     4.3226810    2.4078050   -0.3329130  
C     5.1083930    1.2114840   -0.2271260  
C     4.1486720    0.1070990    0.0327480  
N     2.8987280    0.6867250    0.0616680  
C     4.5045000   -1.1924590    0.1940650  
C     5.9187060   -1.5415440    0.1105220  
O     6.3330350   -2.6835270    0.2441580  
C     6.9539190   -0.3895510   -0.1656460  
O     8.1424860   -0.6629990   -0.2392870  
C     6.4486280    0.9759720   -0.3238560  
H     4.6959680    3.4017590   -0.5332330  
H     3.7827970   -1.9795840    0.3832280  
H     7.1713330    1.7633350   -0.5155500  
H     2.0268330    0.2139730    0.2520800  
