60


C     4.2750300    0.2306970    0.1940020  
C     4.1458790   -1.1340230   -0.0797840  
C     5.4544450   -1.6899050   -0.1280770  
C     6.3660700   -0.6231810    0.1217700  
N     5.6266310    0.5170580    0.3051800  
C     7.7538370   -0.8094860    0.1544330  
C     8.2304580   -2.0914600   -0.0645790  
O     9.5698810   -2.3314030   -0.0426280  
C     7.3333000   -3.1719490   -0.3138160  
O     7.9699010   -4.3807710   -0.5119090  
C     5.9669670   -2.9882750   -0.3480210  
H     3.2209090   -1.6918130   -0.1258310  
H     5.9472270    1.4306480    0.6028350  
H     8.4511640   -0.0008400    0.3453060  
H     9.6990230   -3.2817240   -0.2067010  
H     7.3110330   -5.0784760   -0.6432110  
H     5.3022650   -3.8283280   -0.5397660  
C     0.0944020    0.4104300   -1.0719800  
C    -0.2940870    1.5977540   -0.5043660  
C     0.8988150    2.1428850    0.1543590  
C     1.9727310    1.1601290   -0.0661280  
N     1.4132290    0.1248520   -0.7970100  
C     3.2740350    1.2625830    0.3709720  
C     3.6081080    2.5432940    1.0331590  
O     4.7516440    2.8781890    1.3150060  
C     2.4484560    3.5416980    1.3957650  
O     2.7291870    4.5153250    2.0776950  
C     1.1123220    3.2715240    0.8870030  
H     0.3406730    4.0037920    1.0858800  
H    -0.4919850   -0.2580340   -1.6876760  
H     1.9760270   -0.5477260   -1.2999230  
C    -4.3825050   -0.1940950   -0.1129590  
C    -3.0165640   -0.0346070   -0.1213160  
C    -2.7796030    1.3510060   -0.4525070  
C    -4.1462920    1.9118370   -0.6401670  
N    -5.0739770    1.0207390   -0.4452250  
C    -4.3625880    3.2940480   -0.9866200  
C    -3.2744100    4.0873010   -1.0969160  
O    -3.3230500    5.3971200   -1.3908300  
C    -1.8767660    3.5610910   -0.9015440  
O    -0.9578770    4.3650620   -1.0570580  
C    -1.6542970    2.1240120   -0.5737860  
H    -2.2744590   -0.7604420    0.1779620  
H    -5.3707130    3.6682970   -1.1240530  
H    -2.3870830    5.6945080   -1.4155750  
C    -3.7185690   -4.5090800   -0.9749290  
C    -3.5983220   -3.1556390   -0.8896950  
C    -4.7494290   -2.6592840   -0.1724050  
C    -5.5713360   -3.8483170    0.1434650  
N    -4.8759280   -4.9391490   -0.3458890  
C    -6.7833430   -3.8259630    0.7580110  
C    -7.3291500   -2.5335330    1.1441110  
O    -8.4404400   -2.3937940    1.6309860  
C    -6.4288050   -1.2623060    0.9449030  
O    -6.7737510   -0.2311180    1.4871490  
C    -5.1528920   -1.3874700    0.1782210  
H    -2.7991080   -2.5615040   -1.3030290  
H    -7.3764600   -4.7163800    0.9429370  
H    -3.0599180   -5.2281970   -1.4436840  
H    -5.2176180   -5.8874520   -0.3356220  
