62


C     3.9941510   -0.6873470   -1.8311270  
C     4.2491380   -2.0307290   -1.8579360  
C     4.9978920   -2.3460900   -0.6728400  
C     5.1755400   -1.1357150    0.0433720  
N     4.5457060   -0.1224570   -0.6783940  
C     5.8446220   -1.0770210    1.2711760  
C     6.3554960   -2.2617450    1.7770280  
O     7.0227050   -2.2603970    2.9672340  
C     6.1933350   -3.4832560    1.0701560  
O     6.7550580   -4.5756550    1.7048160  
C     5.5247960   -3.5382660   -0.1381910  
H     3.9670880   -2.7145950   -2.6476750  
H     5.9997370   -0.1517450    1.8128410  
H     7.3333930   -3.1685680    3.1242210  
H     6.7045300   -5.3479070    1.1225810  
H     5.4068150   -4.4858860   -0.6604300  
H     3.5069810   -0.0479630   -2.5537950  
C     0.9818150    2.2214320   -0.0328430  
C     1.5792160    3.4409770    0.1782760  
C     3.0036030    3.2732690    0.0916790  
C     3.2182690    1.8393390   -0.1971720  
N     1.9684460    1.2613380   -0.3184250  
C     4.4351370    1.2408820   -0.3252400  
C     5.6329770    2.0900320   -0.1826670  
O     6.7661450    1.6608190   -0.3061140  
C     5.4181870    3.6214120    0.1264830  
O     6.4118250    4.3180590    0.2770420  
C     4.0576340    4.1299330    0.2292060  
H     1.0620590    4.3775570    0.3308450  
H     3.9289170    5.1874180    0.4372040  
H     1.8278770    0.2708990   -0.1749190  
C    -1.4143410    2.5260250    0.6477330  
C    -0.4084700    1.8403890   -0.0136180  
C    -1.0390030    0.6908710   -0.6337350  
C    -2.4137280    0.7537580   -0.3162350  
N    -2.6051620    1.8830960    0.4577110  
C    -3.3642500   -0.2194510   -0.7117570  
C    -2.8609820   -1.2876050   -1.4735040  
O    -3.6877510   -2.2429800   -1.9496350  
C    -1.4834230   -1.3460790   -1.8215030  
O    -1.1654390   -2.4369680   -2.5997950  
C    -0.5783860   -0.3803270   -1.4274500  
H    -3.4791210    2.1117950    0.9098200  
H    -3.1413930   -2.8859090   -2.4368220  
H    -0.2093600   -2.4691780   -2.7538770  
H     0.4579610   -0.4494620   -1.7475110  
H    -1.3512930    3.4141580    1.2596220  
C    -4.7668020   -0.1061420   -0.3352830  
C    -5.5171430    1.0380000   -0.2195580  
C    -6.8241790    0.6090950    0.2223650  
C    -6.6905990   -0.8790570    0.3559760  
N    -5.5022130   -1.2907100    0.0265560  
C    -7.7891690   -1.6964580    0.8037100  
C    -8.9610850   -1.0771240    1.0777470  
O   -10.0686050   -1.7054670    1.4941230  
C    -9.1305750    0.4199290    0.9343380  
O   -10.2360050    0.8868580    1.2095940  
C    -7.9940470    1.2343060    0.4919210  
H    -5.2408400    2.0428670   -0.5098030  
H    -7.6641580   -2.7690060    0.9009700  
H   -10.7417050   -0.9962030    1.6043070  
H    -8.1521340    2.3052780    0.4091320  
