60


C     2.7023270   -0.0111650   -0.3779210  
C     2.7801590   -0.9018000   -1.4200170  
C     3.7541300   -1.8876220   -1.0490560  
C     4.2433590   -1.5335910    0.2359320  
N     3.5915550   -0.3757040    0.6223280  
C     5.2199570   -2.2780900    0.9064280  
C     5.7127910   -3.4058760    0.2677620  
O     6.6607650   -4.1717300    0.8789590  
C     5.2409500   -3.7729860   -1.0214650  
O     5.8322510   -4.9155430   -1.5242350  
C     4.2778680   -3.0330900   -1.6815660  
H     2.2321780   -0.8333880   -2.3492190  
H     3.6234280    0.0417390    1.5400230  
H     5.5972430   -2.0092320    1.8875710  
H     6.8805310   -4.8994340    0.2719460  
H     5.4881550   -5.0963570   -2.4113590  
H     3.9333410   -3.3331470   -2.6690990  
C     0.5002170    1.0860060   -0.5008290  
C    -0.0811990    2.3124240   -0.3062990  
C     0.9821430    3.1918310    0.1903760  
C     2.2229570    2.3767940    0.2061060  
N     1.8608830    1.0973540   -0.2171210  
C     3.4487540    2.8312250    0.5705430  
C     3.5695690    4.2097500    1.0359990  
O     4.6318680    4.7058700    1.3795770  
C     2.2613910    5.0686810    1.1088760  
O     2.3243710    6.2099990    1.5390410  
C     1.0031470    4.4706890    0.6488190  
H     4.3447150    2.2215360    0.5340170  
H     0.1239540    5.0999930    0.6649400  
H     0.0294360    0.1584090   -0.7877090  
C    -3.4730570   -0.4434320   -0.0485120  
C    -4.5319240    0.4030190   -0.2455620  
C    -3.9559990    1.7088370   -0.4686490  
C    -2.4804750    1.4966820   -0.3457460  
N    -2.2099710    0.2537620   -0.1007050  
C    -1.5070860    2.5837860   -0.4914740  
C    -2.0485780    3.7930650   -0.8349360  
O    -1.3222250    4.8926790   -1.1095300  
C    -3.5224780    4.0302670   -0.9652440  
O    -3.8852660    5.1700800   -1.2706290  
C    -4.4659740    2.9261360   -0.7528390  
H    -5.5778790    0.1429400   -0.2365980  
H    -1.9899040    5.5887080   -1.3123300  
H    -5.5247360    3.1433110   -0.8538280  
C    -6.8330870   -3.1491030    0.7548420  
C    -6.2134010   -4.3382100    0.9192760  
C    -4.7973460   -4.0566700    0.7244670  
C    -4.7423330   -2.5828960    0.4434390  
N    -5.9364270   -2.0695920    0.4642130  
C    -3.4821940   -1.8738180    0.1938320  
C    -2.3536560   -2.6663110    0.2052700  
O    -1.1084370   -2.2513600   -0.0373600  
C    -2.4030930   -4.1501840    0.4823940  
O    -1.3328040   -4.7578490    0.4654460  
C    -3.6855530   -4.8129040    0.7504150  
H    -6.6516660   -5.3001850    1.1449740  
H    -0.5506070   -3.0609640    0.0524510  
H    -3.6662430   -5.8802370    0.9480140  
H    -7.8921280   -2.9302540    0.8170730  
