60


C     5.7450080    0.0949460   -2.2275740  
C     6.9952030   -0.3764960   -2.5114120  
C     7.6378930   -0.6657630   -1.2594240  
C     6.7212800   -0.3371840   -0.2302440  
N     5.5540170    0.1303790   -0.8403380  
C     7.0102440   -0.5333340    1.1247890  
C     8.2562240   -1.0500100    1.4439650  
O     8.5907730   -1.2518440    2.7500100  
C     9.1923720   -1.3735330    0.4255130  
O    10.3852560   -1.8788570    0.9037320  
C     8.8979990   -1.1901590   -0.9122450  
H     7.4223270   -0.4816350   -3.4997000  
H     6.3226730   -0.2725430    1.9197150  
H     9.5052060   -1.5829100    2.7673020  
H    11.0038320   -2.0013940    0.1685640  
H     9.6241240   -1.4529750   -1.6789240  
H     4.9770990    0.4842890   -2.8814350  
C     1.5690510   -1.3479750   -1.5458440  
C     0.8574090   -0.5364060   -0.7038340  
C     1.8368640    0.3189130   -0.0338390  
C     3.1565450   -0.0675770   -0.5755300  
N     2.9248920   -1.0812190   -1.4836740  
C     4.3479890    0.4946470   -0.2141790  
C     4.3124370    1.5681180    0.7983810  
O     5.3026200    2.1817550    1.1517070  
C     2.9200710    1.9295020    1.4415580  
O     2.8980220    2.7534810    2.3410820  
C     1.7199680    1.2608760    0.9414860  
H     0.7700310    1.5335610    1.3883500  
H     1.1956640   -2.1098440   -2.2172250  
H     3.6484690   -1.5395200   -2.0177360  
C    -1.3825420   -1.6719580   -0.3669860  
C    -0.5850190   -0.5787220   -0.5034690  
C    -1.5301600    0.5527210   -0.4953730  
C    -2.8784120   -0.0767920   -0.3290930  
N    -2.7669500   -1.3733720   -0.2637840  
C    -4.1158050    0.7066790   -0.2657390  
C    -3.9515990    2.0710500   -0.4123390  
O    -4.9259810    2.9761890   -0.3900800  
C    -2.5993830    2.7065800   -0.6227950  
O    -2.5653690    3.9292660   -0.7546040  
C    -1.3849240    1.8781310   -0.6585320  
H    -4.4723810    3.8418350   -0.5249290  
H    -0.4368380    2.3851700   -0.8056310  
H    -1.0716290   -2.7089180   -0.3166970  
C    -5.3993470    0.0569700   -0.0717440  
C    -5.6582420   -1.2789220    0.1071300  
C    -7.0904910   -1.3853520    0.2551350  
C    -7.5809720    0.0246090    0.1370410  
N    -6.6053790    0.8576720   -0.0520240  
C    -8.9840240    0.3457700    0.2313070  
C    -9.8488960   -0.6752890    0.4319820  
O   -11.1784540   -0.5313750    0.5402860  
C    -9.3828860   -2.1080450    0.5551890  
O   -10.2479030   -2.9659420    0.7360330  
C    -7.9502940   -2.4114540    0.4556540  
H    -4.9371100   -2.0792860    0.1272830  
H    -9.3137370    1.3748880    0.1427040  
H   -11.5236400   -1.4419910    0.6795180  
H    -7.6532310   -3.4515930    0.5486340  
