60


C     3.5528210    4.2864090    1.4177480  
C     2.9903660    5.4792500    1.0441480  
C     1.8065490    5.1654540    0.2971310  
C     1.7116990    3.7533050    0.2379750  
N     2.7920000    3.2436000    0.9237270  
C     0.6310980    3.0671570   -0.3797580  
C    -0.3744070    3.8795630   -0.9383490  
O    -1.4274030    3.3287170   -1.5899990  
C    -0.2749980    5.2946000   -0.8938790  
O    -1.3313830    5.9369550   -1.5124020  
C     0.7901650    5.9401280   -0.2965810  
H     3.3683500    6.4647880    1.2785140  
H     2.9203100    2.2640930    1.1427640  
H    -1.9794890    4.0641140   -1.9118000  
H    -1.2058970    6.8958750   -1.4631340  
H     0.8341650    7.0273960   -0.2796720  
H     4.4457760    4.0860020    1.9926740  
C     0.5921600    1.6197690   -0.3948830  
C     1.6596480    0.7582130   -0.4262030  
C     1.1219670   -0.5522570   -0.2327120  
C    -0.3637600   -0.3356300   -0.1368210  
N    -0.6577520    0.9235800   -0.2499000  
C    -1.3146330   -1.4306430    0.0561450  
C    -0.7317040   -2.6747330    0.1822450  
O    -1.3826440   -3.8144380    0.3743500  
C     0.7714200   -2.9009310    0.1282520  
O     1.1424020   -4.0579650    0.3356960  
C     1.6926930   -1.7865190   -0.1324690  
H     2.6996540    0.9990200   -0.5777870  
H    -0.6679460   -4.4948730    0.4470750  
C     5.1793540   -0.1713220    2.0937240  
C     6.1887340   -0.9316130    1.6155790  
C     5.5711460   -1.7958630    0.6165860  
C     4.1195670   -1.4047550    0.6333980  
N     3.9077540   -0.4459590    1.4901490  
C     3.1389430   -2.0697800   -0.2155130  
C     3.6304740   -3.0168510   -1.0682380  
O     2.8756560   -3.6723790   -1.9551630  
C     5.0849080   -3.4051190   -1.1163450  
O     5.4138210   -4.2701500   -1.9248480  
C     6.0417520   -2.7462360   -0.2122120  
H     7.2316670   -0.9211410    1.8996410  
H     3.4834370   -4.2958380   -2.4125340  
H     7.0800040   -3.0585650   -0.2681090  
H     5.2264950    0.5927160    2.8607870  
C    -2.7413240   -1.1800590    0.1042760  
C    -3.4031700    0.0050780   -0.1032240  
C    -4.8042900   -0.2963990    0.0534040  
C    -4.8373680   -1.7609350    0.3711950  
N    -3.6472090   -2.2731330    0.4005660  
C    -6.0813620   -2.4539000    0.6062130  
C    -7.2237980   -1.7343480    0.5261160  
O    -8.4538940   -2.2378570    0.7172820  
C    -7.2212860   -0.2562850    0.2051370  
O    -8.3182210    0.3053840    0.1564050  
C    -5.9475710    0.4272210   -0.0268840  
H    -2.9587790    0.9592480   -0.3374530  
H    -6.0787030   -3.5137010    0.8356480  
H    -9.0598060   -1.4724240    0.5916180  
H    -5.9842420    1.4887320   -0.2517890  
