64


C    -3.7482160    0.0087020   -1.5248860  
C    -3.1071620   -0.9554780   -0.7663750  
C    -4.1553430   -1.7107050   -0.1092670  
C    -5.3920830   -1.1508490   -0.5154240  
N    -5.1101040   -0.1112340   -1.3812070  
C    -6.6300620   -1.6161980   -0.0544290  
C    -6.6190990   -2.6721520    0.8416630  
O    -7.7934630   -3.1714800    1.3225280  
C    -5.3892110   -3.2428180    1.2668770  
O    -5.5417030   -4.2855610    2.1614810  
C    -4.1712810   -2.7778570    0.8109660  
H    -5.7960510    0.4571860   -1.8529880  
H    -7.5754540   -1.1853810   -0.3678260  
H    -7.5698870   -3.9042250    1.9222110  
H    -4.6725420   -4.6561090    2.3745070  
H    -3.2466360   -3.2451720    1.1347230  
H    -3.3311780    0.7439670   -2.1981350  
C    -0.0208830    2.1163820   -0.1543700  
C     1.0735660    1.2751080   -0.1605700  
C     0.6075960   -0.0587590   -0.3883290  
C    -0.7996550    0.0113100   -0.5100140  
N    -1.1589560    1.3475780   -0.4247590  
C    -1.6495080   -1.1051260   -0.6552020  
C    -0.9947250   -2.3438440   -0.6917180  
O    -1.7167590   -3.4893610   -0.8696970  
C     0.4105020   -2.4500960   -0.5887990  
O     0.8631060   -3.7470430   -0.6970170  
C     1.2489270   -1.3303650   -0.4440270  
H     2.0967600    1.5956580   -0.0399770  
H    -2.0937660    1.6322870   -0.1589420  
H    -1.0728650   -4.2137380   -0.9676560  
H     1.8340900   -3.7455670   -0.8030830  
C     2.6904920   -1.4674160   -0.3801610  
C     3.6865220   -0.6374210   -0.8221650  
C     4.9602340   -1.2414320   -0.5396000  
C     4.6615630   -2.5245010    0.1316310  
N     3.2643130   -2.6704880    0.1388240  
C     5.5965840   -3.3650440    0.6264480  
C     7.0096280   -3.0090170    0.4576750  
O     7.9173420   -3.7117630    0.8717810  
C     7.3519780   -1.6777190   -0.3033290  
O     8.5272380   -1.3793200   -0.4635260  
C     6.2452940   -0.8486330   -0.7704460  
H     3.5346340    0.2866070   -1.3606880  
H     5.3608110   -4.3005590    1.1251350  
H     6.4904030    0.0817510   -1.2735500  
H     2.8356640   -3.0802330    0.9636530  
C     2.2118290    4.9800010    2.4867930  
C     1.7519110    3.8484470    1.8644240  
C     0.7413000    4.2590650    0.9305740  
C     0.6271190    5.6706690    1.0418440  
N     1.5387270    6.0807930    1.9925480  
C    -0.2848210    6.4262100    0.2964700  
C    -1.1025970    5.7399920   -0.5876200  
O    -1.9979240    6.4250170   -1.3574080  
C    -1.0140150    4.3327400   -0.7155260  
O    -1.8902870    3.8009070   -1.6513420  
C    -0.1072830    3.5665410    0.0241640  
H     2.0820860    2.8397780    2.0635130  
H     1.6831170    7.0340730    2.2857970  
H    -0.3656060    7.5052480    0.3782120  
H    -2.4170370    5.7743140   -1.9473960  
H    -1.5584470    2.9278070   -1.9226600  
H     2.9690290    5.0961800    3.2492620  
