60


C    -5.4310750    2.1044050   -0.2309750  
C    -5.2049600    0.7385600   -0.1165760  
C    -6.4375690    0.1578800    0.3845340  
C    -7.3567180    1.2228580    0.5374870  
N    -6.7073050    2.3879520    0.1538590  
C    -8.6576090    1.0483790    1.0189530  
C    -9.0420650   -0.2381880    1.3639520  
O   -10.2954820   -0.4655440    1.8362010  
C    -8.1282450   -1.3204100    1.2417970  
O    -8.6493220   -2.5284640    1.6445590  
C    -6.8420880   -1.1382540    0.7639680  
H    -7.1264390    3.3059370    0.1344700  
H    -9.3579220    1.8683220    1.1381750  
H   -10.3659970   -1.4132410    2.0459940  
H    -7.9663830   -3.2152180    1.6165790  
H    -6.1571640   -1.9815520    0.7237390  
H    -4.7725470    2.8780770   -0.5984280  
C    -3.9779590    0.0836430   -0.4713030  
C    -2.6884640    0.5888640   -0.5493680  
C    -1.8154570   -0.4484850   -0.9778170  
C    -2.6675010   -1.6450040   -1.1496520  
N    -3.9557020   -1.2682260   -0.7982150  
C    -2.2354090   -2.8663590   -1.5438070  
C    -0.8067340   -3.0431610   -1.7854270  
O    -0.3162580   -4.1229520   -2.0704710  
C     0.1287630   -1.7879480   -1.6772620  
O     1.2743500   -1.9156630   -2.0708010  
C    -0.4374970   -0.5063760   -1.1830410  
H    -2.4001470    1.5818550   -0.2432560  
H    -2.8871310   -3.7291460   -1.6443600  
H    -4.7792260   -1.7828310   -1.0738500  
C     0.4299040    0.6272690   -0.9834140  
C     0.1605340    1.9741550   -1.0777000  
C     1.3794390    2.6539850   -0.7465630  
C     2.3489060    1.5501580   -0.4464010  
N     1.7980650    0.3880360   -0.5812800  
C     3.7329900    1.8212460   -0.0401760  
C     4.0562840    3.1501500    0.0525730  
O     5.2694410    3.6132930    0.4108040  
C     3.0995430    4.2687130   -0.2504960  
O     3.5439960    5.4173360   -0.1237070  
C     1.7391280    3.9599870   -0.6580040  
H    -0.7516010    2.4436080   -1.4147670  
H     5.1720140    4.5978020    0.3737320  
H     1.0716320    4.7924760   -0.8569540  
C     4.6660190    0.7395350    0.2191050  
C     4.5022790   -0.6155160    0.0434800  
C     5.7274640   -1.2590830    0.4323300  
C     6.6521600   -0.1787740    0.8606740  
N     5.9554550    0.9953770    0.7160730  
C     7.9224840   -0.3857150    1.2981090  
C     8.4215590   -1.7529330    1.3607440  
O     9.5480760   -2.0387140    1.7424200  
C     7.4573390   -2.9153260    0.9158820  
O     7.8599280   -4.0687120    0.9667310  
C     6.1115710   -2.5666220    0.4587520  
H     3.6094320   -1.0896160   -0.3322920  
H     8.5848230    0.4177790    1.6056540  
H     5.4552030   -3.3746310    0.1501170  
H     6.3179420    1.9239500    0.8703600  
