62


C    -2.6307190   -1.2238640    0.0773200  
C    -3.3594280   -0.0682590    0.3474930  
C    -4.7377520   -0.4149900    0.3428520  
C    -4.8165760   -1.8100060    0.0660320  
N    -3.5346540   -2.2701140   -0.0904490  
C    -6.0359090   -2.4954330   -0.0115790  
C    -7.1932080   -1.7621540    0.1941020  
O    -8.4080130   -2.3760550    0.1313560  
C    -7.1339980   -0.3650980    0.4721450  
O    -8.3760330    0.2145830    0.6507760  
C    -5.9339390    0.3091180    0.5479500  
H    -2.9415630    0.9049250    0.5457550  
H    -3.2508390   -3.2267260   -0.2421110  
H    -6.1029830   -3.5574870   -0.2229120  
H    -9.0837850   -1.6959960    0.2974760  
H    -8.2685480    1.1620810    0.8206440  
H    -5.9109450    1.3760790    0.7604600  
C     0.7161590    1.6548050   -0.1468630  
C     1.7813560    0.7863010   -0.0780480  
C     1.2353040   -0.5338780   -0.0175600  
C    -0.2474260   -0.3373240   -0.0444450  
N    -0.5299920    0.9282770   -0.1410600  
C    -1.2000080   -1.4447060   -0.0018810  
C    -0.6143160   -2.6846910   -0.0482550  
O    -1.3204030   -3.8378740   -0.0377930  
C     0.8556450   -2.9242170   -0.0258500  
O     1.2161110   -4.1033310    0.0660200  
C     1.7953030   -1.7849170   -0.0382940  
H     2.8289160    1.0263770   -0.1439030  
H    -0.6276320   -4.5427490   -0.0206240  
C     5.2321710   -0.5065890    2.5068260  
C     3.9960770   -0.6756180    1.9671750  
C     4.1402870   -1.5450860    0.8189160  
C     5.5824000   -1.8804270    0.7396690  
N     6.1897260   -1.2032350    1.7803850  
C     6.1431540   -2.7170260   -0.1720750  
C     5.2735310   -3.3346800   -1.1618270  
O     5.6662250   -4.1371250   -1.9947810  
C     3.7557290   -2.9337500   -1.1622870  
O     3.0619420   -3.2920650   -2.0959600  
C     3.2328260   -2.0697160   -0.0675050  
H     3.0775930   -0.2376670    2.3259430  
H     7.1997280   -2.9664550   -0.1839380  
H     5.5276950    0.0691910    3.3739730  
H     7.1639440   -1.2842410    2.0255700  
C     3.7856950    4.9138320    0.4556230  
C     3.1524370    3.6940800    0.3999530  
C     1.8008830    3.9296050   -0.0164010  
C     1.6733920    5.3293470   -0.1881660  
N     2.8968460    5.9002540    0.0958950  
C     0.4754830    5.9571540   -0.5562490  
C    -0.6326470    5.1520800   -0.7443170  
O    -1.8276670    5.7023430   -1.0952200  
C    -0.5561770    3.7419040   -0.5822890  
O    -1.7338030    3.1136880   -0.8211970  
C     0.6568990    3.0918510   -0.2392930  
H     3.6083790    2.7531080    0.6648950  
H     3.0997130    6.8869230    0.0579790  
H     0.3904670    7.0311840   -0.6881550  
H    -2.4535970    4.9607680   -1.1890950  
H    -1.5963580    2.1374930   -0.6424200  
H     4.8036740    5.1577260    0.7241990  
