62


C    -2.0312120   -1.6760470    2.4012790  
C    -2.3305560   -1.0919400    1.1931560  
C    -3.0549940   -2.0578960    0.4075060  
C    -3.1670440   -3.2198880    1.2127810  
N    -2.5374460   -2.9568260    2.4139910  
C    -3.8111860   -4.3826630    0.7709460  
C    -4.3466770   -4.3716360   -0.5067610  
O    -4.9892610   -5.4761050   -0.9861360  
C    -4.2341880   -3.2178380   -1.3288930  
O    -4.8095250   -3.3651910   -2.5768550  
C    -3.5982240   -2.0714820   -0.8928670  
H    -2.4078210   -3.6208050    3.1610440  
H    -3.9015420   -5.2736030    1.3838630  
H    -5.2957690   -5.2613830   -1.8840770  
H    -4.7626970   -2.5235140   -3.0541570  
H    -3.5212550   -1.2007530   -1.5387860  
H    -1.4934520   -1.2719560    3.2461370  
C    -0.6278950    0.6499730    0.8337960  
C    -0.5500120    1.9689870    0.3941550  
C    -1.9108980    2.3455720    0.0363990  
C    -2.7340540    1.2231020    0.3038240  
N    -1.9194280    0.1988820    0.7930140  
C    -4.1158820    1.2131130    0.0917230  
C    -4.6888010    2.3567730   -0.4456650  
O    -6.0337200    2.4036320   -0.6799310  
C    -3.8821150    3.4769570   -0.7570770  
O    -4.5815370    4.5408810   -1.3004300  
C    -2.5174760    3.4846780   -0.5286280  
H    -4.7348760    0.3561830    0.3301250  
H    -6.2306480    3.2935460   -1.0201340  
H    -3.9881380    5.3023360   -1.3799640  
H    -1.9320470    4.3680240   -0.7544950  
H     0.1650140   -0.0093550    1.1488690  
C     3.5513730    0.4788230    0.0871630  
C     4.2691910    1.6470980    0.0358950  
C     3.2939450    2.7107110    0.1363440  
C     1.9777530    2.0062730    0.2158030  
N     2.1389400    0.7185310    0.1676290  
C     0.6957570    2.7219580    0.3253920  
C     0.8178960    4.0890190    0.3923700  
O    -0.2282860    4.9321260    0.5760040  
C     2.1091690    4.8088580    0.3126370  
O     2.0921030    6.0468040    0.3920700  
C     3.3646610    4.0568770    0.1675960  
H     5.3441690    1.7703810    0.0518580  
H     0.1910000    5.8231200    0.6032930  
H     4.2851090    4.6296510    0.1038780  
C     6.8952510   -1.3096090   -2.0956110  
C     6.7729400   -2.5997300   -1.6925850  
C     5.6491780   -2.6600110   -0.7808280  
C     5.1287650   -1.2795770   -0.6769240  
N     5.9439580   -0.5048550   -1.4718770  
C     4.0259010   -0.8925290    0.0477250  
C     3.3507670   -1.9587080    0.8270730  
O     2.4396830   -1.7507360    1.6076300  
C     3.8767020   -3.4375400    0.6976830  
O     3.2740580   -4.3216200    1.2856840  
C     5.0641410   -3.6924470   -0.1145040  
H     7.3930970   -3.4307030   -1.9954060  
H     5.4237300   -4.7147130   -0.1808200  
H     7.6043240   -0.8663850   -2.7821200  
H     5.7184370    0.4461110   -1.7280940  
