60


C    -4.1130160    0.9973080   -1.7861830  
C    -5.4384410    1.2987700   -1.6947910  
C    -5.9853060    0.5170150   -0.6175260  
C    -4.9339340   -0.2714630   -0.0922380  
N    -3.7744240    0.0338650   -0.8237180  
C    -5.1098180   -1.1100100    1.0127670  
C    -6.3771820   -1.1770110    1.5726730  
O    -6.5975760   -1.9894800    2.6436070  
C    -7.4465510   -0.4079230    1.0445680  
O    -8.6420710   -0.5822730    1.7086650  
C    -7.2630160    0.4362350   -0.0361950  
H    -5.9768230    1.9832200   -2.3364880  
H    -4.3187620   -1.7225800    1.4255190  
H    -7.5396390   -1.9189500    2.8753270  
H    -9.3383730   -0.0720960    1.2690690  
H    -8.0888520    1.0327600   -0.4181270  
H    -3.3669440    1.3238800   -2.4950540  
C     0.1054310    2.0443420   -0.6089760  
C    -1.2299470    1.7697480   -0.6792470  
C    -1.3721740    0.3377680   -0.6182780  
C    -0.0178890   -0.2145400   -0.4876330  
N     0.8412570    0.8641630   -0.4514660  
C     0.3227220   -1.5522410   -0.4216850  
C    -0.7998340   -2.4878410   -0.5636400  
O    -0.6752620   -3.7037090   -0.6376010  
C    -2.2720820   -1.9348580   -0.6252410  
O    -3.1748210   -2.7442240   -0.7156170  
C    -2.4854700   -0.4722270   -0.6401660  
H    -2.0328000    2.4900630   -0.7024580  
H     1.8212290    0.7749630   -0.6923240  
C     0.2759540    4.3478850   -1.4575130  
C     1.0978360    5.4149810   -1.3642650  
C     2.1897010    5.0582380   -0.4796070  
C     1.9331040    3.6658890   -0.0407750  
N     0.7544810    3.2630730   -0.6921190  
C     2.7006350    2.9998070    0.8554300  
C     3.8947280    3.6697310    1.3855420  
O     4.6393160    3.1352650    2.1887270  
C     4.2089680    5.1254590    0.8951340  
O     5.2052380    5.6920720    1.3090630  
C     3.2687650    5.7538290   -0.0419640  
H     0.9725190    6.3615570   -1.8700060  
H     2.4729320    2.0102350    1.2339970  
H     3.4686400    6.7766290   -0.3461900  
H    -0.6283870    4.2150300   -2.0343170  
C     1.6845900   -2.0303750   -0.2631650  
C     2.8224470   -1.3765670    0.1758530  
C     3.9105730   -2.3167350    0.1579630  
C     3.3382370   -3.5954000   -0.3299240  
N     2.0056960   -3.3497250   -0.5787520  
C     4.0467070   -4.7435210   -0.4791800  
C     5.4681080   -4.7301020   -0.1457880  
O     6.1864630   -5.7129260   -0.2510950  
C     6.0971600   -3.3831460    0.3697190  
O     7.2867690   -3.3549370    0.6485080  
C     5.2275940   -2.2129280    0.4927690  
H     2.8854560   -0.3802380    0.5860750  
H     3.6096900   -5.6711600   -0.8352320  
H     5.6713260   -1.2905480    0.8557220  
H     1.2836760   -4.0314070   -0.7778280  
