62


C     3.4691620    0.5569350    1.9364510  
C     4.1302590    0.1596250    0.7834000  
C     5.0746650    1.2232650    0.4806870  
C     4.9104550    2.2209900    1.4734820  
N     3.9298100    1.7808450    2.3459900  
C     5.6367510    3.4176480    1.4896970  
C     6.5581160    3.6154290    0.4740550  
O     7.3055050    4.7559240    0.4394840  
C     6.7352040    2.6320290   -0.5342810  
O     7.6883620    2.9668170   -1.4787170  
C     6.0110520    1.4559010   -0.5459220  
H     3.6498170    2.2525380    3.1920350  
H     5.5081150    4.1741800    2.2570670  
H     7.9081900    4.6764320   -0.3204990  
H     7.8819980    2.1905380   -2.0253570  
H     6.1917200    0.7089720   -1.3110670  
H     2.7342050    0.0213580    2.5197420  
C     0.3189060   -1.9864070   -0.0543270  
C     1.2781980   -1.0700870    0.2728740  
C     2.5766050   -1.6035490   -0.0579650  
C     2.3231930   -2.9298740   -0.6465140  
N     0.9481020   -3.1749490   -0.5352520  
C     3.2602670   -3.7365680   -1.2029080  
C     4.6350190   -3.2681760   -1.2035920  
O     5.5600460   -3.8851300   -1.7106690  
C     4.9537370   -1.8891790   -0.5095270  
O     6.1216810   -1.5342550   -0.4877000  
C     3.8499950   -1.0866370    0.0748690  
H     1.0888640   -0.1182710    0.7435810  
H     3.0371620   -4.7043930   -1.6411170  
H     0.4930910   -3.6883690   -1.2838700  
C    -2.6373470    1.3423570   -0.4867570  
C    -1.4926150    0.5977840   -0.4565060  
C    -1.8598910   -0.7324010   -0.0594060  
C    -3.2609330   -0.7350400    0.1412280  
N    -3.7293350    0.5551560   -0.1209260  
C    -3.9763640   -1.8932080    0.4610460  
C    -3.2593270   -3.0705540    0.6040990  
O    -3.9105440   -4.2205790    0.9339830  
C    -1.8546560   -3.0978660    0.4241880  
O    -1.2976970   -4.3378930    0.6360510  
C    -1.1280270   -1.9435650    0.0930930  
H    -0.5025640    0.9575430   -0.6946450  
H    -5.0461990   -1.9004660    0.6263000  
H    -3.2354750   -4.9126330    1.0454020  
H    -0.3243360   -4.2640040    0.6354470  
H    -2.7837620    2.3909170   -0.7001610  
C    -6.1362250    2.7869650   -3.0201960  
C    -5.1486610    2.0741730   -2.4173220  
C    -5.6223390    1.7195360   -1.0967760  
C    -6.9841100    2.2902450   -0.9761990  
N    -7.2276840    2.9356550   -2.1728220  
C    -7.7985610    2.1580630    0.1039200  
C    -7.3043690    1.4049240    1.2437660  
O    -7.9629640    1.1810940    2.2474180  
C    -5.8351160    0.8382580    1.1849190  
O    -5.3771810    0.2950530    2.1731110  
C    -5.0586090    1.0118550   -0.0680160  
H    -4.1957590    1.8081040   -2.8482510  
H    -8.7989250    2.5758630    0.1532870  
H    -6.1637890    3.2142290   -4.0137420  
H    -8.0928620    3.3950480   -2.4101270  
