64


C     5.7166120    2.1860040    0.5115970  
C     5.1987810    0.9549240    0.1651720  
C     6.3395990    0.1095710   -0.1347080  
C     7.5061250    0.8947000    0.0568320  
N     7.0920200    2.1520200    0.4480640  
C     8.7979630    0.4008060   -0.1622960  
C     8.9176010   -0.9123490   -0.5886020  
O    10.1524390   -1.4443300   -0.8137850  
C     7.7616340   -1.7115000   -0.8001870  
O     8.0439450   -2.9919500   -1.2336100  
C     6.4872960   -1.2216330   -0.5838310  
H     7.7020770    2.9249530    0.6644640  
H     9.6903800    1.0011310   -0.0178230  
H    10.0222090   -2.3588190   -1.1190720  
H     7.2170970   -3.4700800   -1.3951560  
H     5.6186510   -1.8501750   -0.7635840  
H     5.1973450    3.0814780    0.8216760  
C     1.6197740    2.9294410   -1.7075910  
C     2.8884170    2.6166080   -1.2983830  
C     2.8012660    1.4129380   -0.5179780  
C     1.4316190    1.0403830   -0.5009620  
N     0.7365440    1.9718000   -1.2410870  
C     0.9736520   -0.1171860    0.1562150  
C     1.9307510   -0.9048640    0.7932680  
O     1.5463780   -2.0364720    1.4528730  
C     3.2989990   -0.5459690    0.7681490  
O     4.1028020   -1.4265110    1.4667210  
C     3.7686760    0.6010290    0.1294430  
H     3.7879640    3.1642360   -1.5383110  
H    -0.2683720    2.0201660   -1.3109680  
H     2.3476290   -2.3974460    1.8731390  
H     4.9966430   -1.0494780    1.5360830  
H     1.2617530    3.7562330   -2.3043380  
C    -0.8764520   -1.7324770   -0.3054690  
C    -2.2253500   -1.8119430   -0.1929280  
C    -2.6800130   -0.5662740    0.3832620  
C    -1.4685680    0.2544520    0.6053810  
N    -0.3939590   -0.5019730    0.1569700  
C    -1.4640910    1.5110470    1.1344610  
C    -2.7367600    2.1044890    1.5012270  
O    -2.8564100    3.2407710    1.9365260  
C    -4.0447880    1.2447430    1.3244890  
O    -5.1022520    1.7017730    1.7169930  
C    -3.9266510   -0.1042810    0.7150750  
H    -2.8465880   -2.6428490   -0.4901290  
H    -0.5574230    2.0785800    1.3090610  
H    -0.1710370   -2.4547570   -0.6901200  
C    -5.1519730   -2.2236010    1.1075530  
C    -6.3765110   -2.7523660    0.8227200  
C    -7.1169000   -1.7520460    0.1026410  
C    -6.2834170   -0.6116870   -0.0091340  
N    -5.0686850   -0.9161260    0.6156750  
C    -6.6787890    0.5382330   -0.7012720  
C    -7.9448310    0.5446140   -1.2660670  
O    -8.3787760    1.6474580   -1.9449630  
C    -8.7973650   -0.5832290   -1.1495200  
O   -10.0251870   -0.4263550   -1.7655390  
C    -8.3986000   -1.7240800   -0.4774540  
H    -6.7228420   -3.7367670    1.1074590  
H    -6.0563830    1.4199770   -0.7861240  
H    -9.2903290    1.4674460   -2.2318820  
H   -10.5776210   -1.2004730   -1.5825420  
H    -9.0609920   -2.5850230   -0.4098720  
H    -4.3213380   -2.6344380    1.6623560  
