64


C     0.8933970   -2.3071500    0.0141690  
C     1.7837500   -1.2630380    0.0901980  
C     3.0920350   -1.7646380   -0.2254990  
C     2.9479280   -3.1442870   -0.4998090  
N     1.6128590   -3.4864540   -0.2824880  
C     4.0076160   -3.9572860   -0.9061560  
C     5.2537250   -3.3568810   -1.0235940  
O     6.3303540   -4.1000960   -1.4029130  
C     5.4313980   -1.9810870   -0.7342150  
O     6.7355030   -1.5532080   -0.8719710  
C     4.3731720   -1.1590810   -0.3292750  
H     1.5354020   -0.2545790    0.3858990  
H     1.1753140   -4.2297130   -0.8150230  
H     3.8966040   -5.0153930   -1.1188330  
H     7.1057680   -3.5118940   -1.3760200  
H     6.8148960   -0.6534380   -0.5031350  
C    -2.4176070    0.5159340   -0.9844550  
C    -1.2173700   -0.1059980   -0.8677620  
C    -1.4185250   -1.3182650   -0.1092240  
C    -2.7954390   -1.3891300    0.2079680  
N    -3.4078210   -0.2362610   -0.3212790  
C    -3.3527350   -2.4869210    0.8675410  
C    -2.4923320   -3.5116530    1.2452260  
O    -2.9920990   -4.5929790    1.9074220  
C    -1.1112670   -3.4474270    0.9626240  
O    -0.3944890   -4.5278490    1.4242420  
C    -0.5450340   -2.3603880    0.2781120  
H    -0.2843910    0.2415070   -1.2866060  
H    -4.4070120   -2.5939580    1.0776180  
H    -2.2403980   -5.1764730    2.1119390  
H     0.5583400   -4.3526420    1.3057010  
H    -2.7071380    1.4347870   -1.4660970  
C     4.5915310    0.2514470   -0.0075580  
C     4.0652980    1.0391200    0.9882830  
C     4.6448890    2.3486000    0.8764370  
C     5.5372460    2.3140250   -0.2212140  
N     5.5494680    1.0101390   -0.7185530  
C     6.2595710    3.4322760   -0.6445180  
C     6.0848800    4.6126210    0.0654080  
O     6.7623160    5.7353110   -0.3081240  
C     5.2108480    4.6607690    1.1831450  
O     5.1540510    5.8989680    1.7914990  
C     4.4968600    3.5500150    1.5962170  
H     3.3833200    0.6998970    1.7558210  
H     5.7153070    0.8288460   -1.7018280  
H     6.9411410    3.4113710   -1.4887540  
H     6.5072290    6.4449620    0.3065260  
H     4.5253260    5.8711440    2.5278170  
H     3.8294220    3.6114680    2.4533670  
C    -4.7093500    0.1782660   -0.2100500  
C    -5.7480050   -0.3142740    0.5514910  
C    -6.8611970    0.5268110    0.2478100  
C    -6.3230260    1.5209100   -0.7487590  
N    -5.0626760    1.3118670   -1.0032450  
C    -7.1482260    2.5517690   -1.3117010  
C    -8.4376160    2.6021470   -0.8990420  
O    -9.3314530    3.4976580   -1.3220030  
C    -9.0121920    1.6186500    0.1144430  
O   -10.2028920    1.7808370    0.4017530  
C    -8.1589780    0.5844610    0.6621320  
H    -5.7382120   -1.1156760    1.2705980  
H    -6.7397970    3.2519230   -2.0316620  
H   -10.1605320    3.2648000   -0.8374040  
H    -8.5951900   -0.1030100    1.3795570  
