60


C     1.9186170    1.9950900   -0.1818520  
C     1.8872680    3.3976920   -0.2231370  
C     3.2203060    3.8493530   -0.2404320  
C     4.0630210    2.6848480   -0.2071890  
N     3.2485270    1.5927790   -0.1744460  
C     5.4606770    2.7709180   -0.2112080  
C     6.0177030    4.0374350   -0.2498140  
O     7.3625080    4.1835480   -0.2555950  
C     5.1927580    5.2126150   -0.2843660  
O     5.9218610    6.3777060   -0.3204610  
C     3.8220790    5.1334440   -0.2802690  
H     0.9912170    4.0025940   -0.2387190  
H     3.5017650    0.6144910   -0.1360500  
H     6.1053500    1.8993600   -0.1860780  
H     7.5595760    5.1370160   -0.2852480  
H     5.3274330    7.1428310   -0.3436380  
H     3.2114970    6.0327610   -0.3065760  
C     0.8944170    1.0223760   -0.1489030  
C    -0.4924020    1.1742230   -0.1474570  
C    -1.0235200   -0.1289700   -0.1194150  
C     0.1902540   -1.0228710   -0.1040980  
N     1.3013400   -0.3388470   -0.1227240  
C     0.0941510   -2.4619600   -0.1095920  
C    -1.1651800   -2.9679660   -0.2138050  
O    -1.4303330   -4.2720770   -0.2665390  
C    -2.4117340   -2.1062210   -0.2581110  
O    -3.4701150   -2.7481000   -0.3867090  
C    -2.3176760   -0.6572960   -0.1348550  
H    -1.0307390    2.1058120   -0.2155770  
H    -2.4126800   -4.3263890   -0.3478300  
C     3.0986260   -2.9401440    3.0560210  
C     3.9534570   -3.8393440    2.5176490  
C     3.3946770   -4.1535550    1.2057960  
C     2.1644760   -3.2997100    1.1203840  
N     1.9930340   -2.6050750    2.2051570  
C     1.2965840   -3.3187030   -0.0457620  
C     1.6392840   -4.1785230   -1.0433430  
O     0.9435540   -4.3151030   -2.1810530  
C     2.8644750   -5.0509250   -0.9760670  
O     3.0930690   -5.7816170   -1.9384330  
C     3.7352840   -4.9957320    0.2120370  
H     4.8494800   -4.2594210    2.9529350  
H     1.4277090   -4.9942060   -2.7016760  
H     4.6032100   -5.6480760    0.2230720  
H     3.1557540   -2.4656060    4.0285130  
C    -3.5217190    0.1409060   -0.0430780  
C    -3.6806850    1.4602630    0.3430870  
C    -5.0764460    1.7760520    0.2989950  
C    -5.7650630    0.5374830   -0.1435370  
N    -4.7779000   -0.3982040   -0.3422570  
C    -7.1097920    0.4254540   -0.2985930  
C    -7.9423860    1.5904170   -0.0197460  
O    -9.1600140    1.5825940   -0.1319420  
C    -7.2335850    2.9158310    0.4460410  
O    -7.9193670    3.9021690    0.6800130  
C    -5.7800520    2.9124650    0.5796650  
H    -2.9018550    2.1227740    0.6832410  
H    -7.5974760   -0.4893420   -0.6209190  
H    -5.3015280    3.8313180    0.9054580  
H    -4.9002910   -1.3831290   -0.5355280  
