62


C     3.7864420    4.9046290    0.5454010  
C     3.1509920    3.6873390    0.4687290  
C     1.8142900    3.9291400    0.0114910  
C     1.6957720    5.3296530   -0.1608830  
N     2.9129510    5.8953710    0.1586400  
C     0.5088680    5.9609790   -0.5571010  
C    -0.5971000    5.1589040   -0.7719700  
O    -1.7826700    5.7136870   -1.1491290  
C    -0.5281410    3.7486410   -0.6120250  
O    -1.7019020    3.1230140   -0.8809740  
C     0.6754360    3.0947820   -0.2444340  
H     3.5901090    2.7438310    0.7524940  
H     3.1173680    6.8822090    0.1395530  
H     0.4290480    7.0355720   -0.6879290  
H    -2.4094370    4.9741650   -1.2525530  
H    -1.5747440    2.1490880   -0.6872300  
H     4.7953950    5.1446250    0.8492120  
C     0.7333120    1.6573810   -0.1616270  
C     1.7941220    0.7871990   -0.0957720  
C     1.2458490   -0.5306920   -0.0398630  
C    -0.2400450   -0.3305590   -0.0612900  
N    -0.5194540    0.9331820   -0.1614750  
C    -1.1939660   -1.4366120   -0.0091370  
C    -0.6084470   -2.6756050   -0.0511260  
O    -1.3131180   -3.8304930   -0.0341030  
C     0.8632440   -2.9168050   -0.0570970  
O     1.2205470   -4.1015350   -0.0147330  
C     1.8001370   -1.7811380   -0.0734500  
H     2.8433330    1.0237810   -0.1262070  
H    -0.6162550   -4.5320030   -0.0316790  
C     5.0766510   -0.6094130    2.6397510  
C     6.1445760   -1.2233530    2.0821730  
C     5.6188510   -1.8989850    0.9001260  
C     4.1557730   -1.5626970    0.9069360  
N     3.8505200   -0.8125160    1.9241610  
C     3.2461550   -2.0633780   -0.1143860  
C     3.8061220   -2.8373130   -1.0893430  
O     3.1216970   -3.3308680   -2.1283620  
C     5.2702090   -3.1830270   -1.1169690  
O     5.6699710   -3.8831980   -2.0458200  
C     6.1593510   -2.6751070   -0.0577130  
H     7.1701140   -1.2312890    2.4241800  
H     3.7745410   -3.8500280   -2.6491910  
H     7.2072660   -2.9544220   -0.1100900  
H     5.0478070   -0.0043170    3.5380990  
C    -2.6243790   -1.2140920    0.0749750  
C    -3.3515320   -0.0541590    0.3282940  
C    -4.7301210   -0.4009600    0.3364770  
C    -4.8104460   -1.8005040    0.0844460  
N    -3.5291890   -2.2631670   -0.0713470  
C    -6.0302360   -2.4870090    0.0258340  
C    -7.1865120   -1.7502230    0.2252540  
O    -8.4019480   -2.3654310    0.1804150  
C    -7.1257570   -0.3488900    0.4781730  
O    -8.3668700    0.2345850    0.6532050  
C    -5.9251550    0.3265500    0.5352140  
H    -2.9322050    0.9219670    0.5080790  
H    -3.2454330   -3.2226630   -0.2031120  
H    -6.0984890   -3.5528250   -0.1654240  
H    -9.0761110   -1.6829840    0.3430180  
H    -8.2566290    1.1820330    0.8214350  
H    -5.9010100    1.3970530    0.7289690  
