62


C     3.6278840   -0.6323270    0.1493770  
C     3.5553470   -1.8134820    0.8466350  
C     4.7177170   -2.5755960    0.4913840  
C     5.4691790   -1.7936580   -0.4251670  
N     4.7882770   -0.6026300   -0.6085550  
C     6.6772380   -2.2291490   -0.9799110  
C     7.1379170   -3.4817050   -0.6031860  
O     8.3065300   -3.9583030   -1.1193850  
C     6.4046560   -4.2759100    0.3189580  
O     6.9970890   -5.4922740    0.5977680  
C     5.2125960   -3.8404740    0.8671720  
H     2.7859330   -2.0796620    1.5575490  
H     4.9861360    0.0886990   -1.3163480  
H     7.2530580   -1.6343490   -1.6812800  
H     8.4530800   -4.8406760   -0.7369830  
H     6.4431850   -5.9891470    1.2177330  
H     4.6695330   -4.4666670    1.5721400  
C     1.3566820    0.2885550   -0.0243320  
C     0.7366760    1.5268330   -0.0752710  
C     1.8037930    2.5119340    0.0180940  
C     3.0183570    1.7997540    0.1508630  
N     2.7207970    0.4316520    0.0983740  
C     4.2569380    2.4238370    0.3421060  
C     4.2720730    3.8098990    0.3754600  
O     5.4492480    4.4730700    0.5454490  
C     3.0667030    4.5444870    0.2314550  
O     3.2386490    5.9124990    0.2784130  
C     1.8462180    3.9182250    0.0656740  
H     5.1798830    1.8722460    0.4781130  
H     5.2494090    5.4252580    0.5216670  
H     2.4040330    6.3515830    0.0553380  
H     0.9429500    4.5042710   -0.0609040  
H     0.9356590   -0.6971650   -0.1548160  
C    -2.6769450   -0.7011520    1.6699410  
C    -1.4551380   -0.1961550    1.3866060  
C    -1.6178710    0.8692400    0.4107090  
C    -3.0615400    0.9710650    0.1458600  
N    -3.6557250   -0.0387440    0.9031040  
C    -3.6705620    1.8850760   -0.6548900  
C    -2.8239140    2.8627900   -1.3072140  
O    -3.2425340    3.7676320   -2.0145580  
C    -1.2653680    2.7684270   -1.0817130  
O    -0.5659920    3.5871000   -1.6516380  
C    -0.7035570    1.6988360   -0.2034480  
H    -0.5219930   -0.5123840    1.8268380  
H    -4.7421670    1.9199900   -0.8165970  
H    -2.9829850   -1.4860930    2.3473720  
C    -5.8051590    0.5134770    1.9659100  
C    -7.0896260    0.0957880    1.8899650  
C    -7.1561800   -0.9524610    0.8867780  
C    -5.7811110   -1.1227650    0.3625230  
N    -5.0014280   -0.2000580    1.0586020  
C    -5.4135700   -2.0126970   -0.5886990  
C    -6.4497100   -2.8807630   -1.1502200  
O    -6.2206760   -3.7203550   -2.0053200  
C    -7.9210820   -2.7190190   -0.6171200  
O    -8.7981460   -3.4337030   -1.0734100  
C    -8.1803600   -1.7109580    0.4180790  
H    -7.9202900    0.4742020    2.4681450  
H    -4.3967350   -2.1109290   -0.9533010  
H    -9.1994330   -1.6094920    0.7788040  
H    -5.3457340    1.2737080    2.5830270  
