64


C     4.7737790   -3.7157140   -0.3767080  
C     3.4542470   -3.4289330   -0.6371250  
C     2.9521070   -2.6715720    0.4735660  
C     4.0332310   -2.5228960    1.3776990  
N     5.1202510   -3.1787180    0.8412450  
C     3.9449970   -1.8011310    2.5772660  
C     2.7392280   -1.1932300    2.8691730  
O     2.5961810   -0.4660210    4.0075370  
C     1.6207270   -1.3089170    1.9935850  
O     0.5319860   -0.6482650    2.4380550  
C     1.6859260   -2.0668040    0.7924860  
H     2.9310300   -3.7091730   -1.5374540  
H     6.0380580   -3.2153730    1.2570960  
H     4.7818160   -1.6931970    3.2599020  
H     1.6876020   -0.1108460    3.9973050  
H    -0.1812500   -0.7135380    1.7301550  
H     5.4958310   -4.2606350   -0.9676260  
C     0.5123050   -2.2295260   -0.0291130  
C     0.2381830   -3.0755190   -1.0822140  
C    -1.0918550   -2.7756050   -1.5112470  
C    -1.5516010   -1.6686080   -0.6027540  
N    -0.6138070   -1.3750560    0.2553440  
C    -2.8510940   -1.0462170   -0.7038690  
C    -3.6509910   -1.5485800   -1.6928180  
O    -4.8676100   -1.0886660   -1.9666210  
C    -3.2326960   -2.6857720   -2.6137390  
O    -4.0661100   -3.0320520   -3.4566900  
C    -1.9142860   -3.2734150   -2.4746920  
H     0.8637660   -3.8563130   -1.4832480  
H    -5.1847600   -1.6505500   -2.7146110  
H    -1.6421500   -4.0781480   -3.1496160  
C    -1.0544420    2.9419970    0.1291990  
C    -2.0095530    3.3700010    1.0286630  
C    -2.9699660    2.3183600    1.1787240  
C    -2.5528750    1.2500030    0.3396150  
N    -1.3922360    1.6559850   -0.2793690  
C    -3.2720830    0.0430150    0.2082660  
C    -4.4306940   -0.0717480    0.9820530  
O    -5.1646840   -1.2215390    0.9429680  
C    -4.8516260    0.9815000    1.8321450  
O    -6.0154480    0.6997720    2.5286850  
C    -4.1462700    2.1648480    1.9377540  
H    -1.9958040    4.3159620    1.5525530  
H    -0.8851930    1.1304550   -0.9731000  
H    -5.9261830   -1.0903600    1.5341260  
H    -6.2444700    1.4563550    3.0878820  
H    -4.4968620    2.9587460    2.5946710  
C     0.2491450    4.9447470   -0.6799920  
C     0.1312480    3.6010460   -0.3954150  
C     1.4061550    2.9987970   -0.7303650  
C     2.2413500    4.0357370   -1.2163140  
N     1.5129760    5.2089830   -1.1635620  
C     3.5602300    3.8131950   -1.6325650  
C     4.0451890    2.5180880   -1.5502530  
O     5.3227550    2.2392450   -1.9440310  
C     3.2319510    1.4662080   -1.0465350  
O     3.8724590    0.2455050   -1.0175030  
C     1.9299840    1.6917930   -0.6367540  
H     1.8391680    6.1110420   -1.4722450  
H     4.2024870    4.6052000   -2.0044520  
H     5.4604130    1.2889090   -1.7844530  
H     3.3188170   -0.4301710   -0.5917180  
H     1.3401960    0.8790780   -0.2220810  
H    -0.4887220    5.7294850   -0.5942070  
