60


C    -4.7227570    1.0934990    2.2038850  
C    -5.8884000    0.5536490    2.6635370  
C    -6.1496210   -0.6287060    1.8882740  
C    -5.0922610   -0.7608100    0.9555770  
N    -4.2215120    0.3138560    1.1554370  
C    -5.0024500   -1.8344190    0.0611890  
C    -6.0174300   -2.7792210    0.0933230  
O    -5.9789230   -3.8412000   -0.7595520  
C    -7.0952670   -2.6543820    1.0101000  
O    -8.0224310   -3.6720480    0.9184660  
C    -7.1690680   -1.6005420    1.9020630  
H    -6.5013150    0.9566310    3.4581570  
H    -4.1868320   -1.9536120   -0.6428510  
H    -6.7736020   -4.3772310   -0.5931310  
H    -8.7414500   -3.5176010    1.5489160  
H    -7.9969900   -1.5299130    2.6044850  
H    -4.1970820    1.9913530    2.4959960  
C    -1.8003330    0.7119780    1.0389590  
C    -3.0235810    0.5572530    0.4733430  
C    -2.8834130    0.7846140   -0.9665260  
C    -1.4546810    1.0772230   -1.2036040  
N    -0.8534120    1.0749360    0.0599630  
C    -0.8970860    1.2960310   -2.4161330  
C    -1.7775800    1.2821150   -3.5882050  
O    -1.3701270    1.4629050   -4.7225850  
C    -3.3120600    1.0340730   -3.3558510  
O    -4.0669320    1.0510680   -4.3116580  
C    -3.7801280    0.7811280   -1.9830340  
H     0.1585880    1.4966780   -2.5648280  
H    -4.8362780    0.5837780   -1.8328290  
H    -1.4970980    0.6306980    2.0734420  
C     1.3376520   -0.0193330    0.1478260  
C     2.6380690    0.3322340    0.3640830  
C     2.6499770    1.7727150    0.6421520  
C     1.2456420    2.2293610    0.5601110  
N     0.4949940    1.0848230    0.2745650  
C     0.8218350    3.4993730    0.7453570  
C     1.8265380    4.5177320    1.0661440  
O     1.5463300    5.6893970    1.2488280  
C     3.3234040    4.0599080    1.1883280  
O     4.1773730    4.8826610    1.4675960  
C     3.6433380    2.6414580    0.9594360  
H    -0.2186690    3.7973200    0.6746410  
H     4.6797010    2.3412260    1.0730060  
H     0.9178690   -0.9818610   -0.1115000  
C     3.7699160   -0.5746260    0.3272780  
C     3.8262290   -1.9032150    0.6498630  
C     5.1705380   -2.3658680    0.4102310  
C     5.9238530   -1.1908130   -0.0907360  
N     5.0382240   -0.1205890   -0.0675060  
C     7.2206710   -1.2204990   -0.4805470  
C     7.9468040   -2.4871250   -0.3759110  
O     9.1170170   -2.6077170   -0.7005120  
C     7.1791740   -3.7373720    0.1905510  
O     7.7743990   -4.7986940    0.2943380  
C     5.7719730   -3.5773180    0.5612860  
H     3.0200670   -2.4862140    1.0722360  
H     7.7553010   -0.3525260   -0.8541840  
H     5.2468070   -4.4512110    0.9346030  
H     5.1722920    0.7097690   -0.6268410  
