62


C     0.0362050    4.4266350    0.2514260  
C    -0.8473350    5.4535510    0.3395890  
C    -2.1713200    4.9060670    0.1776250  
C    -2.0363750    3.5103330   -0.0110420  
N    -0.6493370    3.2193120    0.0363680  
C    -3.1429970    2.6763880   -0.1950490  
C    -4.4002050    3.2713500   -0.1929250  
O    -5.5064090    2.4959630   -0.3735470  
C    -4.5484340    4.6667960   -0.0071720  
O    -5.8554610    5.1052970   -0.0292120  
C    -3.4477480    5.4874120    0.1787150  
H    -0.5933680    6.4929530    0.4988320  
H    -3.0481280    1.6090660   -0.3364420  
H    -6.2818890    3.0819310   -0.3384590  
H    -5.8804810    6.0651620    0.0987480  
H    -3.5732590    6.5586050    0.3219940  
H     1.1127540    4.4285550    0.3121600  
C    -0.0146790    2.0118340   -0.0965890  
C     1.3387830    1.7471580   -0.0180860  
C     1.4598400    0.3443940   -0.2406500  
C     0.0455820   -0.1196570   -0.4505070  
N    -0.8033020    0.8643800   -0.3606550  
C    -0.2854930   -1.5010650   -0.7321380  
C     0.7689190   -2.3603830   -0.8317170  
O     0.6456690   -3.6597990   -1.1056530  
C     2.1990720   -1.9326720   -0.5822430  
O     3.0316050   -2.8403340   -0.5973520  
C     2.5203550   -0.5235970   -0.3130860  
H     2.1475170    2.4367330    0.1639640  
H     1.5681320   -4.0105320   -1.0653390  
C     4.7799120    1.5190040    2.9458090  
C     3.8066700    0.9546040    2.1844430  
C     4.4256870    0.5042010    0.9550640  
C     5.8628490    0.8524310    1.0696040  
N     6.0058930    1.4832260    2.2909090  
C     6.8141750    0.5614220    0.1445770  
C     6.4042650   -0.1393820   -1.0629120  
O     7.1836480   -0.4832350   -1.9384430  
C     4.8771590   -0.4564550   -1.2505990  
O     4.5030900   -0.8946330   -2.3232300  
C     3.9314820   -0.1518860   -0.1424930  
H     2.7636990    0.8616320    2.4450830  
H     7.8646590    0.8051350    0.2700880  
H     4.7090990    1.9622230    3.9303770  
H     6.8866210    1.7728550    2.6861630  
C    -2.5559000   -1.2669230   -1.7143960  
C    -3.7699940   -1.8787770   -1.6016940  
C    -3.6273340   -2.9403250   -0.6430830  
C    -2.2792220   -2.9311830   -0.2053390  
N    -1.6272440   -1.8955370   -0.8811910  
C    -1.8014960   -3.8135960    0.7694130  
C    -2.6960230   -4.7336870    1.2966310  
O    -2.2746970   -5.6203530    2.2487100  
C    -4.0438840   -4.7656300    0.8604970  
O    -4.8128120   -5.7375520    1.4764860  
C    -4.5157480   -3.8834810   -0.0952480  
H    -4.6681630   -1.6038650   -2.1375990  
H    -0.7749300   -3.8144910    1.1131780  
H    -3.0384040   -6.1776420    2.4764080  
H    -5.7098130   -5.7138360    1.1122930  
H    -5.5579940   -3.9147570   -0.4075630  
H    -2.2457990   -0.4314850   -2.3225110  
