62


C    -1.5444230    0.0270590    0.7786670  
C    -2.7887280   -0.3723530    0.3681470  
C    -3.3659710    0.7615960   -0.3334320  
C    -2.4127170    1.8080580   -0.3147250  
N    -1.2908240    1.3412280    0.3877200  
C    -2.6344810    3.0316840   -0.9530150  
C    -3.8590350    3.2243750   -1.5760940  
O    -4.1200950    4.4085760   -2.2010790  
C    -4.8448350    2.2073870   -1.5586870  
O    -6.0199950    2.5487400   -2.1979110  
C    -4.6124020    0.9857790   -0.9494470  
H    -1.9134190    3.8383820   -0.9522220  
H    -5.0350960    4.3670070   -2.5284400  
H    -6.6892650    1.8685270   -2.0305160  
H    -5.3852150    0.2215680   -0.9384950  
H    -0.8180210   -0.5032760    1.3737000  
C     2.9373730    0.1003000   -0.0632840  
C     1.5607330    0.0938260   -0.1067310  
C     1.1471320    1.3671870    0.4059110  
C     2.4230440    2.0647760    0.7383730  
N     3.4605500    1.3269450    0.4597890  
C     2.4550500    3.4011560    1.2754280  
C     1.2703480    4.0177140    1.4767690  
O     1.1370210    5.2614030    1.9580760  
C    -0.0527250    3.3444070    1.1791030  
O    -1.0673430    3.9743590    1.4706320  
C    -0.0625350    1.9840730    0.5941690  
H     0.9122950   -0.6895300   -0.4714620  
H     3.4030400    3.8778560    1.4971760  
H     0.1674220    5.4100680    2.0310640  
C     3.5293520   -2.1656170   -0.9607750  
C     3.8628940   -0.9257500   -0.4676700  
C     5.3312320   -0.8798440   -0.4452790  
C     5.7952200   -2.1880640   -0.9654440  
N     4.6485110   -2.9100240   -1.2561860  
C     7.0915260   -2.5586100   -1.1091820  
C     8.1267360   -1.6022350   -0.7254880  
O     9.3209630   -1.8401590   -0.8168880  
C     7.6631710   -0.2066930   -0.1711570  
O     8.5105900    0.6078650    0.1552840  
C     6.2224090    0.0696430   -0.0647410  
H     7.3987520   -3.5263610   -1.4937810  
H     5.9017750    1.0304400    0.3187620  
H     2.5455000   -2.5844910   -1.1256260  
H     4.6387310   -3.8499520   -1.6223900  
C    -4.8987640   -3.1067150   -2.3913430  
C    -5.2037410   -4.0896860   -1.4861260  
C    -4.6764790   -3.6733580   -0.2170910  
C    -4.0630570   -2.4089280   -0.4152850  
N    -4.2105660   -2.0925560   -1.7521030  
C    -3.4046970   -1.6875440    0.6074160  
C    -3.3617320   -2.3157120    1.8557170  
O    -2.7242800   -1.7117730    2.9042300  
C    -3.9750300   -3.5768320    2.0709000  
O    -3.8455830   -4.0395350    3.3698210  
C    -4.6310480   -4.2576330    1.0638970  
H    -5.7351670   -5.0073960   -1.6980290  
H    -3.8629170   -1.2498660   -2.1832480  
H    -2.8734840   -2.2735270    3.6849800  
H    -4.3831240   -4.8372180    3.4819770  
H    -5.0846970   -5.2278590    1.2563400  
H    -5.1139410   -3.0399900   -3.4486670  
