60


C    -5.3805380   -0.3750940    2.2336920  
C    -4.8220610   -0.2569480    0.9671470  
C    -5.8298200   -0.7399980    0.0399090  
C    -6.9485660   -1.1397500    0.8110170  
N    -6.6440280   -0.9012920    2.1397620  
C    -8.1103600   -1.6863480    0.2523890  
C    -8.1450340   -1.8297610   -1.1249610  
O    -9.2512920   -2.3443570   -1.7303910  
C    -7.0322560   -1.4375740   -1.9173640  
O    -7.2172470   -1.6381460   -3.2709050  
C    -5.8871230   -0.9061970   -1.3582600  
H    -7.2825930   -1.0174260    2.9115100  
H    -8.9657980   -1.9875560    0.8481820  
H    -9.0865060   -2.3277550   -2.6895340  
H    -6.4975210   -1.2132890   -3.7614420  
H    -5.0655560   -0.5861800   -1.9898000  
H    -4.9915160   -0.0464060    3.1873200  
C    -1.0923830   -0.8516360    3.1533190  
C    -0.2607820   -0.0458880    2.4360990  
C    -1.0279630    0.5103420    1.3468790  
C    -2.3951060   -0.0211970    1.4998820  
N    -2.3728040   -0.8225160    2.6321470  
C    -3.4762370    0.2436410    0.6946670  
C    -3.1968620    1.1397820   -0.4457650  
O    -4.0477600    1.4918490   -1.2456330  
C    -1.7354780    1.6841770   -0.6631950  
O    -1.5113520    2.2807680   -1.7025800  
C    -0.6911130    1.3854950    0.3355380  
H     0.7821560    0.1394800    2.6413980  
H    -0.8778430   -1.4510310    4.0283980  
H    -3.1235790   -1.4553330    2.8673970  
C     3.5502100   -0.1578700    0.0108550  
C     2.1786760   -0.1021390    0.1742740  
C     1.8250570    1.2816540    0.1021150  
C     3.1304810    1.9803390   -0.1263010  
N     4.1270580    1.1416280   -0.1759870  
C     3.2170430    3.4053040   -0.2964350  
C     2.0620250    4.1070880   -0.2484260  
O     1.9816110    5.4353960   -0.3851040  
C     0.7247710    3.4456020    0.0107280  
O    -0.2325740    4.2027190    0.1563140  
C     0.6367170    1.9713870    0.1469970  
H     1.5024450   -0.9329510    0.3130290  
H     4.1777500    3.8796810   -0.4624340  
H     1.0270560    5.6464250   -0.2640290  
C     4.0989940   -2.6296200    0.1581320  
C     4.4119430   -1.2967070   -0.0027660  
C     5.8790650   -1.3021530   -0.1979490  
C     6.2501950   -2.7376080   -0.1179810  
N     5.1951680   -3.4961670    0.0908600  
C     7.6056370   -3.1815640   -0.2585220  
C     8.5575220   -2.2373580   -0.4712830  
O     9.8628950   -2.5034360   -0.6208420  
C     8.2134410   -0.7742860   -0.5577740  
O     9.1355960    0.0157820   -0.7512220  
C     6.8045840   -0.3473110   -0.4088460  
H     7.8433330   -4.2376120   -0.1951270  
H    10.2925250   -1.6297200   -0.7583780  
H     6.5662290    0.7079340   -0.4739950  
H     3.1145770   -3.0512690    0.3260700  
