62


C    -3.6708810    0.0067530   -0.7084800  
C    -4.4229390    0.6092180   -1.7092980  
C    -5.7122210    0.8913330   -1.1791430  
C    -5.7138400    0.4446930    0.1737040  
N    -4.4798820   -0.1198680    0.4230950  
C    -6.8219940    0.5863560    1.0141310  
C    -7.9562420    1.1787880    0.4788980  
O    -9.0634220    1.3426250    1.2514540  
C    -7.9806960    1.6163790   -0.8776310  
O    -9.1850260    2.1750480   -1.2524150  
C    -6.8853470    1.4779550   -1.7042970  
H    -4.0853550    0.7756480   -2.7230570  
H    -4.1190210   -0.3051850    1.3469670  
H    -6.8284760    0.2518630    2.0462650  
H    -9.7449400    1.7641580    0.6991120  
H    -9.1435910    2.4492140   -2.1806320  
H    -6.9237330    1.8213700   -2.7358140  
C    -1.2831300   -0.0636050   -1.5441500  
C    -2.3114900   -0.4515780   -0.7279630  
C    -1.7093550   -1.5106290    0.1257160  
C    -0.2940290   -1.5689900   -0.3051220  
N    -0.0766550   -0.7416510   -1.2953960  
C     0.6607660   -2.5049790    0.2796360  
C     0.1246490   -3.3859920    1.1786210  
O     0.8619830   -4.3531630    1.8068870  
C    -1.2908440   -3.3928990    1.5887840  
O    -1.6578340   -4.2274770    2.4268680  
C    -2.2125140   -2.3999860    1.0017800  
H     0.2127000   -4.8106440    2.3911470  
H    -3.2563880   -2.4661920    1.2929000  
H    -1.3049280    0.6985540   -2.3127870  
C     3.7815150    0.7557780   -0.0681860  
C     2.6127650    0.0292130    0.1656330  
C     2.8624060   -1.3207590   -0.1804550  
C     4.2204010   -1.3895690   -0.6161710  
N     4.7441710   -0.1277320   -0.5492980  
C     4.8391050   -2.5822130   -1.0030890  
C     4.0787690   -3.7361790   -0.9170660  
O     4.6139180   -4.9358080   -1.2552520  
C     2.7238930   -3.7078850   -0.4685070  
O     2.1220980   -4.9470040   -0.4731230  
C     2.0798740   -2.5180040   -0.1278150  
H     1.6990560    0.4638370    0.5322600  
H     5.6855350    0.1522360   -0.7832340  
H     5.8697900   -2.6320950   -1.3378450  
H     3.9075080   -5.5919920   -1.0961760  
H     1.6484100   -5.0607750    0.3798810  
C     1.2272040    4.0188140    1.4301850  
C     2.0638920    5.0770680    1.3519410  
C     3.3131440    4.5357550    0.8278230  
C     3.0363240    3.0788580    0.6388340  
N     1.8191250    2.7905170    0.9948530  
C     4.0597090    2.1585960    0.1166420  
C     5.2737360    2.7423330   -0.1689050  
O     6.3392670    2.0450190   -0.6559620  
C     5.5649200    4.1711100    0.0115660  
O     6.6973910    4.5833150   -0.2833180  
C     4.5132930    5.0665670    0.5330140  
H     1.8712980    6.1077170    1.6160130  
H     7.0444170    2.7251760   -0.7579360  
H     4.7687150    6.1154150    0.6529180  
H     0.1996340    3.9985930    1.7723620  
