64


C    -2.7916950   -1.3450310   -1.9451010  
C    -4.0738410   -1.8227130   -1.9456740  
C    -4.1710630   -2.7806360   -0.8792140  
C    -2.8975620   -2.8440630   -0.2590280  
N    -2.0596960   -1.9490860   -0.9211090  
C    -2.6337260   -3.6677360    0.8412730  
C    -3.6739830   -4.4499420    1.3170900  
O    -3.4708090   -5.2762110    2.3847480  
C    -4.9552660   -4.4038110    0.7057800  
O    -5.8875880   -5.2386230    1.2954500  
C    -5.2135450   -3.5841960   -0.3768100  
H    -4.8523550   -1.5503930   -2.6461860  
H    -1.6566680   -3.7322990    1.3051580  
H    -4.3002280   -5.7617610    2.5336510  
H    -6.6982410   -5.2397160    0.7656470  
H    -6.2044630   -3.5615340   -0.8267580  
H    -2.2991190   -0.6488830   -2.6093550  
C    -0.3735360    1.7988450    0.3129650  
C     0.9566490    1.4386740    0.3182330  
C     1.0639100    0.0604400   -0.0583390  
C    -0.3147720   -0.3911300   -0.2865280  
N    -1.1343030    0.7032860   -0.1173640  
C    -0.7089150   -1.6599600   -0.6190350  
C     0.3324080   -2.6691640   -0.7346400  
O     0.1348070   -3.8304800   -1.0525600  
C     1.8149890   -2.2288980   -0.4167820  
O     2.6373520   -3.1372420   -0.3509180  
C     2.1452650   -0.8033370   -0.2051110  
H     1.7725220    2.0966780    0.5694950  
H    -2.1218550    0.6044870    0.0703760  
C    -0.4724620    4.0270520    1.4623600  
C    -1.0191880    3.0381750    0.6594630  
C    -2.3420530    3.5021800    0.2812230  
C    -2.5230640    4.7670750    0.8918910  
N    -1.3652920    5.0544820    1.5969460  
C    -3.6881500    5.5274860    0.7454480  
C    -4.7006570    4.9989550   -0.0397240  
O    -5.8595010    5.6924020   -0.2115920  
C    -4.5352240    3.7390740   -0.6749370  
O    -5.6184520    3.3549910   -1.4355850  
C    -3.3773150    2.9957100   -0.5318130  
H    -1.2176900    5.8787570    2.1593460  
H    -3.8228290    6.4961420    1.2154260  
H    -6.4361130    5.1587950   -0.7856940  
H    -5.4718100    2.4659740   -1.7922510  
H    -3.2773330    2.0529920   -1.0638800  
H     0.4817150    4.0478680    1.9688250  
C     3.5285720   -0.3874440   -0.1298090  
C     4.1084420    0.8793040   -0.2438110  
C     5.5155890    0.7236340   -0.1393060  
C     5.7662920   -0.6698320    0.0393390  
N     4.5547490   -1.3078440    0.0446540  
C     7.0595250   -1.1904850    0.1749130  
C     8.1165460   -0.2961140    0.1269940  
O     9.3966390   -0.7471380    0.2512740  
C     7.8855720    1.0992370   -0.0524140  
O     9.0449340    1.8522150   -0.0767240  
C     6.6130740    1.6135850   -0.1841540  
H     3.5829550    1.7995440   -0.4483700  
H     4.3671380   -2.3030090    0.0625260  
H     7.2555980   -2.2489250    0.3096080  
H     9.9830950    0.0260960    0.1827950  
H     8.8221450    2.7816600   -0.2331980  
H     6.4613830    2.6827490   -0.3202440  
