64


C    -3.7137210   -0.1172810   -0.7082300  
C    -4.6329140    0.1151120   -1.7088030  
C    -5.8426090    0.5777030   -1.0943930  
C    -5.6100460    0.6092710    0.3062540  
N    -4.3223840    0.1512940    0.5185830  
C    -6.5794270    1.0271530    1.2246870  
C    -7.8130010    1.4155330    0.7229470  
O    -8.7940580    1.8362000    1.5766310  
C    -8.0693470    1.3770510   -0.6722790  
O    -9.3457390    1.7862410   -1.0173390  
C    -7.1087640    0.9641870   -1.5777770  
H    -4.4705810   -0.0749760   -2.7611720  
H    -3.8052720    0.2745820    1.3760820  
H    -6.4040730    1.0569550    2.2954640  
H    -9.5700140    2.0556700    1.0328860  
H    -9.4507350    1.7320850   -1.9785200  
H    -7.3301270    0.9455260   -2.6433770  
C    -1.4183590   -0.2467190   -1.7510370  
C    -2.3322320   -0.5674220   -0.7727870  
C    -1.6415130   -1.4343100    0.1615180  
C    -0.3145450   -1.5838870   -0.3075390  
N    -0.1970170   -0.8309070   -1.4623830  
C     0.6481710   -2.3966340    0.3280690  
C     0.2225700   -3.0735800    1.4736610  
O     1.1054050   -3.8374270    2.1688310  
C    -1.1080860   -2.9441810    1.9483670  
O    -1.3617910   -3.6784330    3.0912320  
C    -2.0368690   -2.1393120    1.3148980  
H     0.5713780   -0.9135790   -2.1112780  
H     0.6031210   -4.3073820    2.8575100  
H    -2.3174620   -3.7208380    3.2440100  
H    -3.0560100   -2.0754830    1.6888050  
H    -1.5357090    0.3908970   -2.6153530  
C     3.8097210    0.5939070   -0.2779890  
C     4.7737670   -0.2307410   -0.7931870  
C     4.2496470   -1.5691420   -0.8741800  
C     2.8687670   -1.4944090   -0.3606740  
N     2.6091710   -0.1454250   -0.0721290  
C     2.0239330   -2.5462510   -0.1926820  
C     2.5330270   -3.8730240   -0.6279870  
O     1.8434710   -4.8752270   -0.6157370  
C     4.0025850   -3.9725890   -1.1819210  
O     4.4286490   -5.0746220   -1.4971300  
C     4.7883290   -2.7501820   -1.2905620  
H     5.7449130    0.0866330   -1.1437060  
H     5.8017670   -2.8311210   -1.6713010  
H     2.0412370    0.0558060    0.7468240  
C     7.0699670    3.3947680    1.0076760  
C     6.3554090    2.2743710    0.6632270  
C     5.0200460    2.7002680    0.3606880  
C     4.9844350    4.1053760    0.5528240  
N     6.2486600    4.5004880    0.9378630  
C     3.8259100    4.8709120    0.3812230  
C     2.6686720    4.2062030    0.0095960  
O     1.5169180    4.9084860   -0.1816520  
C     2.6636840    2.8013940   -0.1880770  
O     1.4378800    2.3214710   -0.5827310  
C     3.8236050    2.0246670   -0.0230680  
H     6.7384190    1.2650580    0.6516820  
H     6.5213370    5.4461340    1.1554920  
H     3.8028110    5.9464360    0.5244270  
H     0.8346150    4.2708490   -0.4566330  
H     1.4951980    1.3701920   -0.7973460  
H     8.1054090    3.4956130    1.3003700  
