62


C     6.6943780    0.2684040   -2.8988190  
C     7.3043990   -0.9074760   -2.5503900  
C     6.4934290   -1.5211050   -1.5368520  
C     5.3917230   -0.6526170   -1.3151830  
N     5.5320430    0.4222140   -2.1643120  
C     4.3823530   -0.9455720   -0.3796570  
C     4.4919920   -2.1403330    0.3314920  
O     3.5413460   -2.4789760    1.2595910  
C     5.5781820   -3.0193340    0.1002980  
O     5.5297350   -4.1627720    0.8757920  
C     6.5734070   -2.7268640   -0.8137210  
H     8.2228430   -1.2957540   -2.9678990  
H     4.9347710    1.2348790   -2.1751350  
H     3.8359130   -3.3165240    1.6605440  
H     6.3564400   -4.6581590    0.7790250  
H     7.3950250   -3.4214340   -0.9737850  
H     6.9876500    1.0205040   -3.6172780  
C     1.9412250   -0.5064060   -0.2040480  
C     1.0758370    0.4731520    0.1763290  
C     1.8976760    1.6413170    0.4876640  
C     3.3079280    1.2323680    0.2727880  
N     3.2745980   -0.0854030   -0.1707680  
C     4.3826720    2.0328660    0.5034860  
C     4.1469880    3.3930290    0.9778780  
O     5.0498010    4.1834080    1.2108870  
C     2.6601190    3.8507810    1.1962310  
O     2.4413780    4.9874810    1.5850010  
C     1.5880040    2.8860420    0.9295650  
H     5.4082670    1.7023810    0.3813810  
H     0.5656080    3.2096650    1.0851580  
H     1.7237730   -1.5140900   -0.5288670  
C    -1.1390070   -2.6978920    2.2329780  
C    -2.4097130   -2.2477180    1.9818690  
C    -2.2866550   -1.0320690    1.2268650  
C    -0.9001800   -0.8032680    1.0412960  
N    -0.2254080   -1.8336960    1.6641370  
C    -0.3763280    0.3026670    0.3362280  
C    -1.3190260    1.1875080   -0.1854620  
O    -0.9034340    2.2791000   -0.8923820  
C    -2.7107520    0.9844300   -0.0019560  
O    -3.4747660    1.9905770   -0.5599110  
C    -3.2254410   -0.1113880    0.6889710  
H    -3.3250580   -2.7362510    2.2842800  
H     0.7798240   -1.9044930    1.7345500  
H    -1.7030560    2.7606070   -1.1699040  
H    -4.4183420    1.7807710   -0.4815420  
H    -0.8042000   -3.5753140    2.7680670  
C    -5.3070770   -0.5199660    2.0774890  
C    -4.6757130   -0.2862740    0.8882160  
C    -5.7266470   -0.2727410   -0.1285630  
C    -7.0096250   -0.5036290    0.5837660  
N    -6.6790950   -0.6557200    1.9157050  
C    -8.2251850   -0.5526400   -0.0164540  
C    -8.2940210   -0.3758200   -1.4651220  
O    -9.3434080   -0.3943790   -2.0889250  
C    -6.9471650   -0.1590300   -2.2466040  
O    -6.9801600   -0.0338830   -3.4599530  
C    -5.6955010   -0.1160580   -1.4812730  
H    -9.1514000   -0.7232280    0.5238660  
H    -4.7721210    0.0165700   -2.0367060  
H    -4.8676960   -0.5966810    3.0631690  
H    -7.3407910   -0.8058510    2.6611310  
