62


C     1.1834690   -0.8581190    1.6238380  
C     2.5252120   -0.7202860    1.4305220  
C     2.7130540   -0.1042620    0.1447240  
C     1.4274330    0.1042900   -0.4128120  
N     0.4888660   -0.3762880    0.5092140  
C     1.2345520    0.7576170   -1.6340720  
C     2.3655810    1.1753360   -2.3203350  
O     2.2337810    1.7994560   -3.5285360  
C     3.6594410    0.9610690   -1.7880290  
O     4.6840140    1.4155600   -2.5906330  
C     3.8629900    0.3314820   -0.5564980  
H     3.3013350   -1.0222790    2.1187370  
H     0.2578350    0.9264890   -2.0672160  
H     3.1329550    1.9640150   -3.8620460  
H     5.5279830    1.1051480   -2.2182800  
H     0.6327940   -1.2576420    2.4599230  
C    -2.5184330    0.8203380    3.3734660  
C    -3.6597720    0.6388100    2.6689370  
C    -3.2309570    0.1477230    1.3633230  
C    -1.7441340    0.0864420    1.4749970  
N    -1.3366190    0.4802000    2.6468160  
C    -0.9075680   -0.3804530    0.3764110  
C    -1.5560750   -0.8036980   -0.7482290  
O    -0.9278650   -1.2955720   -1.8310820  
C    -3.0363450   -0.7112150   -0.8980000  
O    -3.5119290   -1.0122470   -1.9906880  
C    -3.8879190   -0.2427130    0.2433860  
H    -4.6775770    0.8100130    2.9880980  
H    -1.6422450   -1.4720700   -2.4830600  
H    -2.4102140    1.1727590    4.3921580  
C    -6.9865530    2.9557770    0.4932670  
C    -5.8177610    2.2615390    0.5212490  
C    -6.1255120    0.8860470    0.1987700  
C    -7.5923610    0.8377240   -0.0294920  
N    -8.0526870    2.1240240    0.1801470  
C    -8.2883240   -0.2694100   -0.3914950  
C    -7.5547430   -1.5163530   -0.5718850  
O    -8.0832310   -2.5581010   -0.9250580  
C    -6.0120710   -1.5146700   -0.2841540  
O    -5.4139970   -2.5754070   -0.2945180  
C    -5.3453270   -0.2317480    0.0528740  
H    -4.8419490    2.6637590    0.7460320  
H    -9.3588350   -0.2707110   -0.5720290  
H    -7.1607950    4.0076730    0.6775760  
H    -9.0076150    2.4206990    0.0532280  
C     6.3290050   -3.3428120    0.3412870  
C     5.3227030   -2.4906290   -0.0316030  
C     5.8041790   -1.1537700    0.1754100  
C     7.1280740   -1.2616500    0.6787990  
N     7.4205840   -2.6072190    0.7686300  
C     7.9189460   -0.1477180    0.9883960  
C     7.3588320    1.1035760    0.7896810  
O     8.0738980    2.2284020    1.0876930  
C     6.0400180    1.2358400    0.2817070  
O     5.6196990    2.5442380    0.1503100  
C     5.2446150    0.1335350   -0.0356670  
H     4.3497000   -2.7756350   -0.4047080  
H     8.2909580   -2.9926380    1.0991950  
H     8.9287600   -0.2293950    1.3777520  
H     7.4872280    2.9875220    0.9243890  
H     4.6646330    2.5439890   -0.0362290  
H     6.3635840   -4.4231870    0.3402880  
