62


C     4.3551460   -1.0665150   -1.6041420  
C     4.6721300   -0.0339970   -0.7427410  
C     5.8453790   -0.4648410   -0.0123630  
C     6.1798190   -1.7594700   -0.4830600  
N     5.2605410   -2.0932510   -1.4581600  
C     7.2577950   -2.4986800    0.0207110  
C     8.0144070   -1.9182730    1.0252290  
O     9.0787340   -2.5901850    1.5539610  
C     7.6922800   -0.6237660    1.5131170  
O     8.5387920   -0.1795280    2.5135150  
C     6.6277790    0.1009330    1.0137730  
H     5.2312440   -2.9683730   -1.9572410  
H     7.5112200   -3.4906060   -0.3392560  
H     9.4657870   -2.0181130    2.2388630  
H     8.2582770    0.7017390    2.8009180  
H     6.4126200    1.0961190    1.3913530  
H     3.5689590   -1.1281130   -2.3435400  
C     0.3289160    0.5564470   -0.3853660  
C     0.3419120    1.9543380   -0.3079590  
C     1.6945040    2.3778020   -0.3840540  
C     2.4910080    1.2038650   -0.5136010  
N     1.6397770    0.1285330   -0.5166270  
C     3.9020770    1.2132130   -0.6007000  
C     4.4873430    2.4797380   -0.5477280  
O     5.8406300    2.6112120   -0.6429920  
C     3.7055200    3.6654250   -0.4071200  
O     4.4676930    4.8169210   -0.3717330  
C     2.3312840    3.6380150   -0.3299740  
H    -0.5072180    2.5921400   -0.1060020  
H     1.8965200   -0.8502840   -0.4700240  
H     6.0377060    3.5645470   -0.6301500  
H     3.8865200    5.5913480   -0.3447520  
H     1.7594020    4.5569300   -0.2221830  
C    -3.9728000    1.1039800   -1.0804360  
C    -4.4020090   -0.1510140   -0.7554450  
C    -3.2339330   -0.9423550   -0.4073440  
C    -2.0906620   -0.0349470   -0.5409090  
N    -2.6058970    1.2044110   -0.8996710  
C    -0.7722720   -0.3779090   -0.3350620  
C    -0.5395760   -1.8227020   -0.0777580  
O     0.5748980   -2.3264710   -0.0637490  
C    -1.7681270   -2.7784400    0.1779350  
O    -1.5292350   -3.9286740    0.5161770  
C    -3.1017390   -2.2484770   -0.0269550  
H    -3.9488260   -2.9085640    0.1266550  
H    -4.5507410    1.9562800   -1.4109380  
H    -2.0330350    1.9351310   -1.2974830  
C    -6.2151970   -1.6961590   -1.4845420  
C    -7.5341890   -1.9091600   -1.2590590  
C    -7.9783890   -0.9078660   -0.3123620  
C    -6.7865930   -0.0823780    0.0053170  
N    -5.7334500   -0.6065790   -0.7433230  
C    -6.7901610    0.9641650    0.8686240  
C    -8.0442440    1.3154660    1.5308470  
O    -8.1405010    2.2420060    2.3211260  
C    -9.3220050    0.4608510    1.2009250  
O   -10.3809360    0.7470050    1.7368920  
C    -9.1857530   -0.6509790    0.2558450  
H    -8.1437600   -2.6813680   -1.7054770  
H    -5.9076790    1.5518160    1.0972180  
H   -10.0716850   -1.2408600    0.0410320  
H    -5.5305980   -2.2276990   -2.1319730  
