62


C    -1.8904670    3.7014450    0.1642750  
C    -1.5641190    5.0204830    0.1768390  
C    -0.1541970    5.1256400   -0.1030850  
C     0.3415000    3.8125560   -0.2802360  
N    -0.7426820    2.9333330   -0.1001730  
C     1.6715750    3.5585680   -0.6361490  
C     2.5226670    4.6498940   -0.7624880  
O     3.8257730    4.4462520   -1.0984100  
C     2.0469680    5.9691960   -0.5559580  
O     3.0102040    6.9407620   -0.7153200  
C     0.7219040    6.2154710   -0.2397610  
H    -2.2456480    5.8354140    0.3783680  
H     2.0609860    2.5716010   -0.8556450  
H     4.2507030    5.3188630   -1.1676620  
H     2.6144580    7.8186990   -0.6089790  
H     0.3659630    7.2349100   -0.1081440  
H    -2.8258850    3.2038020    0.3711230  
C    -0.7452410    1.5575680   -0.1332470  
C    -1.7839660    0.7086840   -0.4496760  
C    -1.3044060   -0.6273490   -0.2938240  
C     0.1019020   -0.5246480    0.1392500  
N     0.3837540    0.8350100    0.2062400  
C     0.9568220   -1.5599640    0.4034510  
C     0.4093780   -2.9056060    0.1349080  
O     1.0655200   -3.9280490    0.2371610  
C    -1.0898870   -3.0591290   -0.3299430  
O    -1.5017580   -4.1893980   -0.5585480  
C    -1.8995890   -1.8576540   -0.4847880  
H    -2.7562900    1.0077300   -0.8059030  
H     1.2341420    1.2134920    0.5934350  
C     2.6447950   -0.4693370    1.9303790  
C     2.3116260   -1.3651400    0.9253640  
C     3.5528260   -1.9967770    0.5225990  
C     4.5845400   -1.4267080    1.3086980  
N     3.9993540   -0.5038620    2.1561370  
C     5.9328290   -1.7821830    1.1764090  
C     6.2459500   -2.7421880    0.2285600  
O     7.5383070   -3.1391320    0.0597000  
C     5.2253410   -3.3259380   -0.5706330  
O     5.6927690   -4.2690150   -1.4651330  
C     3.8992290   -2.9655460   -0.4404780  
H     4.4811930    0.0115260    2.8764040  
H     6.7198420   -1.3452900    1.7823390  
H     7.5372050   -3.8352380   -0.6204730  
H     4.9422040   -4.7335580   -1.8648130  
H     3.1359500   -3.4489750   -1.0410700  
H     1.9995130    0.1329450    2.5557300  
C    -3.7270570   -2.8457590   -1.8595960  
C    -5.0792110   -2.8237620   -1.9474510  
C    -5.5669990   -1.9433960   -0.9110520  
C    -4.3640840   -1.4475860   -0.1933410  
N    -3.2605210   -2.0060510   -0.8350820  
C    -4.4149650   -0.6328510    0.8933200  
C    -5.7181830   -0.1690280    1.3595820  
O    -5.8500450    0.5884970    2.3106780  
C    -6.9999650   -0.6575080    0.5930070  
O    -8.0966230   -0.2677460    0.9649480  
C    -6.8191160   -1.5674030   -0.5383210  
H    -5.6825090   -3.3706990   -2.6574240  
H    -3.5356840   -0.3025920    1.4327460  
H    -7.7106710   -1.9260080   -1.0439850  
H    -3.0083810   -3.3972520   -2.4461840  
