62


C    -1.8193380   -1.8993420    0.1629830  
C    -1.0673740   -0.7682890   -0.1126080  
C    -2.0213060    0.3017870   -0.3292030  
C    -3.3150350   -0.2519560   -0.1588670  
N    -3.1512530   -1.5955480    0.1249560  
C    -4.5176490    0.4711020   -0.3317290  
C    -4.3443860    1.8004390   -0.7161600  
O    -5.4484890    2.5990950   -0.9362640  
C    -3.0656840    2.3732420   -0.9152500  
O    -3.1104150    3.6962690   -1.3080070  
C    -1.9049170    1.6474630   -0.7286460  
H    -3.9059570   -2.2072900    0.4029780  
H    -5.1192930    3.4839370   -1.1792970  
H    -2.2113730    4.0421970   -1.4095470  
H    -0.9358740    2.1025360   -0.9151080  
H    -1.4816650   -2.8940460    0.4174190  
C     1.2303720   -1.6844480   -0.6732230  
C     0.3805980   -0.7382550   -0.1839720  
C     1.2863330    0.3006170    0.3650380  
C     2.6560690   -0.2048800    0.0837370  
N     2.6023710   -1.3629350   -0.5105680  
C     3.8544860    0.5438040    0.4715820  
C     3.6182210    1.7123220    1.1557370  
O     4.5888760    2.5430370    1.6004510  
C     2.2557240    2.2064290    1.4877270  
O     2.1702390    3.2747850    2.1029470  
C     1.0790840    1.4298810    1.0658820  
H     4.1030450    3.2776060    2.0450990  
H     0.1006010    1.8149340    1.3342460  
H     0.9701770   -2.6105760   -1.1700970  
C     5.1871740    0.0588890    0.1544550  
C     5.5613880   -1.0789960   -0.5234670  
C     6.9970290   -1.1079580   -0.5788350  
C     7.4667070    0.1124950    0.1240380  
N     6.3345440    0.7696330    0.5404360  
C     8.7737200    0.4482680    0.2845780  
C     9.7919010   -0.4393010   -0.2636660  
O    10.9913460   -0.2216650   -0.1696470  
C     9.3170450   -1.7399490   -1.0123050  
O    10.1570690   -2.4958890   -1.4778910  
C     7.8793510   -1.9935980   -1.1216600  
H     4.8785800   -1.8084170   -0.9271710  
H     9.0993490    1.3457110    0.8015190  
H     7.5623410   -2.8934420   -1.6401590  
H     6.3046340    1.6403710    1.0490380  
C    -6.2440690   -2.0702040    2.9618820  
C    -5.4422880   -1.2431580    2.2170700  
C    -6.1406750   -0.9617360    0.9882170  
C    -7.3810970   -1.6503340    1.0607680  
N    -7.4086290   -2.3242330    2.2649960  
C    -8.3557180   -1.5810240    0.0588010  
C    -8.0745150   -0.7743000   -1.0306860  
O    -8.9814130   -0.6376440   -2.0355110  
C    -6.8403990   -0.0746710   -1.1351370  
O    -6.7114150    0.6506000   -2.3012560  
C    -5.8453820   -0.1709330   -0.1600880  
H    -4.4841810   -0.8506870    2.5263930  
H    -8.1813320   -2.8770840    2.6015330  
H    -9.3046030   -2.1041110    0.1184690  
H    -8.5763350   -0.0159210   -2.6701500  
H    -6.3503610    1.5322570   -2.0672500  
H    -6.0855950   -2.4955440    3.9428080  
