62


C     4.9462700    2.0925160   -0.9593710  
C     6.2331700    1.9666410   -1.4033530  
C     6.6746250    0.6441800   -1.0602140  
C     5.5920110    0.0024810   -0.4041810  
N     4.5349080    0.9093790   -0.3466240  
C     5.6622780   -1.3244860    0.0496340  
C     6.8556830   -2.0055380   -0.1475750  
O     6.9753350   -3.2965340    0.2740690  
C     7.9525340   -1.3737460   -0.7903680  
O     9.0673760   -2.1799670   -0.9086480  
C     7.8725470   -0.0713980   -1.2494770  
H     6.8054850    2.7309170   -1.9111060  
H     4.8226340   -1.8377930    0.5060630  
H     7.8689450   -3.5975000    0.0345250  
H     9.7660100   -1.7027140   -1.3802010  
H     8.7226580    0.3880810   -1.7499760  
H     4.2687910    2.9332850   -0.9964800  
C     0.4032580    1.1823190   -1.9369930  
C     1.7619170    1.1683180   -1.8140750  
C     2.0712210    0.8618570   -0.4415490  
C     0.8493350    0.6917580    0.2483800  
N    -0.1612120    0.8951500   -0.6901460  
C     0.7617640    0.3534690    1.6007600  
C     1.9589930    0.1886230    2.2820640  
O     1.9472580   -0.1395110    3.6011000  
C     3.2080050    0.3748720    1.6301890  
O     4.2955210    0.2254880    2.4547650  
C     3.2769140    0.7081310    0.2796570  
H     2.4717680    1.3501440   -2.6081490  
H    -0.1808850    0.2215060    2.1197480  
H     2.8749210   -0.2184410    3.8872070  
H     5.1088140    0.1351820    1.9283010  
H    -0.2384310    1.3690660   -2.7855210  
C    -2.2427930   -0.3683040   -0.5288670  
C    -3.5664580   -0.1410820   -0.2752480  
C    -3.6950940    1.2964900    0.0070710  
C    -2.3344250    1.8698020   -0.1017690  
N    -1.5004290    0.8014950   -0.4356510  
C    -2.0051460    3.1679840    0.0891050  
C    -3.0744490    4.0981130    0.4505650  
O    -2.8872940    5.2889190    0.6386730  
C    -4.5250430    3.5179740    0.6066030  
O    -5.4323390    4.2663120    0.9291790  
C    -4.7416750    2.0850370    0.3559220  
H    -0.9913600    3.5421130   -0.0031420  
H    -5.7563100    1.7159830    0.4415760  
H    -1.7440520   -1.2881450   -0.8020460  
C    -3.7284380   -4.3344890    1.2391520  
C    -3.3098400   -3.0652830    1.0133100  
C    -4.3885240   -2.4361000    0.2565670  
C    -5.4093800   -3.5152140    0.1281070  
N    -5.0176610   -4.6218530    0.6956420  
C    -6.6654240   -3.3007470   -0.5441780  
C    -6.9014950   -2.0725420   -1.0571000  
O    -8.0324770   -1.7272920   -1.6958930  
C    -5.8908650   -0.9633420   -0.9602840  
O    -6.1843250    0.1078980   -1.4857750  
C    -4.5814180   -1.1940210   -0.2699650  
H    -2.3933920   -2.6013450    1.3485760  
H    -7.3869930   -4.1067180   -0.6172730  
H    -7.9099490   -0.7922020   -1.9679260  
H    -3.2106890   -5.1187420    1.7784140  
