60


C     3.3386080   -2.8524380   -1.7904650  
C     3.4745260   -1.5042190   -1.5606840  
C     4.0623820   -1.3474760   -0.2556170  
C     4.2832190   -2.6579500    0.2462470  
N     3.8188380   -3.5472120   -0.7025150  
C     4.9064870   -2.9110360    1.4724730  
C     5.3380310   -1.8101250    2.1944360  
O     5.9749510   -1.9783650    3.3831370  
C     5.1244040   -0.4835640    1.7270810  
O     5.5829880    0.4823450    2.5879950  
C     4.4517380   -0.2189130    0.5290600  
H     3.2245680   -0.7204100   -2.2614240  
H     3.8324640   -4.5515340   -0.6148310  
H     5.0843450   -3.9124930    1.8505030  
H     6.2151940   -1.0801670    3.6825630  
H     5.9920490    1.1919130    2.0374050  
H     2.9217860   -3.3765700   -2.6383200  
C     0.6049220    1.4263750   -0.7298900  
C     0.9661750    2.7153020   -1.0181750  
C     2.3774780    2.8277320   -0.7619400  
C     2.8265090    1.4935290   -0.3001450  
N     1.7073580    0.6820910   -0.3262620  
C     4.0946420    1.1557140    0.1038070  
C     5.0427190    2.2777650    0.1237750  
O     6.1562380    2.2142960    0.6431320  
C     4.6418060    3.6577180   -0.5182270  
O     5.5108790    4.5078340   -0.6372590  
C     3.2531460    3.8636170   -0.8944190  
H     0.3248260    3.4878040   -1.4153040  
H     2.9644930    4.8386290   -1.2730500  
H     1.6859140   -0.2465840    0.0698000  
C    -1.8358060    1.5885520   -0.5400900  
C    -2.9478190    0.8163330   -0.6523380  
C    -2.4887440   -0.5305370   -0.9924560  
C    -1.0113530   -0.4698840   -1.0709030  
N    -0.6571320    0.8563660   -0.7672510  
C    -0.2270070   -1.5143350   -1.4308370  
C    -0.8689200   -2.7969190   -1.7336680  
O    -0.2331730   -3.7812980   -2.0753500  
C    -2.4292290   -2.8897070   -1.6303410  
O    -2.9828330   -3.9483160   -1.8720690  
C    -3.1671690   -1.6738830   -1.2607980  
H     0.8509780   -1.4674340   -1.5396980  
H    -4.2499180   -1.7337510   -1.2270560  
H    -1.7560560    2.6292890   -0.2593460  
C    -4.8975100    2.3456070   -1.1056460  
C    -4.3291130    1.2661540   -0.4910010  
C    -5.3591380    0.6950150    0.3762110  
C    -6.5657720    1.5395080    0.1978530  
N    -6.2093730    2.5273530   -0.7042320  
C    -7.7489050    1.3364170    0.8281470  
C    -7.8533840    0.2185860    1.7647420  
O    -8.8769180   -0.0441160    2.3749800  
C    -6.5787150   -0.6716090    1.9944010  
O    -6.6349920   -1.5959720    2.7877180  
C    -5.3585920   -0.3523900    1.2406050  
H    -8.6208760    1.9662160    0.6809820  
H    -4.4887010   -0.9786090    1.4096910  
H    -4.4556880    3.0143540   -1.8329620  
H    -6.8380290    3.2242760   -1.0726070  
