64


C    -5.2574010    0.5179060    0.5430280  
C    -6.1078900    0.7265760    1.6065510  
C    -7.4071900    0.2525210    1.2285800  
C    -7.2966750   -0.2467070   -0.0955970  
N    -5.9731880   -0.1108180   -0.4785300  
C    -8.3843780   -0.7790140   -0.7964340  
C    -9.6090980   -0.8165370   -0.1462370  
O   -10.7042500   -1.3221770   -0.7865770  
C    -9.7358940   -0.3370450    1.1840700  
O   -11.0149330   -0.4507110    1.6977590  
C    -8.6587720    0.1892100    1.8735070  
H    -5.8174790    1.1275960    2.5682640  
H    -5.6565400   -0.1322080   -1.4367280  
H    -8.3058400   -1.1559570   -1.8112440  
H   -11.4527800   -1.2568630   -0.1688550  
H   -11.0353240   -0.0872840    2.5952300  
H    -8.7821800    0.5521360    2.8921530  
C    -3.1928410    1.9412460    0.8645130  
C    -3.8456370    0.8290380    0.3824420  
C    -2.8403210    0.0351890   -0.2913670  
C    -1.6120910    0.7350800   -0.1949180  
N    -1.8599480    1.8928830    0.5076340  
C    -0.3908070    0.2343110   -0.7145250  
C    -0.4577750   -1.0444220   -1.2906990  
O     0.6688190   -1.6331820   -1.7944960  
C    -1.6783490   -1.7540140   -1.3835900  
O    -1.5506190   -2.9856400   -1.9947960  
C    -2.8642070   -1.2312250   -0.9040960  
H    -1.1419790    2.5119210    0.8522290  
H     0.4136700   -2.5169170   -2.1164260  
H    -2.3786840   -3.4819370   -1.9150350  
H    -3.7873270   -1.8019100   -0.9692910  
H    -3.5871220    2.7836100    1.4141100  
C     0.8457800    1.0014070   -0.6427270  
C     1.0259780    2.3644140   -0.5350880  
C     2.4378640    2.6311550   -0.4845510  
C     3.0971820    1.3094560   -0.5716040  
N     2.0930370    0.3749930   -0.6562170  
C     4.4497190    1.1160530   -0.5739400  
C     5.3097810    2.3100140   -0.4867360  
O     6.5265510    2.2559800   -0.5282340  
C     4.6141900    3.7178770   -0.3424770  
O     5.3297020    4.6998250   -0.2066190  
C     3.1598630    3.7834670   -0.3727000  
H     0.2534100    3.1171930   -0.5848640  
H     2.6954800    4.7618220   -0.2984580  
H     2.2207730   -0.6120930   -0.8295150  
C     4.7125450   -1.0247610   -1.8106770  
C     5.3867060   -2.2038740   -1.6597060  
C     6.1519510   -2.1046320   -0.4482360  
C     5.9046360   -0.8206430    0.0993780  
N     5.0122440   -0.1654880   -0.7495200  
C     6.4688580   -0.3969810    1.3080940  
C     7.3106340   -1.2802010    1.9651790  
O     7.8929050   -0.9140780    3.1447550  
C     7.5771080   -2.5667050    1.4265490  
O     8.4330050   -3.3317790    2.1983110  
C     7.0106570   -2.9856150    0.2375060  
H     5.3587520   -3.0415890   -2.3436080  
H     6.2977840    0.5881790    1.7242500  
H     8.4689490   -1.6476680    3.4200110  
H     8.6475800   -4.1490090    1.7250770  
H     7.2210670   -3.9791240   -0.1541350  
H     4.0685640   -0.6820460   -2.6085070  
