62


C    -3.6828430   -0.2259110   -0.2561990  
C    -2.3727470    0.2282910   -0.3501030  
C    -2.4151530    1.6546920   -0.3819020  
C    -3.7834670    2.0354030   -0.3063880  
N    -4.5213480    0.8778850   -0.2454170  
C    -4.2044360    3.3698910   -0.3088210  
C    -3.2313830    4.3558980   -0.3805020  
O    -3.5921390    5.6711480   -0.3766960  
C    -1.8587960    4.0098580   -0.4544890  
O    -0.9922700    5.0764490   -0.5296650  
C    -1.4476660    2.6804440   -0.4631250  
H    -1.4840800   -0.3827850   -0.2968600  
H    -5.5118690    0.8032130   -0.0615480  
H    -5.2498700    3.6540450   -0.2501160  
H    -2.7754790    6.1992510   -0.3879950  
H    -0.0895350    4.7555280   -0.3716870  
C     0.6684570    2.3654340   -1.7703210  
C     1.9262780    1.8797690   -1.5949580  
C     2.0548300    1.5261800   -0.2006970  
C     0.7570600    1.8511250    0.4322260  
N    -0.0487190    2.3948590   -0.5713480  
C     0.4471070    1.6274510    1.7341510  
C     1.4713720    1.0431460    2.5922930  
O     1.2881670    0.7656210    3.7659870  
C     2.8920020    0.7573470    1.9771590  
O     3.7884860    0.3764210    2.7072930  
C     3.0849060    0.9928470    0.5280300  
H     2.6777810    1.7612830   -2.3613080  
H    -0.5257780    1.8503970    2.1575650  
H     0.1817440    2.7080440   -2.6741210  
C     5.1211950    1.7529170   -0.6896040  
C     6.3051940    1.2591910   -1.1250830  
C     6.3521590   -0.1396190   -0.7568550  
C     5.0781870   -0.4249690   -0.0526310  
N     4.3575400    0.7744900   -0.0371180  
C     4.7243580   -1.6481780    0.4094370  
C     5.6604450   -2.7579460    0.2281650  
O     5.4159640   -3.8958410    0.5974950  
C     7.0297370   -2.4688310   -0.4864420  
O     7.8253740   -3.3827780   -0.6373730  
C     7.2850960   -1.1065460   -0.9590510  
H     7.0789080    1.8111750   -1.6391080  
H     3.7907510   -1.8502810    0.9210860  
H     8.2222500   -0.9176260   -1.4738910  
H     4.7263340    2.7575450   -0.7597320  
C    -1.9283740   -4.0500500   -1.6051490  
C    -2.9153820   -4.8778570   -1.1430000  
C    -3.9148830   -4.0439950   -0.5371850  
C    -3.4645050   -2.7031040   -0.6505330  
N    -2.2425300   -2.7392820   -1.2907690  
C    -4.2022700   -1.5898550   -0.1784080  
C    -5.4536790   -1.8944300    0.3741310  
O    -6.2718170   -0.8887990    0.8319900  
C    -5.9130860   -3.2269480    0.4950120  
O    -7.1635700   -3.3256550    1.0794720  
C    -5.1616490   -4.3022170    0.0625810  
H    -2.9323530   -5.9560070   -1.2217180  
H    -1.7770570   -1.9252050   -1.6606940  
H    -7.0584540   -1.3165800    1.2151080  
H    -7.3764700   -4.2571360    1.2370250  
H    -5.5363720   -5.3181310    0.1663490  
H    -1.0090130   -4.2814770   -2.1242500  
