62


C     3.4586030   -0.4494300   -0.1253160  
C     4.0569960    0.8052950   -0.2782310  
C     5.4627560    0.6282210   -0.2002450  
C     5.6945530   -0.7653860    0.0025200  
N     4.4734450   -1.3828850    0.0466940  
C     6.9816930   -1.3047910    0.1215890  
C     8.0515890   -0.4291950    0.0324410  
O     9.3258790   -0.8984860    0.1390910  
C     7.8395470    0.9664200   -0.1715050  
O     9.0102740    1.6980720   -0.2361390  
C     6.5733510    1.4990590   -0.2871920  
H     3.5426830    1.7299870   -0.4910880  
H     4.2707180   -2.3744490    0.0873030  
H     7.1634580   -2.3632360    0.2747160  
H     9.9239750   -0.1370760    0.0435250  
H     8.8007080    2.6289430   -0.4022530  
H     6.4359180    2.5674560   -0.4425890  
C    -0.3757030    1.8169910    0.3598930  
C     0.9401730    1.4187720    0.3523350  
C     1.0019610    0.0368100   -0.0186880  
C    -0.3907310   -0.3831490   -0.2314280  
N    -1.1750630    0.7493400   -0.0797590  
C    -0.8278240   -1.6580280   -0.4990860  
C     0.2106310   -2.6814430   -0.5740710  
O    -0.0117810   -3.8576350   -0.8213850  
C     1.7096770   -2.2665410   -0.3303690  
O     2.5191350   -3.1871740   -0.2731140  
C     2.0684820   -0.8445620   -0.1664020  
H     1.7770840    2.0523490    0.5971680  
H    -2.1547520    0.6755570    0.1615790  
C    -0.4121780    3.9565400    1.6607980  
C    -0.9666590    3.0735000    0.7483180  
C    -2.2204650    3.6628210    0.3189300  
C    -2.3569820    4.8903850    1.0127960  
N    -1.2380270    5.0367880    1.8155750  
C    -3.4480630    5.7483520    0.8396330  
C    -4.4265250    5.3628510   -0.0631920  
O    -5.5096230    6.1606190   -0.2709260  
C    -4.3007430    4.1454170   -0.7844900  
O    -5.3440930    3.9081600   -1.6557670  
C    -3.2192820    3.3007120   -0.6074560  
H    -1.0758790    5.8024570    2.4519860  
H    -3.5481360    6.6893770    1.3703810  
H    -6.0614990    5.7350760   -0.9498000  
H    -5.1507180    3.1272570   -2.1947200  
H    -3.1381970    2.3892120   -1.1949070  
H     0.4994720    3.8640850    2.2332790  
C    -3.0802660   -1.3676570   -1.6134600  
C    -2.2344130   -1.9994490   -0.7477840  
C    -3.0222840   -3.0663250   -0.1186300  
C    -4.3845440   -2.9811460   -0.6983300  
N    -4.3599260   -1.9141120   -1.5771860  
C    -5.4135880   -3.8099270   -0.3867390  
C    -5.1862600   -4.8510960    0.6087830  
O    -6.0493480   -5.6414220    0.9603150  
C    -3.7594560   -4.9404000    1.2629890  
O    -3.5544860   -5.7832320    2.1210120  
C    -2.7221950   -3.9984950    0.8192210  
H    -6.3998810   -3.7311140   -0.8340210  
H    -1.7327770   -4.1023690    1.2491150  
H    -2.8612860   -0.5506940   -2.2889630  
H    -5.0926530   -1.7087020   -2.2384690  
