62


C     5.6580020   -1.7030940    1.3233360  
C     6.9571690   -1.3111060    1.4850250  
C     7.1194280   -0.0696200    0.7806010  
C     5.8684260    0.2461480    0.1943810  
N     4.9732630   -0.7670120    0.5400990  
C     5.6564890    1.4159530   -0.5438560  
C     6.7338720    2.2724230   -0.7066670  
O     6.5836450    3.4234170   -1.4239180  
C     7.9975920    1.9676120   -0.1342520  
O     8.9684130    2.9197180   -0.3824720  
C     8.1999570    0.8161630    0.6028570  
H     7.7206230   -1.8571450    2.0227840  
H     4.7087970    1.6546450   -1.0109170  
H     7.4543800    3.8553940   -1.4603210  
H     9.8247330    2.5979620   -0.0642880  
H     9.1737290    0.6047660    1.0403970  
H     5.1527590   -2.6055160    1.6383340  
C     1.6195580   -1.2157070    3.2028450  
C     0.6154940   -1.3137720    2.2910740  
C     1.2061710   -1.1598130    0.9747250  
C     2.6526080   -0.9714910    1.2058710  
N     2.8383230   -1.0052580    2.5731370  
C     3.6006690   -0.8313780    0.2300970  
C     3.1387050   -0.8638450   -1.1642350  
O     3.8906880   -0.8252410   -2.1216470  
C     1.5876410   -0.9338440   -1.4239120  
O     1.1943550   -0.7185530   -2.5548710  
C     0.6637920   -1.1713520   -0.2857260  
H    -0.4256310   -1.5029950    2.5049470  
H     1.5760910   -1.2847490    4.2817290  
H     3.7383720   -0.9240540    3.0222150  
C    -2.8982180    1.0908600    1.0176410  
C    -3.8772810    0.3977970    0.3681430  
C    -3.1994280   -0.6762630   -0.3587800  
C    -1.7554280   -0.5440660   -0.0612790  
N    -1.6412280    0.5437770    0.7785440  
C    -0.7671710   -1.3409810   -0.5723060  
C    -1.1971690   -2.4375550   -1.4651160  
O    -0.4248980   -3.2764210   -1.8952650  
C    -2.7208220   -2.5593730   -1.8281200  
O    -3.0680130   -3.4270820   -2.6131320  
C    -3.6651280   -1.6320190   -1.2026440  
H    -4.7176470   -1.7388830   -1.4389850  
H    -2.9977060    1.9468460    1.6726410  
H    -0.7705490    0.8840420    1.1554040  
C    -6.0085630    4.1273480   -0.6379740  
C    -7.2823760    3.6923430   -0.3836830  
C    -7.1848780    2.3243260    0.0427720  
C    -5.8075240    1.9851480    0.0342020  
N    -5.1120030    3.1080730   -0.3678240  
C    -5.3187540    0.7055430    0.3748750  
C    -6.2810130   -0.2423750    0.7279570  
O    -5.8918640   -1.5021100    1.0868980  
C    -7.6622120    0.0811640    0.7427100  
O    -8.4703600   -0.9737950    1.1262710  
C    -8.1231480    1.3416420    0.4144260  
H    -8.1863590    4.2768680   -0.4861720  
H    -4.1297370    3.1166290   -0.5955170  
H    -6.7018160   -2.0076420    1.2759110  
H    -9.3994160   -0.7051780    1.0755080  
H    -9.1884410    1.5625090    0.4361260  
H    -5.6551670    5.0890660   -0.9823330  
