60


C     6.3195600   -2.9667720    1.5148180  
C     5.2592250   -2.2035050    1.0985900  
C     5.7962420   -1.0319640    0.4618080  
C     7.2107040   -1.1563970    0.5145570  
N     7.4990950   -2.3320740    1.1781690  
C     8.0826980   -0.2274080   -0.0607180  
C     7.5068930    0.8391760   -0.7328850  
O     8.2913450    1.7721970   -1.3367340  
C     6.0969820    0.9901500   -0.8156110  
O     5.7047110    2.1157650   -1.5021420  
C     5.2150490    0.0961210   -0.1956290  
H     4.2170290   -2.4550940    1.2271510  
H     8.4241570   -2.7084380    1.3128600  
H     9.1627790   -0.3275810   -0.0246410  
H     7.6705850    2.3856950   -1.7760660  
H     4.9566550    1.8448330   -2.0850660  
H     6.3334110   -3.9176890    2.0285150  
C     2.2021760    0.0088210    3.0511780  
C     3.3483800    0.0578380    2.3231740  
C     2.9758700    0.1998450    0.9340030  
C     1.4964560    0.2402430    0.9125720  
N     1.0905970    0.0987350    2.2230540  
C     0.7133770    0.3377030   -0.2086470  
C     1.4408570    0.5237390   -1.4740410  
O     0.8903220    0.7219330   -2.5411320  
C     3.0152220    0.5785870   -1.4482330  
O     3.5583510    0.9031630   -2.5029380  
C     3.7482930    0.2876250   -0.2076460  
H     4.3551260   -0.0005270    2.7045030  
H     2.0702410   -0.0841110    4.1209850  
H     0.1301240    0.1446950    2.5262870  
C    -2.4810820    2.5676230    1.9556430  
C    -1.2900420    2.1362340    1.4576030  
C    -1.5764130    1.0378900    0.5594350  
C    -3.0483250    0.8575410    0.6005330  
N    -3.5307590    1.7870680    1.5016700  
C    -3.7588400   -0.0716210   -0.1238210  
C    -2.9635730   -0.7806580   -1.1566800  
O    -3.4650830   -1.3603560   -2.1029470  
C    -1.4033930   -0.7673760   -1.0572330  
O    -0.7860570   -1.6412280   -1.6377080  
C    -0.7499300    0.2616240   -0.2166120  
H    -0.3192890    2.5681860    1.6501570  
H    -2.6806200    3.3965120    2.6226380  
H    -4.5005860    2.1069080    1.3990730  
C    -7.3858530    2.5193230    0.3860910  
C    -8.3724600    1.6366790    0.1198790  
C    -7.7021850    0.3557290   -0.0648500  
C    -6.2406500    0.6668290    0.0942610  
N    -6.0823080    1.9313820    0.3813220  
C    -5.2039980   -0.3468600   -0.0506040  
C    -5.6742490   -1.6342150   -0.1605590  
O    -4.8818450   -2.7079890   -0.1552530  
C    -7.1303680   -1.9764570   -0.2897960  
O    -7.4303130   -3.1637550   -0.4059120  
C    -8.1376520   -0.9020720   -0.2573740  
H    -9.4369070    1.8168620    0.0674990  
H    -5.4739390   -3.4795810   -0.3016660  
H    -9.1802800   -1.1871170   -0.3577180  
H    -7.4701360    3.5787590    0.5948660  
