60


C     3.4312700   -0.6625180    1.4233760  
C     4.6934030   -1.1711620    1.4064370  
C     4.6841820   -2.3374820    0.5632100  
C     3.3586890   -2.5065030    0.0944850  
N     2.5853560   -1.4688720    0.6441240  
C     3.0162240   -3.5043290   -0.8227380  
C     4.0194930   -4.3707500   -1.2385630  
O     3.7237340   -5.3672830   -2.1266130  
C     5.3421880   -4.2311580   -0.7575380  
O     6.2291490   -5.1652320   -1.2588130  
C     5.6834620   -3.2240320    0.1309990  
H     5.5443790   -0.7556970    1.9287570  
H     2.0138130   -3.6388420   -1.2047950  
H     4.5470700   -5.8583010   -2.2899430  
H     7.1083490   -5.0068760   -0.8847160  
H     6.7110020   -3.1149120    0.4726590  
H     3.0380660    0.2188690    1.9034830  
C     0.5152850    2.2765480    0.1375490  
C    -0.7698420    1.8273950   -0.0885520  
C    -0.7161650    0.3916710    0.0114680  
C     0.7134900    0.1088880    0.2863790  
N     1.4247780    1.1959560    0.3450600  
C     1.2170890   -1.2486740    0.4701560  
C     0.2730850   -2.2388290    0.4982320  
O     0.5573340   -3.5286830    0.7683110  
C    -1.1648780   -1.9826180    0.2422540  
O    -1.9185360   -2.9627610    0.2995990  
C    -1.6600990   -0.6059480   -0.0599320  
H    -1.6685290    2.4238470   -0.1626170  
H    -0.3065320   -3.9938190    0.7071400  
C    -0.6901730    5.8391230   -2.1124950  
C     0.1808660    6.7418370   -1.5946490  
C     0.9836230    6.0475250   -0.6093810  
C     0.4940010    4.6532750   -0.5864420  
N    -0.5357070    4.5980930   -1.4979180  
C     1.0170850    3.6336200    0.1775830  
C     2.1200100    4.0123240    1.0992390  
O     2.5719250    3.2673700    1.9480040  
C     2.6896100    5.4776760    1.0341560  
O     3.6665330    5.7534180    1.7119070  
C     2.0224580    6.4511420    0.1725290  
H     0.2665470    7.7837150   -1.8665360  
H     2.4075700    7.4661780    0.1604680  
H    -1.4432170    5.9674520   -2.8785250  
H    -0.9447250    3.7308900   -1.8150800  
C    -3.4598640    0.5682500   -1.3525280  
C    -3.0344180   -0.3862570   -0.4569090  
C    -4.2956530   -1.0426450   -0.0299740  
C    -5.3542840   -0.3099000   -0.7832450  
N    -4.8434150    0.6163620   -1.5597700  
C    -6.7491810   -0.6137290   -0.6426780  
C    -7.0979650   -1.5939090    0.2268770  
O    -8.3575540   -1.9816890    0.4635210  
C    -6.0601270   -2.3409420    1.0189170  
O    -6.4511700   -3.2098820    1.7945490  
C    -4.6276550   -2.0135360    0.8424650  
H    -7.4834710   -0.0594570   -1.2163560  
H    -8.2918730   -2.6968350    1.1348300  
H    -3.9136890   -2.5956440    1.4104870  
H    -2.8244200    1.2304750   -1.9275810  
