62


C    -2.8661470    5.0994290   -0.9581110  
C    -2.0467180    6.1479670   -0.6418180  
C    -0.7913760    5.5880150   -0.2300490  
C    -0.9173810    4.1758900   -0.3005770  
N    -2.1955740    3.9085470   -0.7354530  
C     0.1450840    3.2863910    0.0151980  
C     1.3673240    3.9010670    0.3480270  
O     2.4722250    3.1427830    0.6275040  
C     1.4965520    5.3060730    0.4275970  
O     2.7622590    5.7183520    0.7954910  
C     0.4370880    6.1517070    0.1582760  
H    -2.3004190    7.1971100   -0.6987920  
H    -2.5149740    3.0021320   -1.0404750  
H     3.1908310    3.7606340    0.8559640  
H     2.7908850    6.6841910    0.8624150  
H     0.5605700    7.2302680    0.2264860  
H    -3.8849730    5.0907580   -1.3181550  
C    -0.0260510    1.8458730    0.0064220  
C    -1.1947910    1.0895590    0.0714400  
C    -0.8523480   -0.2877990    0.0006650  
C     0.6106610   -0.3276610   -0.0737890  
N     1.0440680    0.9790990   -0.0722920  
C     1.3983460   -1.4616710   -0.1201260  
C     0.6367550   -2.7208390   -0.2350790  
O     1.1493650   -3.7966840   -0.5143390  
C    -0.9108770   -2.7196180    0.0203700  
O    -1.4133100   -3.8308700    0.1848320  
C    -1.6369220   -1.4546510    0.0264520  
H    -2.1732680    1.4811970    0.2885680  
H     1.9999240    1.2799550   -0.1865350  
C    -3.0820900   -1.4522540    0.0637520  
C    -3.9974460   -0.4398910   -0.1886670  
C    -5.3154970   -0.9785850   -0.0602840  
C    -5.1398340   -2.4099810    0.2915150  
N    -3.7844210   -2.6240900    0.3589490  
C    -6.1659190   -3.2771150    0.4924740  
C    -7.5320630   -2.7829090    0.3584460  
O    -8.5159050   -3.4911880    0.5209370  
C    -7.7422090   -1.2682660   -0.0130180  
O    -8.8846660   -0.8416450   -0.1277450  
C    -6.5617300   -0.4359930   -0.2053780  
H    -3.7730090    0.5656030   -0.5018070  
H    -6.0195240   -4.3222100    0.7472450  
H    -6.7187180    0.6074450   -0.4632560  
H    -3.3002050   -3.5062900    0.4761170  
C     2.8396790   -1.4700320   -0.0846200  
C     3.7535200   -0.4970240    0.3421250  
C     5.0557030   -1.0413890    0.2068230  
C     4.9027200   -2.3629610   -0.3112060  
N     3.5624160   -2.5878330   -0.4768000  
C     5.9934310   -3.2021860   -0.5688530  
C     7.2571600   -2.7051630   -0.2956830  
O     8.3527150   -3.4755460   -0.5234420  
C     7.4303250   -1.3865150    0.2269660  
O     8.7513260   -1.0529230    0.4405360  
C     6.3578280   -0.5596010    0.4782360  
H     3.5123170    0.4563950    0.7904170  
H     3.0979690   -3.4474180   -0.7443020  
H     5.8829230   -4.2070950   -0.9616850  
H     9.1351630   -2.9582840   -0.2636340  
H     8.8077600   -0.1628910    0.8187370  
H     6.5125870    0.4409880    0.8765040  
