60


C    -3.3329880   -2.4263540    1.6400690  
C    -4.3069740   -3.3792880    1.5991200  
C    -5.3169780   -2.9240480    0.6819150  
C    -4.9007720   -1.6639450    0.1884800  
N    -3.6777230   -1.3595990    0.7999850  
C    -5.6227730   -0.9597690   -0.7825160  
C    -6.8092010   -1.5226020   -1.2311080  
O    -7.5505450   -0.8718010   -2.1698770  
C    -7.2554060   -2.7727310   -0.7269230  
O    -8.4501760   -3.1965750   -1.2694660  
C    -6.5241050   -3.4757960    0.2129540  
H    -4.3163010   -4.2979610    2.1696160  
H    -5.2989540   -0.0104250   -1.1924080  
H    -8.3390230   -1.4134970   -2.3469220  
H    -8.7069100   -4.0437650   -0.8761200  
H    -6.8725360   -4.4413100    0.5735820  
H    -2.4291680   -2.3664070    2.2292160  
C    -1.5401930   -0.2808520    0.2976960  
C    -2.8698670   -0.2461040    0.5708390  
C    -3.2644230    1.1542590    0.6759180  
C    -2.0401810    1.9460110    0.4238100  
N    -0.9947110    1.0097060    0.2066810  
C    -2.0110680    3.2981490    0.4366140  
C    -3.2579620    4.0215890    0.7297040  
O    -3.3121480    5.2392190    0.7448390  
C    -4.5486420    3.1946780    1.0428210  
O    -5.5824420    3.7761130    1.3230830  
C    -4.4517990    1.7300400    0.9839720  
H    -1.1094270    3.8644740    0.2513590  
H    -5.3464010    1.1521290    1.1885490  
H    -0.9110840   -1.1453410    0.1537070  
C     0.3291010    1.2409890   -0.0628820  
C     1.3260060    0.2937600   -0.2578280  
C     2.5035720    1.0550900   -0.4784340  
C     2.0564110    2.4867070   -0.3983690  
N     0.7734720    2.5740230   -0.1523650  
C     2.9611470    3.5842730   -0.5554410  
C     4.2609100    3.2801500   -0.7912380  
O     5.2253460    4.1835730   -0.9444550  
C     4.7613100    1.8456300   -0.9194000  
O     5.9532990    1.7121570   -1.1996500  
C     3.8205100    0.7459530   -0.7230140  
H     1.2519960   -0.7817440   -0.2169370  
H     2.6081150    4.6059890   -0.4773840  
H     6.0427710    3.6634630   -1.1325090  
C     3.7067940   -1.4826940   -1.8188620  
C     4.3182580   -2.6904860   -1.7685900  
C     5.3486020   -2.6126950   -0.7549400  
C     5.2879460   -1.2348050   -0.2086350  
N     4.2675810   -0.5786880   -0.9046520  
C     6.0691250   -0.7845700    0.8025130  
C     7.0604990   -1.6952150    1.3754330  
O     7.8037930   -1.3726060    2.2888000  
C     7.1611580   -3.1497630    0.7899390  
O     7.9867610   -3.9205240    1.2532810  
C     6.2410110   -3.5239090   -0.2868840  
H     4.0895780   -3.5498280   -2.3824340  
H     6.0124330    0.2203580    1.2038590  
H     6.2991540   -4.5377750   -0.6711780  
H     2.9001490   -1.1428190   -2.4543660  
