60


C     0.8617460   -2.6711810   -2.2873370  
C     1.0939960   -3.8019930   -1.5441560  
C     2.0084530   -3.4401960   -0.4944520  
C     2.2985350   -2.0605170   -0.6561390  
N     1.5715040   -1.6160590   -1.7450800  
C     3.2200190   -1.3554540    0.1511320  
C     3.8185680   -2.0933460    1.1755390  
O     4.6714750   -1.4788030    2.0348900  
C     3.5240840   -3.4702720    1.3631490  
O     4.1958520   -4.0390120    2.4290250  
C     2.6395410   -4.1496260    0.5478690  
H     0.6921450   -4.7862020   -1.7460270  
H     1.6521720   -0.6931550   -2.1440030  
H     5.0791770   -2.1699380    2.5856250  
H     4.1499990   -5.0042800    2.3630030  
H     2.4465170   -5.2088970    0.7058520  
H     0.2513880   -2.5270160   -3.1677560  
C     0.8456290    2.4270100   -0.1206100  
C     1.2792390    1.1203740    0.0561210  
C     2.6905890    1.0777350   -0.1753900  
C     3.0917850    2.4671490   -0.5012390  
N     1.9383470    3.2166210   -0.4755870  
C     4.3674560    2.8633410   -0.7460700  
C     5.4201080    1.8597960   -0.6925750  
O     6.6029090    2.1190550   -0.8585930  
C     5.0157800    0.3634310   -0.4217870  
O     5.8789300   -0.4925930   -0.5143940  
C     3.6000260    0.0464320   -0.1155940  
H     0.6886590    0.2959980    0.4171620  
H     4.6414450    3.8919520   -0.9579850  
H     1.8546590    4.2258620   -0.5241120  
C    -3.2585740    0.6246750    0.1559250  
C    -1.8962360    0.8527360   -0.0631170  
C    -1.6337720    2.2334370    0.1350620  
C    -2.9390470    2.8458610    0.4668100  
N    -3.8597090    1.8222840    0.4926960  
C    -3.1484370    4.1671360    0.6949270  
C    -2.0138980    5.0686690    0.5723950  
O    -2.0886160    6.2719720    0.7602240  
C    -0.6231620    4.4646000    0.1666560  
O     0.2843840    5.2646920   -0.0415530  
C    -0.4688100    3.0012010    0.0559340  
H    -1.1923670    0.1430300   -0.4646310  
H    -4.1170420    4.5823370    0.9535660  
H    -4.8673990    1.8950680    0.5871340  
C    -2.0562440   -3.6338790    0.0592720  
C    -3.2755420   -4.1965700   -0.1107820  
C    -4.2445430   -3.1208920   -0.1369420  
C    -3.4767010   -1.8618560    0.0198470  
N    -2.1714340   -2.2383590    0.1191450  
C    -4.0342570   -0.5895520    0.0627080  
C    -5.5087300   -0.5373370    0.0476320  
O    -6.1559040    0.4887460    0.2231770  
C    -6.3226410   -1.8546410   -0.2053910  
O    -7.5315730   -1.7721190   -0.3330200  
C    -5.5976010   -3.1216260   -0.2635010  
H    -3.4951170   -5.2500090   -0.2025890  
H    -6.1758540   -4.0302170   -0.3990230  
H    -1.0735940   -4.0780700    0.1253100  
H    -1.4095700   -1.6212480    0.3568390  
