64


C     4.8608080    0.2672190    0.0152700  
C     5.3436740   -1.0466210    0.0127260  
C     6.7572150   -0.9888030   -0.0566170  
C     7.1151400    0.3932650   -0.0938120  
N     5.9571060    1.1194800   -0.0498870  
C     8.4465560    0.8241040   -0.1615800  
C     9.4303240   -0.1500630   -0.1887400  
O    10.7407010    0.2087890   -0.2525980  
C     9.0914650   -1.5373750   -0.1497410  
O    10.1913810   -2.3707970   -0.1848970  
C     7.7833400   -1.9627080   -0.0842250  
H     4.7461440   -1.9393010    0.1166120  
H     5.8470000    2.1240350    0.0146470  
H     8.7250040    1.8720750   -0.1895510  
H    11.2672100   -0.6096190   -0.2583710  
H     9.9013000   -3.2942100   -0.1465170  
H     7.5471650   -3.0244670   -0.0559940  
C     0.8469460   -1.5606810   -0.6703710  
C     2.1819950   -1.3184960   -0.6469850  
C     2.3752820    0.0170140   -0.1289520  
C     1.0272050    0.5384760    0.1473680  
N     0.1313700   -0.4591840   -0.1810320  
C     0.7398480    1.7859060    0.6495720  
C     1.8427500    2.6813790    0.8965300  
O     1.7415410    3.7950420    1.3943830  
C     3.2832590    2.1986920    0.4876270  
O     4.1720190    3.0400680    0.4905100  
C     3.5121170    0.7711630    0.1136850  
H     2.9472120   -1.9834180   -1.0138490  
H    -0.2539490    2.0749610    0.9779320  
H     0.2994890   -2.4249480   -1.0189730  
C    -2.9777410   -2.9831790    1.7273390  
C    -1.7749820   -2.4408610    1.3528700  
C    -2.0699600   -1.3034820    0.5270930  
C    -3.4822370   -1.2009590    0.4420570  
N    -4.0066540   -2.2377070    1.1857390  
C    -4.1629570   -0.1975030   -0.2781340  
C    -3.3528590    0.7316080   -0.9327410  
O    -3.9109020    1.7569100   -1.6249420  
C    -1.9343380    0.6415340   -0.8950360  
O    -1.2840060    1.5884670   -1.6587170  
C    -1.2886750   -0.3612570   -0.1763870  
H    -0.7976130   -2.8017640    1.6401110  
H    -4.9929140   -2.4268820    1.2809870  
H    -3.1697950    2.2732810   -1.9928730  
H    -0.4796710    1.8997090   -1.1988140  
H    -3.1902170   -3.8423280    2.3477070  
C    -7.0459210    0.3881940    3.0108860  
C    -8.1990350    0.3113200    2.2744500  
C    -7.8148250    0.0949390    0.9073020  
C    -6.3973350    0.0441400    0.8786410  
N    -5.9554830    0.2106850    2.1773690  
C    -5.6453290   -0.1334550   -0.3026220  
C    -6.3791270   -0.2671450   -1.4817680  
O    -5.7347720   -0.4740600   -2.6637730  
C    -7.7985390   -0.2194840   -1.4701120  
O    -8.3665010   -0.3784300   -2.7223550  
C    -8.5195460   -0.0462560   -0.3044170  
H    -9.2059010    0.3988110    2.6593220  
H    -4.9887710    0.3216470    2.4422530  
H    -6.4145040   -0.4900770   -3.3596220  
H    -9.3233540   -0.2426490   -2.6607950  
H    -9.6072180   -0.0165470   -0.3280780  
H    -6.9037870    0.5471280    4.0705900  
