60


C    -5.6471180   -2.5723070    2.7476850  
C    -4.9132130   -1.6324560    2.0733370  
C    -5.6760750   -1.2354830    0.9245330  
C    -6.8887220   -1.9746640    0.9677580  
N    -6.8374210   -2.7883210    2.0796980  
C    -7.9133940   -1.8270110    0.0274630  
C    -7.7217630   -0.8852070   -0.9703130  
O    -8.6838550   -0.6781320   -1.9113990  
C    -6.5326860   -0.1139670   -1.0336000  
O    -6.4886220    0.7548420   -2.1058710  
C    -5.4809370   -0.2881000   -0.1221630  
H    -3.9334480   -1.2801090    2.3573840  
H    -7.5741810   -3.4061550    2.3810110  
H    -8.8354800   -2.3983240    0.0641400  
H    -8.3360810    0.0285390   -2.4880200  
H    -6.2259210    1.6380050   -1.7710090  
H    -5.4181930   -3.1164170    3.6530530  
C    -1.2701350   -1.5788830   -0.2082480  
C    -0.5877750   -0.4041620   -0.2902750  
C    -1.6488220    0.6231220   -0.3338500  
C    -2.9202190   -0.1523650   -0.2287020  
N    -2.6823100   -1.4309430   -0.1762160  
C    -4.2357400    0.4930700   -0.2485380  
C    -4.2037140    1.8416880   -0.4630040  
O    -5.3293820    2.6082630   -0.5487970  
C    -2.9611340    2.6343470   -0.6113040  
O    -3.0622200    3.8528680   -0.7815930  
C    -1.6523900    1.9518000   -0.5362940  
H    -4.9966860    3.5261260   -0.6826020  
H    -0.7646130    2.5642080   -0.6588110  
H    -0.8531100   -2.5776170   -0.1513240  
C     1.6900220   -0.9273810   -1.2164240  
C     0.8513150   -0.2120060   -0.4101010  
C     1.6943150    0.7375730    0.3176160  
C     3.0811690    0.4977240   -0.1453620  
N     3.0077870   -0.5050060   -1.0844750  
C     4.1760020    1.1769610    0.3193540  
C     3.9495200    2.2486580    1.3035110  
O     4.8496160    2.9534480    1.7293490  
C     2.4816610    2.4968020    1.8094350  
O     2.2996840    3.3724030    2.6379940  
C     1.4048320    1.6789140    1.2546580  
H     0.3995820    1.8543130    1.6217170  
H     1.4430590   -1.7115700   -1.9193130  
H     3.8082410   -0.9694410   -1.4884120  
C     6.4172850    1.9033910   -0.4930730  
C     7.5999770    1.3595780   -0.8611040  
C     7.4960920   -0.0729380   -0.6899930  
C     6.1269160   -0.3280670   -0.1739120  
N     5.4947720    0.9114380   -0.1013180  
C     5.6649580   -1.5601470    0.1733230  
C     6.5458180   -2.7144390   -0.0081280  
O     6.2068670   -3.8527920    0.2749990  
C     7.9795130   -2.4678940   -0.5981200  
O     8.7149350   -3.4228910   -0.7880170  
C     8.3761720   -1.0873750   -0.8909820  
H     8.4684250    1.8983310   -1.2113520  
H     4.6954270   -1.7337570    0.6264290  
H     9.3848390   -0.9209880   -1.2568670  
H     6.1117810    2.9379610   -0.4642710  
