62


C    -3.7677500   -0.9911140    1.6732530  
C    -4.3167680   -0.1629340    0.7076680  
C    -5.4359870   -0.8989630    0.1438420  
C    -5.4854040   -2.1533910    0.8003820  
N    -4.4571510   -2.1775720    1.7271750  
C    -6.4262250   -3.1442990    0.4946160  
C    -7.3455320   -2.8610890   -0.5023830  
O    -8.2954150   -3.7803200   -0.8394080  
C    -7.3105190   -1.6122720   -1.1773230  
O    -8.2896020   -1.4738050   -2.1439440  
C    -6.3758900   -0.6421260   -0.8736850  
H    -4.3080440   -2.9066210    2.4072120  
H    -6.4616880   -4.1012850    1.0052980  
H    -8.8538680   -3.3718700   -1.5238810  
H    -8.3147900   -0.5523810   -2.4427860  
H    -6.3932800    0.3155000   -1.3824790  
H    -2.9637090   -0.7866700    2.3655640  
C    -0.1684970    1.4232140    0.2592190  
C    -1.2833240    0.6253530    0.4127460  
C    -2.4548940    1.4568700    0.3218120  
C    -1.9541650    2.8301830    0.0970600  
N    -0.5816080    2.7496710    0.1104690  
C    -2.7341630    3.9294900   -0.0953840  
C    -4.1689550    3.7454620   -0.1052890  
O    -4.9730710    4.6468500   -0.3027260  
C    -4.7375900    2.2940770    0.1375400  
O    -5.9510800    2.1577010    0.1240670  
C    -3.8028050    1.1657880    0.3780400  
H    -1.2971460   -0.4526490    0.4511540  
H    -2.3319770    4.9243400   -0.2578420  
H     0.0539300    3.4840140   -0.1676400  
C     1.9216700   -2.0451260    1.9928930  
C     3.1739860   -1.7719920    1.5073350  
C     3.0793260   -0.5573100    0.7395010  
C     1.7245370   -0.1451240    0.7996320  
N     1.0420800   -1.0807620    1.5465920  
C     1.2398300    1.0599990    0.2310880  
C     2.2336430    1.8720760   -0.3348200  
O     1.9206260    3.0871660   -0.8696410  
C     3.5933210    1.4762060   -0.4208590  
O     4.3771910    2.3927240   -1.0732530  
C     4.0456950    0.2441450    0.0585060  
H     4.0665630   -2.3450030    1.7119070  
H     0.1000140   -0.9477100    1.8811900  
H     2.7732490    3.4601790   -1.1774580  
H     5.2415790    2.4327080   -0.5897380  
H     1.5791780   -2.8516800    2.6253930  
C     5.5612800   -3.6295280   -1.3464300  
C     6.8972270   -3.4342600   -1.2188990  
C     7.0863590   -2.0841990   -0.7298010  
C     5.7274650   -1.5044940   -0.5729470  
N     4.8566660   -2.4851760   -0.9767640  
C     5.4362530   -0.2304070   -0.1290390  
C     6.6025660    0.6191460    0.1017250  
O     6.5380530    1.8311630    0.3217180  
C     8.0484020   -0.0005640    0.0517570  
O     8.9862240    0.6998660    0.3934170  
C     8.2016160   -1.3718760   -0.4225080  
H     7.6788150   -4.1425270   -1.4511340  
H     9.2052190   -1.7784250   -0.4940350  
H     5.0208610   -4.5023290   -1.6877710  
H     3.8535380   -2.4171310   -0.8825810  
