62


C     3.4358820    1.6144600   -0.0243660  
C     3.6404810    2.9779210   -0.0643740  
C     2.3548410    3.6041660   -0.0343190  
C     1.3874960    2.5656220   -0.0030610  
N     2.0620730    1.3567220   -0.0385380  
C    -0.0043080    2.8048620    0.0189400  
C    -0.3848380    4.1553130    0.0990260  
O    -1.6947440    4.4911130    0.2448390  
C     0.5752180    5.1989910    0.0586660  
O     0.0162670    6.4632510    0.1178040  
C     1.9287470    4.9463880   -0.0291450  
H     4.6000570    3.4698580   -0.1463810  
H     1.6519290    0.5745260    0.4718990  
H    -1.7395080    5.4635330    0.2546850  
H     0.7208590    7.1273040    0.1353160  
H     2.6449330    5.7647530   -0.0654660  
C    -0.4686950   -1.0652360    2.1395880  
C    -1.7045280   -1.4542010    1.7478830  
C    -2.1412450   -0.4388160    0.8013250  
C    -1.0089200    0.5465550    0.7599650  
N    -0.0318910    0.1485090    1.5323150  
C    -1.0356800    1.7450740   -0.0616390  
C    -2.0986680    1.8269050   -0.9232540  
O    -2.2462010    2.8006080   -1.8276340  
C    -3.2389670    0.8539100   -0.9230600  
O    -4.1851820    1.0893610   -1.6725380  
C    -3.2180540   -0.3258460   -0.0152280  
H    -2.2557420   -2.3330090    2.0488770  
H    -3.1120380    2.6265820   -2.2600000  
H     0.1998410   -1.5626650    2.8320250  
C    -6.2001530   -1.9206870    2.9242960  
C    -5.1535890   -1.2377710    2.4011560  
C    -5.1192390   -1.6185330    0.9940610  
C    -6.2706640   -2.5680710    0.8483840  
N    -6.8954620   -2.7388170    1.9778550  
C    -6.6037150   -3.1691520   -0.4160070  
C    -5.8377010   -2.8526300   -1.4855040  
O    -6.0237840   -3.3493140   -2.7178860  
C    -4.6597030   -1.9220330   -1.3740030  
O    -3.9630280   -1.7711570   -2.3722350  
C    -4.3473780   -1.2687880   -0.0662230  
H    -4.4820320   -0.5560330    2.9023460  
H    -7.4422150   -3.8528100   -0.4877140  
H    -5.3049860   -2.9688980   -3.2686000  
H    -6.5556990   -1.9069780    3.9478430  
C     4.3842200    0.5264880   -0.0044990  
C     5.7083500    0.4904890    0.3884630  
C     6.1819650   -0.8446630    0.1950230  
C     5.0952240   -1.6012840   -0.3235630  
N     4.0067890   -0.7546530   -0.4050160  
C     5.2058880   -2.9572500   -0.6490880  
C     6.4337930   -3.5680310   -0.4402230  
O     6.5970070   -4.8894460   -0.7434750  
C     7.5269390   -2.8329920    0.0911460  
O     8.6786890   -3.5831700    0.2483310  
C     7.4158720   -1.4928690    0.4106690  
H     6.2577370    1.3220050    0.8080340  
H     3.1705810   -0.9422680   -0.9380530  
H     4.3806570   -3.5370000   -1.0499830  
H     7.5167910   -5.1209340   -0.5277120  
H     9.3840710   -3.0191990    0.5979980  
H     8.2687800   -0.9507980    0.8147260  
