60


C    -5.2394150    1.4319520    1.1183640  
C    -5.1320790    2.7569590    1.4083870  
C    -3.9096930    3.2388390    0.8151420  
C    -3.3049280    2.1449710    0.1557610  
N    -4.1250880    1.0231660    0.3664970  
C    -2.1321690    2.2766950   -0.5932740  
C    -1.5220650    3.5245060   -0.6255130  
O    -0.3847590    3.6816460   -1.3519710  
C    -2.0903500    4.6248870    0.0694560  
O    -1.3719030    5.7904590   -0.0311390  
C    -3.2782910    4.4940240    0.7724550  
H    -5.8372100    3.3319520    1.9929340  
H    -1.6895230    1.4655620   -1.1587880  
H     0.1205290    4.4335740   -0.9892540  
H    -1.7778450    6.4725370    0.5248590  
H    -3.7179270    5.3549160    1.2716660  
H    -5.9772410    0.7009150    1.4127630  
C    -3.8761380   -0.2815000    0.0022500  
C    -4.7520630   -1.2822040   -0.3126120  
C    -3.9793210   -2.4744770   -0.5293680  
C    -2.5624440   -2.1008330   -0.3228700  
N    -2.5545540   -0.7508140   -0.0482610  
C    -1.5011290   -2.9772410   -0.3391720  
C    -1.8185570   -4.3701800   -0.7668240  
O    -0.9635940   -5.1789490   -1.0673240  
C    -3.3206580   -4.7888270   -0.9260530  
O    -3.5810170   -5.9658390   -1.1248810  
C    -4.3414470   -3.7533020   -0.8346450  
H    -5.8213750   -1.1821920   -0.4234760  
H    -5.3773410   -4.0489510   -0.9696770  
H    -1.7781310   -0.2865510    0.4069590  
C    -0.1441030   -2.6086460    0.0028750  
C     0.5063100   -1.4000700   -0.1415490  
C     1.8421430   -1.6108360    0.3582600  
C     1.8333200   -3.0354300    0.8287550  
N     0.6852020   -3.6063490    0.6250880  
C     2.9931570   -3.6529790    1.4151870  
C     4.1278160   -2.9195150    1.4789950  
O     5.2856810   -3.3636620    1.9860750  
C     4.1873960   -1.4950260    0.9893480  
O     5.2532430   -0.8974680    1.1340430  
C     2.9804650   -0.8593630    0.4126860  
H     0.1599320   -0.5166370   -0.6597910  
H     2.9432820   -4.6788240    1.7620240  
H     5.9131610   -2.6113010    1.9013540  
C     1.1499990    3.0743280    1.5378670  
C     1.4425200    1.7523170    1.5221970  
C     2.4196260    1.5923230    0.4527740  
C     2.6082410    2.9790560   -0.0777970  
N     1.8537610    3.8369910    0.5520390  
C     3.5277350    3.2671660   -1.1451670  
C     4.2365390    2.2349150   -1.6580680  
O     5.1293990    2.3550160   -2.6499610  
C     4.0603060    0.8214900   -1.1625430  
O     4.6949820   -0.0575510   -1.7343130  
C     3.1057730    0.5355760   -0.0480360  
H     1.0592710    0.9733380    2.1654450  
H     3.6428760    4.2824140   -1.5081410  
H     5.4599860    1.4458010   -2.8219350  
H     0.4670760    3.5958320    2.1976770  
