60


C    -6.7648260   -0.6118200    2.9501960  
C    -5.6231700   -0.3432590    2.2355980  
C    -5.9108280   -0.6093150    0.8492850  
C    -7.2668180   -1.0288400    0.7941660  
N    -7.7515510   -1.0360910    2.0868920  
C    -7.9295020   -1.3233850   -0.4013650  
C    -7.2082860   -1.1602210   -1.5727810  
O    -7.7925940   -1.4045080   -2.7738980  
C    -5.8491480   -0.7402690   -1.5567600  
O    -5.2866600   -0.6634740   -2.8065030  
C    -5.1601380   -0.4974000   -0.3626710  
H    -4.7045460    0.0456760    2.6509840  
H    -8.7006060   -1.2546880    2.3476020  
H    -8.9678000   -1.6360600   -0.4415170  
H    -7.1174600   -1.1868200   -3.4456100  
H    -4.7373380    0.1551740   -2.8293600  
H    -6.9582120   -0.5253990    4.0100210  
C    -1.9552980   -2.1767360    2.0865110  
C    -0.9019260   -1.4135300    1.6866350  
C    -1.3866430   -0.5113480    0.6680570  
C    -2.8302810   -0.8080820    0.5142140  
N    -3.0979300   -1.8469240    1.3785300  
C    -3.7153170   -0.1755240   -0.3313510  
C    -3.0993870    0.8125800   -1.2136290  
O    -3.6835020    1.3591450   -2.1485420  
C    -1.5912660    1.2226100   -1.0159440  
O    -1.1644290    2.1314630   -1.7080480  
C    -0.7599960    0.4745780   -0.0590780  
H     0.1043300   -1.4647170    2.0726580  
H    -1.9912410   -2.9580900    2.8340480  
H    -4.0350160   -2.1600040    1.5917990  
C     1.6595440   -0.1768540    0.0328040  
C     0.6735310    0.7596120    0.0443220  
C     1.3386550    2.0609990    0.1838760  
C     2.7918960    1.7881930    0.2656210  
N     2.9381850    0.3964860    0.1355480  
C     3.7373020    2.7361330    0.4806920  
C     3.3103720    4.1328960    0.6012670  
O     4.0979570    5.0452090    0.7886200  
C     1.7804830    4.4457120    0.4951470  
O     1.3986890    5.5986620    0.5977980  
C     0.8551530    3.3216340    0.2924050  
H     4.7919680    2.5221870    0.6049620  
H    -0.2012070    3.5517720    0.2263260  
H     1.5787290   -1.2454570   -0.1055820  
C     4.1037190   -0.3484020    0.1126510  
C     4.2939630   -1.6448870    0.5055710  
C     5.6612230   -1.9865190    0.2105200  
C     6.2685800   -0.7760340   -0.3924390  
N     5.2852290    0.2137470   -0.3776270  
C     7.5373620   -0.7023180   -0.8542770  
C     8.3900820   -1.8881540   -0.7269740  
O     9.5467370   -1.9107640   -1.1138930  
C     7.7814290   -3.1702590   -0.0517950  
O     8.4850650   -4.1618680    0.0696750  
C     6.3891450   -3.1232630    0.3902880  
H     3.5717290   -2.2740220    1.0045020  
H     7.9638330    0.1908670   -1.3004330  
H     5.9731230   -4.0202410    0.8386250  
H     5.2844460    0.9871900   -1.0286770  
