62


C     2.7690100    2.2579220    0.0613410  
C     1.5010730    1.7007050   -0.0011500  
C     0.5615730    2.6972550    0.4010710  
C     1.3021940    3.8762420    0.6875960  
N     2.6342570    3.5841410    0.4619740  
C     0.6956680    5.0648450    1.0920080  
C    -0.6907880    5.0671780    1.2120760  
O    -1.3260810    6.2026690    1.6223950  
C    -1.4501900    3.9055310    0.9369110  
O    -2.8112880    4.0744230    1.1314250  
C    -0.8557210    2.7102180    0.5296110  
H     1.2781830    0.7079220   -0.3595520  
H     3.4046850    4.1706180    0.7431870  
H     1.2516410    5.9699680    1.3139350  
H    -2.2756340    5.9968700    1.6753260  
H    -3.2492750    3.2100620    1.1481990  
C    -1.2153220    0.2440130    0.7286070  
C    -1.6131890    1.4723730    0.2917690  
C    -2.8169470    1.2463670   -0.5050950  
C    -3.0544030   -0.2212870   -0.5056280  
N    -2.0545700   -0.7861510    0.2872290  
C    -4.0432970   -0.8318670   -1.2098610  
C    -4.9718260   -0.0029740   -1.9801920  
O    -5.8964520   -0.4739760   -2.6230430  
C    -4.7596490    1.5503330   -1.9651960  
O    -5.5347160    2.2605030   -2.5843070  
C    -3.6239560    2.0869050   -1.2067740  
H    -4.1571160   -1.9078480   -1.2767580  
H    -3.4542960    3.1577580   -1.2494250  
H    -0.3659850    0.0029020    1.3474870  
C    -4.5767380   -4.1807370    1.4819490  
C    -3.6291050   -5.1526810    1.4180010  
C    -2.3856630   -4.5239940    1.0360400  
C    -2.6940270   -3.0884650    0.8715920  
N    -4.0277980   -2.9363390    1.1786280  
C    -1.7682670   -2.1502790    0.4874160  
C    -0.3912840   -2.6101640    0.2759760  
O     0.5175440   -1.8598170   -0.0607460  
C    -0.0525060   -4.1200880    0.5032260  
O     1.1237420   -4.4581990    0.3814680  
C    -1.1226910   -5.0216700    0.8631930  
H    -3.7720200   -6.2028000    1.6264350  
H    -0.8849370   -6.0709810    1.0020390  
H    -5.6256860   -4.2548250    1.7351160  
H    -4.5561840   -2.0881420    1.0379860  
C     5.2251820    2.3619280   -0.5194770  
C     4.0556960    1.6723550   -0.2397770  
C     4.3843440    0.2617120   -0.3204470  
C     5.7567540    0.1748170   -0.6520130  
N     6.2413550    1.4688840   -0.7567660  
C     6.4216280   -1.0463840   -0.8192460  
C     5.6757560   -2.2024070   -0.6501790  
O     6.2581680   -3.4236790   -0.8094420  
C     4.2945030   -2.1421660   -0.3060160  
O     3.7205360   -3.3780030   -0.1667150  
C     3.6517790   -0.9291190   -0.1326670  
H     7.1787410    1.7181370   -1.0308980  
H     7.4741460   -1.1155390   -1.0748900  
H     5.5543840   -4.0808190   -0.6557480  
H     2.7515700   -3.3454480   -0.0314340  
H     2.6057880   -0.9167430    0.1424660  
H     5.4001330    3.4253020   -0.6071900  
