62


C     7.3301210   -1.9799550   -2.4775880  
C     6.4895670   -1.0472620   -1.9224350  
C     5.7560890   -1.7062400   -0.8820400  
C     6.1941160   -3.0564260   -0.8614050  
N     7.1581150   -3.1898400   -1.8386190  
C     5.6731360   -4.0159710    0.0126030  
C     4.6821180   -3.6109710    0.8937300  
O     4.1583660   -4.5047310    1.7777070  
C     4.2166770   -2.2732340    0.8966770  
O     3.2554630   -2.0305930    1.8542160  
C     4.7314820   -1.3021350    0.0225890  
H     6.3963840   -0.0188950   -2.2378410  
H     7.6434910   -4.0440990   -2.0640630  
H     6.0162950   -5.0453430    0.0308320  
H     3.5148230   -4.0256490    2.3286770  
H     3.1302480   -1.0698070    1.9535680  
H     8.0432870   -1.8796750   -3.2833770  
C     4.2535350    0.0704350    0.0637830  
C     4.9133820    1.2537750   -0.1267530  
C     3.9799890    2.3353760    0.0373200  
C     2.6757850    1.7123900    0.3298740  
N     2.9040590    0.3406770    0.4275400  
C     1.4775890    2.3731170    0.4405120  
C     1.5614270    3.8522970    0.3361570  
O     0.5880130    4.5787560    0.4461640  
C     2.9597160    4.5372280    0.1027930  
O     2.9917680    5.7570190    0.0301340  
C     4.1290530    3.6891960   -0.0425340  
H     5.9731890    1.3589940   -0.3065000  
H     5.0839040    4.1640010   -0.2443510  
H     2.1637250   -0.2987800    0.1485530  
C     0.0175150    0.5218260    1.3805430  
C     0.2124410    1.6910060    0.6917310  
C    -1.1500710    2.0371220    0.2069540  
C    -2.0086970    0.9381950    0.7207780  
N    -1.3178270    0.0713990    1.4099210  
C    -3.4396460    0.8788840    0.4530460  
C    -3.9695910    1.8920500   -0.2963020  
O    -5.2765730    1.9996300   -0.5965580  
C    -3.1222360    2.9794090   -0.8490460  
O    -3.6736520    3.8538150   -1.5209410  
C    -1.6700990    3.0149960   -0.5559830  
H    -5.3436750    2.8146300   -1.1427370  
H    -1.1098600    3.8550840   -0.9454150  
H     0.7552530   -0.0549540    1.9242290  
C    -4.1361810   -0.6764510    2.2557160  
C    -5.0056250   -1.7140890    2.4100800  
C    -5.6433380   -1.9344590    1.1397170  
C    -5.1227510   -0.9744960    0.2370350  
N    -4.1958970   -0.1959300    0.9432600  
C    -5.4858860   -0.9447030   -1.1131750  
C    -6.4126860   -1.8808360   -1.5510430  
O    -6.8029470   -1.8836110   -2.8609940  
C    -6.9571580   -2.8344090   -0.6570010  
O    -7.8665160   -3.6987380   -1.2382870  
C    -6.5810420   -2.8726420    0.6750460  
H    -5.1735350   -2.2668280    3.3244250  
H    -5.0915400   -0.2225540   -1.8155980  
H    -7.4538440   -2.5987160   -2.9641040  
H    -8.2120760   -4.3024280   -0.5644470  
H    -6.9962270   -3.6244580    1.3436480  
H    -3.4627590   -0.2151720    2.9599740  
