62


C     0.7706210   -1.0083330   -1.1440250  
C     0.1736170   -0.0412450   -0.3594730  
C     1.2463090    0.6227940    0.3498910  
C     2.4572640    0.0097890   -0.0603270  
N     2.1281430   -0.9893460   -0.9554810  
C     3.7317960    0.3603070    0.4444330  
C     3.7161430    1.3624820    1.4128970  
O     4.9002260    1.7753290    1.9910660  
C     2.5194910    1.9789370    1.8519110  
O     2.7188600    2.9373100    2.8268990  
C     1.2871510    1.6246330    1.3398090  
H     2.8073160   -1.5060240   -1.4960620  
H     4.6801610    2.4990730    2.6062920  
H     1.8977220    3.4284060    2.9790360  
H     0.3801590    2.0978840    1.7056030  
H     0.3178980   -1.6933620   -1.8472700  
C    -2.2321890   -0.7524680   -0.1572150  
C    -1.2631570    0.1972330   -0.2625600  
C    -1.9564230    1.4808460   -0.3264950  
C    -3.4081210    1.1916820   -0.2531200  
N    -3.5293670   -0.2092390   -0.1868040  
C    -4.3604710    2.1511030   -0.1958820  
C    -3.9497850    3.5556440   -0.2781700  
O    -4.7494230    4.4760270   -0.2265880  
C    -2.4243570    3.8752780   -0.4397940  
O    -2.0645800    5.0383360   -0.5307830  
C    -1.4875160    2.7493380   -0.4477390  
H    -5.4210120    1.9476290   -0.1246660  
H    -0.4288880    2.9708570   -0.5297610  
H    -2.1193690   -1.8248340   -0.0856750  
C    -4.6071200   -3.5813170    2.4688670  
C    -3.8976610   -2.5627240    1.9194450  
C    -4.7661390   -2.0136680    0.8839080  
C    -5.9862210   -2.8585280    0.9512140  
N    -5.8895090   -3.7709940    1.8805700  
C    -7.1235370   -2.6391490    0.0931680  
C    -7.0594100   -1.6246540   -0.7976420  
O    -8.0497320   -1.3048460   -1.6502580  
C    -5.8425170   -0.7572990   -0.9229780  
O    -5.8278390    0.0808830   -1.8189310  
C    -4.6832830   -0.9747500    0.0059490  
H    -2.9192180   -2.2068160    2.2085300  
H    -7.9958920   -3.2771910    0.1790500  
H    -7.7045410   -0.5714280   -2.2023560  
H    -4.3107940   -4.2302700    3.2842370  
C     5.3556970   -0.5806790   -3.6507160  
C     4.6178130   -0.0823890   -2.6073600  
C     5.2440850   -0.5277760   -1.3880810  
C     6.3783510   -1.2922520   -1.7713220  
N     6.4114180   -1.3175370   -3.1510720  
C     7.2672090   -1.8587850   -0.8505050  
C     7.0116530   -1.6221940    0.4894650  
O     7.8428010   -2.1195920    1.4453910  
C     5.8819930   -0.8645960    0.9057280  
O     5.7600100   -0.7589060    2.2758760  
C     4.9667440   -0.3313370   -0.0041110  
H     3.7532630    0.5594240   -2.6983220  
H     7.1270390   -1.7614180   -3.7049010  
H     8.1362250   -2.4380000   -1.1453620  
H     7.4768680   -1.8079650    2.2954070  
H     5.5453750    0.1752280    2.4861940  
H     5.2221170   -0.4632640   -4.7168530  
