62


C     3.2258010   -3.1957100    1.9065360  
C     4.5680060   -3.2557120    1.6673050  
C     4.8876640   -2.2331890    0.7046900  
C     3.6840980   -1.5640710    0.3805430  
N     2.6788120   -2.1672940    1.1340940  
C     3.6127470   -0.5049280   -0.5272710  
C     4.7975010   -0.1103870   -1.1302840  
O     4.7923900    0.9146880   -2.0280100  
C     6.0199730   -0.7661730   -0.8229060  
O     7.1084060   -0.2596220   -1.5055680  
C     6.0779840   -1.8120010    0.0797570  
H     5.2594090   -3.9497990    2.1253360  
H     2.6882730    0.0104760   -0.7610590  
H     5.7130090    1.0595330   -2.3070430  
H     7.9150170   -0.7050820   -1.2072590  
H     7.0260610   -2.2989130    0.2991630  
H     2.5840340   -3.7789630    2.5505440  
C     0.7334300   -0.8891250    1.9107640  
C    -0.5904250   -0.8137840    1.6256580  
C    -0.8677480   -1.7433240    0.5431930  
C     0.4152380   -2.4111760    0.2328650  
N     1.3536320   -1.8386130    1.0896920  
C     0.5956340   -3.3899380   -0.6868420  
C    -0.5690190   -3.8150020   -1.4517920  
O    -0.5451460   -4.7300400   -2.2602780  
C    -1.9212730   -3.0385920   -1.2404750  
O    -2.8354970   -3.2563370   -2.0130320  
C    -2.0161210   -2.0284570   -0.1474050  
H    -1.3145670   -0.1828430    2.1185580  
H     1.5510490   -3.8714380   -0.8640300  
H     1.3348170   -0.3364380    2.6200180  
C    -2.9747800    2.2977850   -0.3303130  
C    -4.3313450    2.1830750   -0.1065440  
C    -4.6259970    0.7930970    0.0760580  
C    -3.3998450    0.0893580   -0.0429100  
N    -2.4141650    1.0244710   -0.2762820  
C    -3.2926630   -1.3151870    0.0580920  
C    -4.4833800   -2.0013900    0.3118880  
O    -4.4585410   -3.3488350    0.4836730  
C    -5.7166020   -1.3103950    0.4467120  
O    -6.7876210   -2.1425850    0.7108330  
C    -5.8043600    0.0634710    0.3318410  
H    -5.0255270    3.0086660   -0.0254620  
H    -1.4717510    0.8021640   -0.5581100  
H    -5.3808450   -3.6511140    0.5538900  
H    -7.6112640   -1.6351730    0.6647430  
H    -6.7633210    0.5659590    0.4403140  
C    -2.4636270    4.6075600   -1.2228140  
C    -2.1388320    3.4678400   -0.5436160  
C    -0.7873400    3.6738510   -0.0242820  
C    -0.3656100    5.0262320   -0.4657550  
N    -1.4354970    5.5434210   -1.1677870  
C     0.8426070    5.5798290   -0.1875330  
C     1.7941260    4.8147170    0.6152220  
O     2.8996020    5.2348170    0.9202050  
C     1.3568270    3.3896820    1.1139900  
O     2.1264600    2.7305400    1.7976030  
C     0.0283030    2.9011810    0.7391290  
H     1.1355380    6.5710730   -0.5196800  
H    -0.2591720    1.9206760    1.1013320  
H    -3.3741430    4.8344400   -1.7609780  
H    -1.4323540    6.4270550   -1.6527170  
