60


C     7.4129800   -2.0411500   -2.1815500  
C     7.1566850   -3.3536820   -1.8846790  
C     6.0450100   -3.3680770   -0.9780120  
C     5.6731760   -2.0208840   -0.7489860  
N     6.5304130   -1.2345910   -1.4854440  
C     4.5702800   -1.6390180    0.0605790  
C     3.8494940   -2.6974700    0.6513700  
O     2.8208890   -2.4527800    1.4997630  
C     4.2270410   -4.0481830    0.4337050  
O     3.4262130   -4.9522960    1.1042280  
C     5.3033470   -4.3935910   -0.3593710  
H     7.6922250   -4.2108840   -2.2683370  
H     6.4163940   -0.2407560   -1.6160470  
H     2.4794960   -3.3197750    1.7858430  
H     3.7202540   -5.8560290    0.9178870  
H     5.5674920   -5.4391930   -0.5037000  
H     8.1616880   -1.6028940   -2.8258630  
C     4.2236210   -0.2464460    0.2591240  
C     5.0519350    0.8504710    0.2917150  
C     4.2012090    1.9948140    0.4942100  
C     2.8239340    1.4123240    0.5333210  
N     2.8360920    0.1234950    0.4059620  
C     1.6451140    2.2473560    0.7092670  
C     1.8608550    3.5766430    0.9224070  
O     0.8903170    4.4662630    1.1682400  
C     3.2408160    4.1794140    0.8853980  
O     3.3106360    5.3962100    1.0759140  
C     4.4046790    3.3246570    0.6566970  
H     6.1331380    0.8591980    0.2880130  
H     1.3598770    5.3291950    1.2592540  
H     5.3790000    3.8023420    0.6397630  
C     0.0351350    0.4478560    1.2983930  
C    -1.2669990    0.1227130    1.0807340  
C    -1.8459720    1.1449720    0.2512670  
C    -0.7565660    2.1089210   -0.0227030  
N     0.3655710    1.6572420    0.6821770  
C    -0.8564530    3.1583690   -0.8758320  
C    -2.1335670    3.3837640   -1.5456660  
O    -2.2928280    4.2548810   -2.3862400  
C    -3.3514760    2.4832020   -1.1484580  
O    -4.4610560    2.8291220   -1.5069000  
C    -3.1046530    1.2895630   -0.2961020  
H    -1.7620670   -0.7656930    1.4397500  
H    -0.0370520    3.8268490   -1.1048780  
H     0.7993290   -0.0969540    1.8316860  
C    -4.1866430    0.3548600   -0.0514350  
C    -4.4795510   -0.3357340    1.0969960  
C    -5.6445940   -1.1323650    0.7934530  
C    -5.9368440   -0.8171220   -0.6430460  
N    -5.0993300    0.0468970   -1.1298520  
C    -7.0332440   -1.4422730   -1.3412360  
C    -7.8075620   -2.3085400   -0.6480200  
O    -8.8644220   -2.9578490   -1.1608640  
C    -7.5457410   -2.6330570    0.8044880  
O    -8.3053670   -3.4390180    1.3454520  
C    -6.4173130   -1.9980300    1.4919220  
H    -3.9954920   -0.2494070    2.0593680  
H    -7.2205350   -1.2022060   -2.3818450  
H    -9.2122320   -3.5024810   -0.4190720  
H    -6.2545800   -2.2645550    2.5318530  
