62


C     2.5751170    4.8985980    1.8391080  
C     1.8799030    6.0332030    1.5234190  
C     0.7123380    5.6199630    0.7987620  
C     0.7637560    4.2056460    0.6889430  
N     1.9157120    3.7957870    1.3216720  
C    -0.2505050    3.4444870    0.0467770  
C    -1.3520610    4.1811350   -0.4289110  
O    -2.3986670    3.5413800   -1.0319190  
C    -1.4044290    5.5897720   -0.3290280  
O    -2.5482330    6.1337590   -0.8769540  
C    -0.3871590    6.3143900    0.2630120  
H     2.1588740    7.0457450    1.7788140  
H     2.1328230    2.8387680    1.5543830  
H    -3.0420440    4.2239650   -1.2971670  
H    -2.5336120    7.0983610   -0.7902480  
H    -0.4479590    7.3984860    0.3279950  
H     3.4987270    4.7721210    2.3855710  
C    -0.1503550    2.0070290   -0.1207320  
C     0.9780160    1.1927580   -0.0899480  
C     0.5752390   -0.1579660   -0.2703870  
C    -0.8894500   -0.1132670   -0.4111990  
N    -1.2604290    1.2112840   -0.3355660  
C    -1.7049640   -1.1987620   -0.5874670  
C    -1.0496020   -2.5171610   -0.6111530  
O    -1.6388840   -3.5521680   -0.8595900  
C     0.4908790   -2.5913270   -0.3082460  
O     0.9375090   -3.7172350   -0.1022200  
C     1.2873730   -1.3617670   -0.2858920  
H     1.9918310    1.5373190    0.0081000  
H    -2.1992480    1.5696080   -0.4430140  
C     2.7323950   -1.4331100   -0.2373790  
C     3.6888520   -0.4741400   -0.5289640  
C     4.9822650   -1.0645360   -0.3563900  
C     4.7398550   -2.4686250    0.0626850  
N     3.3747880   -2.6196180    0.1241760  
C     5.7241260   -3.3683900    0.3201990  
C     7.1122160   -2.9403660    0.1822900  
O     8.0623600   -3.6801960    0.3948200  
C     7.3926150   -1.4559260   -0.2587590  
O     8.5529750   -1.0826790   -0.3724010  
C     6.2511590   -0.5832900   -0.5107850  
H     3.5061970    0.5159850   -0.9149600  
H     5.5291470   -4.3922910    0.6236470  
H     6.4560260    0.4380060   -0.8185820  
H     2.8508350   -3.4754790    0.2631570  
C    -3.6204850   -0.1913100   -1.7979670  
C    -4.9817190   -0.2796640   -1.7817710  
C    -5.3384700   -1.2455670   -0.7784790  
C    -4.1338880   -1.7308610   -0.2138420  
N    -3.0754600   -1.0707750   -0.8510730  
C    -4.1171160   -2.6576400    0.8338100  
C    -5.3387870   -3.1198230    1.2992200  
O    -5.3744710   -4.0308300    2.3124720  
C    -6.5554060   -2.6549390    0.7339660  
O    -7.6843660   -3.2069500    1.3049020  
C    -6.5677130   -1.7270690   -0.2911070  
H    -5.6579410    0.2637610   -2.4279620  
H    -3.2040940   -3.0452940    1.2674760  
H    -6.3081250   -4.2519570    2.4719180  
H    -8.4710120   -2.9059990    0.8265940  
H    -7.5098430   -1.3720910   -0.7039160  
H    -2.9626160    0.3747380   -2.4418620  
