62


C     1.2118110   -0.0730540   -1.1396880  
C     2.5138460    0.2609280   -0.8699780  
C     2.5022930    1.2256240    0.2008320  
C     1.1459170    1.4352150    0.5434160  
N     0.3645140    0.6430160   -0.2994730  
C     0.7560490    2.2970540    1.5761280  
C     1.7582300    2.9716910    2.2564100  
O     1.4345770    3.8207980    3.2719380  
C     3.1242410    2.7851970    1.9099450  
O     3.9983780    3.5313920    2.6736130  
C     3.5058000    1.9255900    0.8976620  
H    -0.2797710    2.4486220    1.8571930  
H     2.2662630    4.1880250    3.6182540  
H     4.9100050    3.3216900    2.4214590  
H     4.5549910    1.7847220    0.6510240  
H     0.8063430   -0.7486150   -1.8783950  
C    -1.7410800   -0.6078470   -0.0535170  
C    -1.0360110    0.5308990   -0.2836000  
C    -1.9868770    1.5915320   -0.5729760  
C    -3.3255110    0.9647760   -0.4868080  
N    -3.1159660   -0.3926610   -0.2037500  
C    -4.4859680    1.6510460   -0.6192280  
C    -4.4194820    3.0827740   -0.9214480  
O    -5.4178900    3.7722250   -1.0548600  
C    -3.0063220    3.7461560   -1.0836790  
O    -2.9350700    4.9291880   -1.3734540  
C    -1.8241210    2.9067210   -0.8653390  
H    -5.4652610    1.1991940   -0.5349850  
H    -0.8468820    3.3740360   -0.9271860  
H    -1.3774290   -1.5875350    0.2148280  
C    -3.4287770   -3.3413370    2.9432360  
C    -4.5888910   -3.9585160    2.6264350  
C    -5.0547880   -3.3027700    1.4073420  
C    -4.0063810   -2.2745100    1.1316230  
N    -3.0624950   -2.3022170    2.0227630  
C    -4.0972030   -1.3824210   -0.0166050  
C    -5.1552160   -1.5612570   -0.8607870  
O    -5.3415740   -0.8546520   -1.9869360  
C    -6.2184280   -2.5784730   -0.5905220  
O    -7.1357710   -2.6669160   -1.4061660  
C    -6.1199890   -3.4503030    0.5981500  
H    -5.0849890   -4.7626720    3.1515410  
H    -6.1820950   -1.1954440   -2.3691880  
H    -6.9132160   -4.1765240    0.7462110  
H    -2.7706360   -3.5363650    3.7806910  
C     3.8551030   -0.0973940   -2.9355100  
C     5.0436110   -0.6805490   -3.2802640  
C     5.6252970   -1.1984940   -2.0740440  
C     4.7274190   -0.8971130   -1.0171570  
N     3.6441620   -0.2158180   -1.5645480  
C     4.9649310   -1.2827800    0.3089670  
C     6.1403750   -1.9681410    0.5750870  
O     6.4249570   -2.3627920    1.8532610  
C     7.0561270   -2.2678880   -0.4671450  
O     8.1821620   -2.9527870   -0.0438000  
C     6.8124230   -1.8966800   -1.7766110  
H     5.4615490   -0.7282890   -4.2766900  
H     4.2709220   -1.0685800    1.1138700  
H     7.2746250   -2.8349820    1.8226860  
H     8.7441630   -3.1484230   -0.8078270  
H     7.5260690   -2.1442230   -2.5605140  
H     3.1251190    0.4234300   -3.5386540  
