60


C    -3.0526890    1.4823850   -0.8908710  
C    -2.9637410    0.1873660   -0.3856150  
C    -4.3082590   -0.1660220    0.0478180  
C    -5.1380900    0.9496270   -0.2313300  
N    -4.3407340    1.9220850   -0.8122100  
C    -6.5002170    0.9968840    0.0783610  
C    -7.0524290   -0.1130360    0.6999020  
O    -8.3786020   -0.1280340    1.0242350  
C    -6.2415940   -1.2338720    1.0041510  
O    -6.9219830   -2.2633700    1.6318470  
C    -4.8934300   -1.2717080    0.6967850  
H    -4.6545730    2.8321090   -1.1133270  
H    -7.1236890    1.8569520   -0.1439790  
H    -8.5617290   -0.9945230    1.4268670  
H    -6.3344870   -3.0293150    1.7112710  
H    -4.3047520   -2.1516620    0.9292350  
H    -2.2716530    2.1101210   -1.2904910  
C     1.1338590    1.6707870   -0.2090100  
C     1.8542910    0.5022530   -0.2138120  
C     0.8807280   -0.5624090   -0.2517030  
C    -0.4365450    0.1373410   -0.2695230  
N    -0.2795280    1.4255860   -0.2174960  
C    -1.7202480   -0.5712050   -0.3409080  
C    -1.6057990   -1.9370090   -0.4014960  
O    -2.6649980   -2.7731060   -0.5180710  
C    -0.3171570   -2.6652120   -0.3448980  
O    -0.3553640   -3.9005750   -0.3240670  
C     0.9726960   -1.9186540   -0.2862500  
H     2.9260220    0.3839620   -0.2691500  
H    -2.2616660   -3.6708290   -0.5342240  
C     4.3415550   -2.1010000    2.6205130  
C     3.1914200   -1.7855070    1.9688580  
C     3.1522870   -2.5746910    0.7547020  
C     4.3899320   -3.3922530    0.7589480  
N     5.0770840   -3.0383230    1.9056400  
C     4.7215880   -4.3106570   -0.1842790  
C     3.8021640   -4.5184620   -1.2950070  
O     3.9896670   -5.3448140   -2.1739370  
C     2.5148840   -3.6222520   -1.3670900  
O     1.8236330   -3.6748270   -2.3669250  
C     2.2224260   -2.6891890   -0.2454860  
H     2.4400200   -1.0846470    2.2988710  
H     5.6234400   -4.9135600   -0.1410190  
H     4.7176140   -1.7293400    3.5646710  
H     5.9219550   -3.4842980    2.2269510  
C     4.7537870    3.6002190    1.5141950  
C     3.7913940    2.7094160    1.1476830  
C     2.7922990    3.4320860    0.3948940  
C     3.2481340    4.8390230    0.3676300  
N     4.4553820    4.8677040    1.0406210  
C     2.5681100    5.8771140   -0.1873820  
C     1.2841640    5.5947480   -0.8059720  
O     0.5520240    6.4601800   -1.2617900  
C     0.8225430    4.0948610   -0.9081610  
O    -0.1366890    3.8547460   -1.6171870  
C     1.6089930    3.0404520   -0.2007690  
H     3.7753650    1.6600220    1.3956920  
H     2.9187190    6.9042600   -0.1612060  
H     5.6555680    3.4373760    2.0894350  
H     4.9845740    5.7038640    1.2324010  
