60


C    -6.0947890   -2.1566550   -2.5987540  
C    -7.1232240   -1.2774030   -2.8123960  
C    -6.9260670   -0.1710490   -1.9180740  
C    -5.7416440   -0.4373670   -1.1829400  
N    -5.2523290   -1.6497850   -1.6248180  
C    -5.2474020    0.4196250   -0.1748030  
C    -5.9885770    1.5788020    0.0662450  
O    -5.5465630    2.4793220    0.9868290  
C    -7.1683340    1.8625080   -0.6672560  
O    -7.7665320    3.0593270   -0.3140200  
C    -7.6421740    1.0112180   -1.6472440  
H    -7.9302230   -1.4023180   -3.5212750  
H    -4.4605010   -2.1307890   -1.2274670  
H    -6.2430690    3.1511880    1.0892330  
H    -8.6493000    3.1061600   -0.7096120  
H    -8.5504330    1.2537970   -2.1953860  
H    -5.8813870   -3.1087960   -3.0636870  
C    -1.0326290   -0.2995630   -1.3331650  
C    -2.3581650   -0.0258020   -1.3216990  
C    -2.8105400   -0.1083100    0.0540140  
C    -1.6189790   -0.4548080    0.8588310  
N    -0.5528680   -0.5766910   -0.0423600  
C    -1.6003300   -0.5352740    2.2117560  
C    -2.8485770   -0.3031820    2.9285070  
O    -2.9256000   -0.2981160    4.1473970  
C    -4.1533560   -0.0477500    2.0923470  
O    -5.2192620   -0.0158780    2.6771240  
C    -4.0399780    0.1068290    0.6145770  
H    -2.9716360    0.2088550   -2.1786360  
H    -0.7107180   -0.7540860    2.7906110  
H    -0.3448660   -0.3515880   -2.1663530  
C     3.2019930    1.4597220   -0.9342580  
C     1.8932640    1.1399880   -0.7873580  
C     1.8323980   -0.1489180   -0.1389210  
C     3.2297820   -0.5744270    0.0837590  
N     4.0387540    0.4429680   -0.4525490  
C     3.5927690   -1.6871990    0.7662890  
C     2.5406350   -2.5703030    1.2598660  
O     2.7648140   -3.5697100    1.9220140  
C     1.0477460   -2.2182450    0.9258270  
O     0.1722130   -3.0181660    1.1962680  
C     0.7745270   -0.9197710    0.2634010  
H     1.0532910    1.7458670   -1.0931160  
H     4.6197360   -1.9702990    0.9594060  
H     3.6513170    2.3397170   -1.3728470  
C     6.9352600    3.5706080    0.7065800  
C     5.7583480    2.9183710    0.5364370  
C     6.1229400    1.6343740   -0.0506430  
C     7.6084350    1.6971810   -0.1723010  
N     8.0758340    2.8294660    0.2729330  
C     8.3818220    0.6029430   -0.7020810  
C     7.7199520   -0.5063930   -1.1019280  
O     8.3172890   -1.5989760   -1.6052290  
C     6.2228620   -0.6064050   -1.0292930  
O     5.6900820   -1.6087190   -1.4920790  
C     5.4391850    0.5271670   -0.4381110  
H     4.7679700    3.2535180    0.8095320  
H     9.4609350    0.6850740   -0.7657490  
H     7.5968690   -2.2182370   -1.8489330  
H     7.0918330    4.5545010    1.1321270  
