64


C     2.1892440   -0.0843490   -0.5321250  
C     3.5507720   -0.1129610   -0.4162690  
C     3.9319460   -1.4588750   -0.0505180  
C     2.7416030   -2.2177840    0.0304810  
N     1.6650990   -1.3496770   -0.2587400  
C     2.7530660   -3.5713770    0.3811650  
C     3.9842340   -4.1557370    0.6503620  
O     4.0394950   -5.4745860    0.9899780  
C     5.1809910   -3.4005240    0.5844860  
O     6.3190830   -4.1158100    0.8922670  
C     5.1671340   -2.0602290    0.2385030  
H     1.8436820   -4.1515370    0.4410060  
H     4.9726360   -5.6942290    1.1544450  
H     7.0894650   -3.5289030    0.8697190  
H     6.0888820   -1.4847940    0.2081070  
H     1.5427540    0.7269370   -0.8226220  
C     0.3140990   -1.6233510   -0.2721910  
C    -0.7264470   -0.7330570   -0.4323160  
C    -1.9130670   -1.5318150   -0.3790770  
C    -1.4088010   -2.9210340   -0.1712110  
N    -0.1035460   -2.9654890   -0.1142230  
C    -2.2876730   -4.0512850   -0.0382820  
C    -3.6128420   -3.7975760   -0.0868190  
O    -4.5666480   -4.7280800    0.0416260  
C    -4.1683870   -2.3959600   -0.2940460  
O    -5.4009540   -2.3249520   -0.3221930  
C    -3.2615480   -1.2476310   -0.4611490  
H    -0.6779790    0.3408400   -0.5172850  
H    -1.8867830   -5.0477980    0.1080310  
H    -5.4120640   -4.2298570   -0.0548120  
C    -3.1811870    0.9512020   -1.6601950  
C    -3.7921860    0.0770570   -0.7737440  
C    -4.9645010    0.7742830   -0.2708290  
C    -4.9838210    2.0510980   -0.8858860  
N    -3.8894810    2.1212130   -1.7304820  
C    -5.9582030    3.0196410   -0.6188180  
C    -6.9431760    2.6952090    0.2997600  
O    -7.9240080    3.5950090    0.5977050  
C    -6.9393690    1.4259560    0.9351390  
O    -7.9814980    1.2466360    1.8257180  
C    -5.9734210    0.4753930    0.6663430  
H    -3.6671920    2.8997230   -2.3313920  
H    -5.9653150    3.9944270   -1.0956980  
H    -8.5121090    3.1718380    1.2470690  
H    -7.9564170    0.3417340    2.1704970  
H    -6.0128010   -0.4948750    1.1498240  
H    -2.3087380    0.7925130   -2.2768500  
C     5.6116260    0.8964590   -1.3518880  
C     6.2086810    2.1252800   -1.3874750  
C     5.3729380    3.0258960   -0.6437720  
C     4.2646390    2.2754050   -0.1748940  
N     4.4271980    0.9623910   -0.6174960  
C     3.2571700    2.8386740    0.6183600  
C     3.3616060    4.1864820    0.9267680  
O     2.4015080    4.7834300    1.6929890  
C     4.4566180    4.9557610    0.4538660  
O     4.4161930    6.2829540    0.8390490  
C     5.4570320    4.3931770   -0.3172330  
H     7.1334060    2.3657610   -1.8942700  
H     2.4214280    2.2651460    1.0020100  
H     2.6615690    5.7137540    1.8061870  
H     5.2028210    6.7395230    0.5062440  
H     6.2936280    4.9985050   -0.6612370  
H     5.8962410   -0.0351620   -1.8184970  
