60


C     3.8752920   -1.6568660    2.8657540  
C     4.7925180   -2.5320710    2.3484360  
C     4.2843460   -2.9770420    1.0806770  
C     3.0440170   -2.3219420    0.8763720  
N     2.8262550   -1.5095870    1.9713490  
C     2.2219270   -2.5573850   -0.2510760  
C     2.7105200   -3.4685020   -1.1934190  
O     2.0135140   -3.6911510   -2.3375110  
C     3.9579710   -4.1181140   -1.0064740  
O     4.2929450   -4.9692940   -2.0403330  
C     4.7424450   -3.8867570    0.1070690  
H     5.7199990   -2.8323900    2.8161520  
H     1.9671250   -1.0136790    2.1526880  
H     2.4793080   -4.3880390   -2.8324130  
H     5.1108510   -5.4412240   -1.8248280  
H     5.6939080   -4.4008290    0.2265560  
H     3.8754230   -1.1162860    3.8019040  
C     0.9042760    1.7223970   -0.3409250  
C     1.6763480    0.5842050   -0.2833140  
C     0.7605150   -0.5270200   -0.3823300  
C    -0.5733430    0.1186960   -0.4798970  
N    -0.4933430    1.4145820   -0.4439780  
C    -1.7967220   -0.6562950   -0.6194290  
C    -1.6466870   -2.0074340   -0.7366290  
O    -2.6649130   -2.8564660   -0.9449380  
C    -0.3166770   -2.6863860   -0.5850110  
O    -0.3298030   -3.9157760   -0.5833060  
C     0.9277020   -1.8803540   -0.4253690  
H     2.7539940    0.5068270   -0.3163850  
H    -2.2558630   -3.7522430   -0.9167490  
C    -3.2787320    1.2012380   -1.3639720  
C    -4.5603930    1.6097530   -1.2100190  
C    -5.2203330    0.6751640   -0.3290790  
C    -4.2026140   -0.3443660    0.0289090  
N    -3.0347110    0.0070840   -0.6566670  
C    -4.4229630   -1.3520970    0.9088670  
C    -5.7507480   -1.4761220    1.5103890  
O    -6.0289140   -2.3529530    2.3145660  
C    -6.8545920   -0.4355020    1.1056660  
O    -7.9725690   -0.5396480    1.5875530  
C    -6.4820370    0.6287310    0.1747200  
H    -5.0022950    2.4898050   -1.6545030  
H    -3.6764310   -2.0849440    1.1836960  
H    -7.2355000    1.3703900   -0.0727060  
H    -2.4698390    1.6638990   -1.9092110  
C     4.2931170    3.6228310    1.6887150  
C     4.0693430    4.9155330    1.3445960  
C     2.8854330    4.9379290    0.5101920  
C     2.4381290    3.5330400    0.3878020  
N     3.3416850    2.7863040    1.1057740  
C     1.3147240    3.1091030   -0.2895020  
C     0.5542950    4.1596130   -1.0124250  
O    -0.3512570    3.9213540   -1.7895340  
C     0.9803850    5.6619240   -0.8261790  
O     0.2831190    6.5318890   -1.3215840  
C     2.2002020    5.9570190   -0.0752090  
H     4.6586030    5.7721960    1.6371360  
H     2.5014350    6.9962240    0.0145980  
H     5.0731630    3.1970050    2.3054990  
H     3.2239510    1.8034340    1.3064600  
