60


C    -5.1754540   -0.7237990   -2.1968360  
C    -6.2380880   -0.0166970   -2.6852400  
C    -6.7727020    0.7557820   -1.5984960  
C    -5.9880720    0.4689390   -0.4536610  
N    -5.0036110   -0.4438590   -0.8361910  
C    -6.2113700    1.0812490    0.7848210  
C    -7.2588270    1.9847430    0.8707840  
O    -7.5248180    2.6037060    2.0567570  
C    -8.0625960    2.2764550   -0.2637370  
O    -9.0631400    3.1973500   -0.0179670  
C    -7.8317400    1.6778910   -1.4877150  
H    -6.6159790   -0.0610870   -3.6978830  
H    -5.6280350    0.8544030    1.6687310  
H    -8.3127070    3.1580850    1.9226450  
H    -9.6337310    3.2704890   -0.7971690  
H    -8.4532840    1.9208750   -2.3473320  
H    -4.5490220   -1.4667420   -2.6709210  
C    -0.7709550   -0.2093480   -1.5347890  
C    -0.2996770   -0.9482910   -0.4822800  
C    -1.4800380   -1.3688480    0.2826310  
C    -2.6463210   -0.8020630   -0.4261700  
N    -2.1490820   -0.1198540   -1.5186520  
C    -3.9502240   -0.9459960   -0.0464070  
C    -4.2182450   -1.7138300    1.1815340  
O    -5.3406160   -1.9359710    1.5989120  
C    -2.9792740   -2.2639400    1.9837070  
O    -3.1860280   -2.8286690    3.0447540  
C    -1.6344450   -2.0671140    1.4369850  
H    -0.8051540   -2.5056610    1.9784730  
H    -0.2091800    0.2517760   -2.3362660  
H    -2.7262370    0.3364550   -2.2100560  
C     3.2662980    1.6706570   -0.4271070  
C     2.0075440    1.1743550   -0.4710750  
C     2.0871970   -0.2571700   -0.2768920  
C     3.5234960   -0.5667420   -0.1058750  
N     4.2136130    0.6506450   -0.2473310  
C     4.0116280   -1.7886790    0.2164870  
C     3.0676050   -2.8907970    0.3523960  
O     3.4041350   -4.0207870    0.6670640  
C     1.5461840   -2.6107450    0.0873370  
O     0.7696420   -3.5487290    0.1298530  
C     1.1119100   -1.2221570   -0.2110990  
H     1.1064750    1.7519830   -0.6111040  
H     5.0620490   -2.0006250    0.3710880  
H     3.6120200    2.6892500   -0.5334160  
C     6.6600910    3.5708890    1.9914990  
C     5.5797680    2.8759850    1.5554740  
C     6.1185170    1.8868000    0.6291630  
C     7.5852090    2.1502940    0.6277710  
N     7.8949850    3.1334640    1.4264740  
C     8.5051660    1.3681120   -0.1587780  
C     8.0002510    0.3697870   -0.9180490  
O     8.7443460   -0.4390600   -1.6909320  
C     6.5268020    0.0845290   -0.9756880  
O     6.1387450   -0.7751470   -1.7587750  
C     5.5895680    0.8823770   -0.1177010  
H     4.5482770    2.9964080    1.8542630  
H     9.5664200    1.5870750   -0.1252920  
H     8.1134410   -1.0276690   -2.1573100  
H     6.6799500    4.3849010    2.7061350  
