60


C     7.2370320    0.3175980    3.0734530  
C     6.0420050    0.2379930    2.4089170  
C     6.3346610   -0.0418350    1.0321200  
C     7.7489260   -0.1337770    0.9283680  
N     8.2714010    0.1018920    2.1822670  
C     8.4150780   -0.4381780   -0.2630790  
C     7.6306310   -0.6861070   -1.3775100  
O     8.2109220   -1.0030270   -2.5681000  
C     6.2150790   -0.6244050   -1.3070340  
O     5.5856720   -0.8674230   -2.5121730  
C     5.5407350   -0.2753130   -0.1278290  
H     5.0677450    0.3830790    2.8495650  
H     9.2507060    0.0725690    2.4175180  
H     9.4961460   -0.5017950   -0.3355810  
H     7.4708370   -1.1445200   -3.1886130  
H     4.8814990   -1.5315490   -2.3573280  
H     7.4422960    0.5184050    4.1154350  
C     2.8874010    2.9485490    1.3047120  
C     1.6560960    2.4490800    1.0537180  
C     1.8943880    1.1472920    0.4388510  
C     3.3883850    1.0125940    0.4285470  
N     3.9529400    2.0720490    0.9242240  
C     4.0688480   -0.1696260   -0.1066020  
C     3.2337880   -1.1104240   -0.6349810  
O     3.6843170   -2.2559570   -1.2222530  
C     1.7547440   -1.0097360   -0.6519670  
O     1.1211830   -1.9179150   -1.1930540  
C     1.0847480    0.1807090   -0.0529750  
H     0.6955660    2.9061070    1.2425020  
H     2.8691270   -2.7344680   -1.4998370  
H     3.1442360    3.9021470    1.7498220  
C    -1.9941840    2.9192490   -1.7736020  
C    -0.8027860    2.3857260   -1.4210570  
C    -1.1355650    1.1910610   -0.6599960  
C    -2.6384030    1.1507500   -0.6593340  
N    -3.1185490    2.1680060   -1.3135320  
C    -3.4064750    0.0834890   -0.0132150  
C    -2.6428200   -0.8889490    0.6008120  
O    -3.1174420   -1.9393110    1.2627350  
C    -1.1331750   -0.8522810    0.6206320  
O    -0.5645400   -1.7305980    1.2639710  
C    -0.3880070    0.2279010   -0.0722900  
H     0.1888690    2.7497610   -1.6460820  
H    -2.3200490   -2.4163020    1.5936950  
H    -2.1795550    3.8172750   -2.3505280  
C    -4.8574200    0.0864560   -0.0392040  
C    -5.6949820    1.0125450   -0.6086750  
C    -7.0352890    0.5407360   -0.3508310  
C    -6.8397570   -0.7314540    0.4141320  
N    -5.5828630   -0.9943040    0.5948260  
C    -7.9600000   -1.5202380    0.8653740  
C    -9.2021440   -1.0700760    0.5733660  
O   -10.3362220   -1.6942880    0.9262370  
C    -9.4300310    0.2104250   -0.1967060  
O   -10.5981380    0.5357040   -0.4121890  
C    -8.2748400    0.9969900   -0.6462980  
H    -5.4049660    1.9038080   -1.1402430  
H    -7.7917920   -2.4381740    1.4174160  
H   -11.0598030   -1.1284010    0.5742620  
H    -8.4773750    1.9106100   -1.1967990  
