64


C     3.3206030   -0.4147120    0.0754600  
C     3.7908480    0.8781020    0.0536300  
C     5.2211200    0.8320910   -0.0594650  
C     5.5892320   -0.5344260   -0.1044970  
N     4.4179770   -1.2883290   -0.0858960  
C     6.9185770   -0.9575880   -0.1834970  
C     7.9005260    0.0226750   -0.2295280  
O     9.2150420   -0.3356450   -0.3027210  
C     7.5495460    1.3977720   -0.2079080  
O     8.6346450    2.2509020   -0.2727180  
C     6.2316080    1.8109580   -0.1274830  
H     3.1732230    1.7653240    0.0558750  
H     4.3942370   -2.2232620    0.3031090  
H     7.2048970   -2.0039690   -0.2131880  
H     9.7362230    0.4852880   -0.3287430  
H     8.3267370    3.1686960   -0.2423320  
H     5.9870860    2.8711870   -0.1085030  
C    -0.3246740    0.9450010    2.3166200  
C     0.9457450    0.8355270    1.8013680  
C     0.9472170   -0.3078740    0.9272120  
C    -0.3622080   -0.8495560    0.9550480  
N    -1.1044300   -0.0890430    1.8400160  
C    -0.7600800   -1.9897060    0.2177450  
C     0.2432660   -2.5646690   -0.5699650  
O    -0.0476260   -3.6116730   -1.3885660  
C     1.5678340   -2.0601290   -0.5814790  
O     2.4131110   -2.7662620   -1.4189530  
C     1.9567220   -0.9367850    0.1504510  
H     1.7996540    1.4386960    2.0753590  
H    -2.1148630   -0.0649130    1.7935880  
H     0.7706300   -3.8227160   -1.8728290  
H     3.2211700   -2.2418250   -1.5670570  
H    -0.7308740    1.6568040    3.0220420  
C    -4.6194440    0.0189540   -0.4103690  
C    -5.4804360   -1.0577790   -0.4764080  
C    -4.6879440   -2.2205010   -0.2259720  
C    -3.2891630   -1.6891520   -0.0444700  
N    -3.2689850   -0.3923560   -0.1376600  
C    -2.1380480   -2.5363510    0.2067160  
C    -2.4332240   -3.8596840    0.3791410  
O    -1.5383170   -4.7926350    0.6963430  
C    -3.8370520   -4.4294740    0.2262300  
O    -3.9415540   -5.6491260    0.4005750  
C    -4.9432970   -3.5524880   -0.1005050  
H    -6.5469670   -1.0402890   -0.6540050  
H    -2.0608860   -5.6309820    0.7294950  
H    -5.9268040   -3.9978130   -0.2099800  
C    -6.0542320    2.0682810   -0.7834610  
C    -4.8415990    1.4272630   -0.5352470  
C    -3.8542470    2.4841620   -0.3715410  
C    -4.5314410    3.7149200   -0.5145130  
N    -5.8666410    3.4184810   -0.7735420  
C    -3.8957110    4.9553510   -0.3833700  
C    -2.5391940    4.9442370   -0.0858960  
O    -1.8658970    6.1180180    0.0762820  
C    -1.8401290    3.7156090    0.0560330  
O    -0.5031710    3.8468940    0.3575850  
C    -2.4744990    2.4981530   -0.1036720  
H    -6.5930980    4.1021020   -0.9267450  
H    -4.4161470    5.9017710   -0.4883720  
H    -0.9471040    5.8848380    0.2993070  
H    -0.1511030    2.9819500    0.6440340  
H    -1.9255720    1.5690160   -0.0315240  
H    -7.0330800    1.6459520   -0.9610110  
