62


C    -4.8295630   -0.2044040    2.1783280  
C    -5.8406990   -1.1242960    2.1791960  
C    -5.8168980   -1.7846720    0.9038310  
C    -4.7580540   -1.2119130    0.1554390  
N    -4.1538530   -0.2413510    0.9544640  
C    -4.4273760   -1.6437230   -1.1341290  
C    -5.1917870   -2.6613820   -1.6824020  
O    -4.9168870   -3.1155180   -2.9397950  
C    -6.2620910   -3.2413140   -0.9505880  
O    -6.9267630   -4.2449330   -1.6311530  
C    -6.5794910   -2.8186740    0.3263430  
H    -6.5392010   -1.2967040    2.9870640  
H    -3.6307430   -1.1987770   -1.7178420  
H    -5.5816220   -3.7928250   -3.1525110  
H    -7.6988250   -4.5248530   -1.1178350  
H    -7.3986960   -3.2815640    0.8733420  
H    -4.5484710    0.5303750    2.9198630  
C    -0.4378780    0.1341170    3.1012430  
C     0.1672850    1.0857980    2.3461400  
C    -0.7220220    1.4026460    1.2466250  
C    -1.9120010    0.5444880    1.4362270  
N    -1.6823810   -0.1983070    2.5728850  
C    -3.0221540    0.5386140    0.6378950  
C    -3.0314070    1.4577890   -0.5041030  
O    -3.9840690    1.5923890   -1.2523050  
C    -1.7355800    2.3131240   -0.7744950  
O    -1.6896310    2.9468210   -1.8128870  
C    -0.6204270    2.2851040    0.2037160  
H     1.1412670    1.5159180    2.5157250  
H    -0.0869640   -0.3581770    3.9984780  
H    -2.3298430   -0.8766910    2.9445700  
C     3.6772090    1.3998720   -0.3345360  
C     4.1762400    2.6574630   -0.5885790  
C     3.0566980    3.5418810   -0.5154590  
C     1.8880950    2.6463720   -0.1917980  
N     2.2594500    1.4031580   -0.0885660  
C     0.5406770    3.1618510   -0.0380050  
C     0.4056780    4.5115580   -0.1984410  
O    -0.7472900    5.1602850   -0.0500840  
C     1.5650490    5.4373140   -0.5231200  
O     1.2833680    6.6361780   -0.6292980  
C     2.8944160    4.8851210   -0.6777010  
H     5.1988760    2.9297330   -0.8086440  
H    -0.5284900    6.1044130   -0.2427100  
H     3.7031110    5.5680970   -0.9166350  
C     4.3190760    0.1298260   -0.2788560  
C     5.6473620   -0.2629360   -0.4525710  
C     5.6997960   -1.6664990   -0.2828470  
C     4.3652370   -2.1074490   -0.0023210  
N     3.5624610   -1.0027760   -0.0048500  
C     4.0503400   -3.4547870    0.2201420  
C     5.0876960   -4.3689570    0.1608610  
O     4.8422400   -5.6883490    0.3682520  
C     6.4269200   -3.9474540   -0.1168990  
O     7.3307090   -4.9880170   -0.1367100  
C     6.7400360   -2.6259080   -0.3359900  
H     6.4726350    0.3990560   -0.6761480  
H     2.5640140   -0.9477600    0.1432590  
H     3.0424830   -3.7971600    0.4285820  
H     5.6873050   -6.1625380    0.2755100  
H     8.2134730   -4.6520860   -0.3525250  
H     7.7642570   -2.3258030   -0.5461080  
