62


C    -4.7930150   -0.5716050    3.3738780  
C    -5.5681210   -1.6386400    2.9991700  
C    -5.3873340   -1.8124230    1.5866380  
C    -4.4716160   -0.8132120    1.1579330  
N    -4.1357070   -0.0697790    2.2694020  
C    -4.0630830   -0.6490140   -0.1867940  
C    -4.6511750   -1.5344760   -1.0884000  
O    -4.3529930   -1.4379730   -2.4376250  
C    -5.5634600   -2.5378040   -0.6860160  
O    -6.0263410   -3.3166480   -1.7333980  
C    -5.9330880   -2.6953540    0.6349590  
H    -6.2009390   -2.2266290    3.6494620  
H    -3.4829030    0.6991970    2.2666570  
H    -4.8506050   -2.1452120   -2.8873350  
H    -6.6233400   -3.9980570   -1.3913130  
H    -6.6390270   -3.4706720    0.9251230  
H    -4.6527260   -0.1186790    4.3452790  
C    -0.0190890    0.4906110    1.3851250  
C    -1.2016620   -0.1423280    1.1281310  
C    -1.8838820    0.6105360    0.1057180  
C    -1.0486750    1.7057390   -0.2259960  
N     0.0945790    1.6248580    0.5729370  
C    -1.3484770    2.6091320   -1.2500490  
C    -2.5207150    2.3852690   -1.9530080  
O    -2.8715650    3.2082200   -2.9769080  
C    -3.3861590    1.3028850   -1.6326360  
O    -4.5193260    1.2482840   -2.4136080  
C    -3.1112890    0.4175440   -0.5894060  
H    -1.5492880   -1.0454700    1.6087870  
H    -0.7152200    3.4502710   -1.5044590  
H    -3.7115440    2.8505060   -3.3233120  
H    -4.6646660    0.3097650   -2.6640590  
H     0.7501730    0.2733480    2.1125140  
C     4.2411540    0.7083670   -0.1454710  
C     4.7763440    1.9546690    0.0355350  
C     3.6913400    2.8481200    0.3512170  
C     2.4706880    2.0183360    0.3457620  
N     2.8663230    0.7078000    0.0940350  
C     1.2077190    2.4843110    0.5470240  
C     1.0589770    3.9275430    0.8470710  
O    -0.0152910    4.4349400    1.1078010  
C     2.3557060    4.8224720    0.8539200  
O     2.2221820    6.0208580    1.0505850  
C     3.6430480    4.1859660    0.6099930  
H     5.8252290    2.2107050    0.0090060  
H     4.5282010    4.8136870    0.6190470  
H     2.2309730    0.0268970   -0.3019900  
C     6.0498600   -0.4735320   -1.3154610  
C     6.4824060   -1.7340580   -1.5315510  
C     5.5746070   -2.6363070   -0.8521470  
C     4.5508800   -1.7854350   -0.1977390  
N     4.8785830   -0.4586880   -0.5300070  
C     3.5557870   -2.2691560    0.5850720  
C     3.4555230   -3.7221960    0.7682650  
O     2.5934820   -4.2336120    1.4623310  
C     4.5021900   -4.6388240    0.0459660  
O     4.4189740   -5.8492220    0.1671730  
C     5.5541310   -3.9884620   -0.7431030  
H     7.3423980   -2.0206150   -2.1195640  
H     2.8346910   -1.6518270    1.1069490  
H     6.2987200   -4.6239140   -1.2126330  
H     6.4433420    0.4665420   -1.6751450  
