64


C     1.2880370    0.1012460   -0.6717650  
C     2.4698040   -0.2865670   -0.0786730  
C     2.8603550    0.8073640    0.7835890  
C     1.8680520    1.8124710    0.6668130  
N     0.9068780    1.3625040   -0.2314540  
C     1.9267520    3.0235910    1.3766510  
C     3.0236570    3.2250880    2.2037110  
O     3.1284050    4.3779940    2.9222040  
C     4.0337310    2.2344230    2.3173860  
O     5.0597550    2.5816660    3.1755560  
C     3.9613570    1.0382490    1.6287040  
H     1.1336630    3.7638010    1.3468200  
H     3.9417410    4.3136560    3.4524770  
H     5.6711890    1.8355890    3.2640850  
H     4.7271960    0.2789860    1.7555930  
H     0.6575640   -0.4291610   -1.3711960  
C    -3.4325380    0.3555390   -0.1922420  
C    -2.0498880    0.3428150    0.0004070  
C    -1.5283890    1.5334420   -0.5783430  
C    -2.6299400    2.2589100   -1.1140490  
N    -3.7588050    1.5178690   -0.8749550  
C    -2.4864620    3.5072650   -1.7315510  
C    -1.2056290    4.0307680   -1.8140320  
O    -1.0001430    5.2409960   -2.3995770  
C    -0.0793690    3.3166370   -1.3132570  
O     1.1276820    3.9415250   -1.5358290  
C    -0.2278760    2.0781890   -0.7006300  
H    -1.4853000   -0.3680860    0.5852030  
H    -4.7253890    1.7786140   -1.0310520  
H    -3.3264650    4.0693400   -2.1247780  
H    -0.0478230    5.4330170   -2.3242060  
H     1.7845530    3.6499860   -0.8784190  
C     3.4572090   -2.1986330   -3.9141670  
C     4.0700560   -3.3222270   -3.4230990  
C     4.0423990   -3.2259410   -1.9906800  
C     3.3849900   -2.0103250   -1.6689220  
N     3.0290240   -1.4124110   -2.8613280  
C     3.1807380   -1.5500520   -0.3483740  
C     3.6813480   -2.3776790    0.6589920  
O     3.5243280   -2.0302060    1.9754680  
C     4.3430230   -3.5956610    0.3557890  
O     4.7670220   -4.2881730    1.4791510  
C     4.5241970   -4.0334710   -0.9417080  
H     4.4922700   -4.1252860   -4.0116620  
H     2.6356260   -0.4864750   -2.9331610  
H     3.8993930   -2.7574530    2.5022790  
H     5.1525410   -5.1338620    1.2072650  
H     5.0361610   -4.9725110   -1.1428510  
H     3.2785180   -1.8910730   -4.9349640  
C    -3.1705570   -3.8644680    1.0223710  
C    -4.4722280   -4.0847420    1.3409700  
C    -5.1939300   -2.8582000    1.0800740  
C    -4.1922850   -1.8890280    0.5959050  
N    -2.9778940   -2.5477080    0.6155030  
C    -4.4535660   -0.5924970    0.2092140  
C    -5.8846320   -0.2192290    0.1990780  
O    -6.3018210    0.8350920   -0.2662460  
C    -6.9531830   -1.2114000    0.7992740  
O    -8.1085510   -0.8205220    0.8783480  
C    -6.5135060   -2.5333600    1.2060880  
H    -4.8965920   -5.0043510    1.7167330  
H    -7.2564340   -3.2249950    1.5897890  
H    -2.3265060   -4.5401160    1.0636250  
H    -2.1641120   -2.2134570    0.1202950  
