62


C     2.2084640   -1.3497450    0.0655420  
C     2.6316680   -2.6290580    0.3870940  
C     4.0489720   -2.6603690    0.2573670  
C     4.4594060   -1.3611270   -0.1546830  
N     3.3307020   -0.5720980   -0.2282490  
C     5.7971510   -1.0367150   -0.4074780  
C     6.7389530   -2.0372840   -0.2285930  
O     8.0529970   -1.7790560   -0.4593140  
C     6.3491480   -3.3408640    0.2006490  
O     7.4089840   -4.2117610    0.3357070  
C     5.0304520   -3.6593180    0.4461270  
H     1.9893400   -3.4341180    0.7168500  
H     3.2853670    0.3065550   -0.7248770  
H     6.1160260   -0.0501690   -0.7268540  
H     8.5488770   -2.5973210   -0.2808200  
H     7.0862110   -5.0836800    0.6079970  
H     4.7534400   -4.6603960    0.7691060  
C     0.8885830   -0.7868250    0.0439860  
C    -0.3401570   -1.4002300   -0.0416710  
C    -1.3542450   -0.3810530   -0.0458200  
C    -0.6367270    0.9062100    0.0417710  
N     0.7220040    0.6052400    0.0426060  
C    -1.2010950    2.1451950    0.1022160  
C    -2.6762390    2.1894580    0.0060890  
O    -3.3037350    3.2296790   -0.0683140  
C    -3.4710320    0.8345470   -0.0392350  
O    -4.6863050    0.8819640    0.0519950  
C    -2.7267810   -0.4383430   -0.1259400  
H    -0.5032290   -2.4596730   -0.1731800  
H     1.3905050    1.2412080    0.4580730  
C    -2.9628210   -3.9706660    2.5039010  
C    -3.8647210   -4.7122390    1.8092160  
C    -4.2186820   -3.9604110    0.6230220  
C    -3.4324690   -2.7052860    0.6826280  
N    -2.6794540   -2.7833220    1.8411740  
C    -3.4934830   -1.6899140   -0.2283100  
C    -4.3852470   -1.9031530   -1.3914120  
O    -4.4322930   -1.1304710   -2.3318250  
C    -5.2553540   -3.2125000   -1.4512120  
O    -6.0329380   -3.3552330   -2.3824550  
C    -5.0876440   -4.2071400   -0.3949680  
H    -4.2539550   -5.6797700    2.0908780  
H    -5.6863660   -5.1111800   -0.4500220  
H    -2.4747610   -4.1891980    3.4447940  
H    -2.0983060   -2.0365310    2.1886570  
C     1.8773790    3.8172280   -2.6182440  
C     2.1550500    4.9537080   -1.9060530  
C     1.3227580    4.9337120   -0.7349220  
C     0.5588490    3.7393470   -0.7896430  
N     0.9332800    3.0658590   -1.9368570  
C    -0.4025480    3.3864800    0.1836470  
C    -0.5702030    4.2894380    1.2364120  
O    -1.4407100    3.9972930    2.2403170  
C     0.1886280    5.4863390    1.3056940  
O    -0.0909780    6.2553530    2.4211190  
C     1.1271270    5.8152640    0.3460040  
H     2.8657080    5.7202780   -2.1832580  
H     0.4451510    2.2663180   -2.3107770  
H    -1.5016170    4.7859880    2.8072800  
H     0.2975070    7.1357090    2.3109860  
H     1.6975220    6.7383720    0.4270500  
H     2.2778200    3.4676100   -3.5595490  
