62


C     1.2716580   -0.5781380    1.9022260  
C    -0.0140690   -0.9723610    1.6645390  
C    -0.0169780   -1.6893170    0.4188830  
C     1.3222570   -1.7148320   -0.0395760  
N     2.1116180   -1.0422680    0.8919570  
C     1.7173940   -2.3530580   -1.2179210  
C     0.7324070   -3.0160310   -1.9343810  
O     1.0475440   -3.6816190   -3.0810740  
C    -0.6165690   -3.0195980   -1.4973590  
O    -1.4809740   -3.6933820   -2.3395580  
C    -1.0255490   -2.3319550   -0.3482760  
H    -0.8624230   -0.7743230    2.3027130  
H     2.7443140   -2.3543130   -1.5666390  
H     0.2092190   -4.0703840   -3.3949250  
H    -2.0400500   -4.2818050   -1.7919500  
H     1.6887230    0.0033750    2.7122480  
C    -3.6474190    1.1283690    0.5393700  
C    -4.8196420    0.4852880    0.8670720  
C    -4.5602200   -0.9135380    0.7128530  
C    -3.1144670   -0.9854810    0.3025770  
N    -2.5969140    0.1999310    0.1933990  
C    -2.4495040   -2.2649810    0.0356520  
C    -3.2677750   -3.3511650    0.0983340  
O    -2.8469080   -4.6134040   -0.1784070  
C    -4.7118730   -3.3106370    0.4938610  
O    -5.3093280   -4.3932290    0.5331550  
C    -5.3261970   -2.0292270    0.8149400  
H    -5.7651590    0.9316560    1.1418280  
H    -3.6478520   -5.1725430   -0.0264590  
H    -6.3742890   -2.0264610    1.0966550  
C    -4.2688660    3.5475110    0.8032900  
C    -3.3896840    2.5336610    0.4884870  
C    -2.1645050    3.2499120    0.0551530  
C    -2.5363890    4.6866880    0.1761150  
N    -3.7641600    4.8367540    0.6212100  
C    -1.6341440    5.7462160   -0.1606890  
C    -0.4024850    5.4005370   -0.6091290  
O     0.5404530    6.2814350   -0.9698830  
C     0.0110160    3.9595170   -0.7353430  
O     1.1483650    3.7534590   -1.1617220  
C    -0.9367440    2.8791630   -0.3632870  
H    -1.9462730    6.7795210   -0.0595140  
H     1.3126620    5.7413790   -1.2487460  
H    -0.6038250    1.8491330   -0.4434440  
H    -5.2843080    3.4352240    1.1654280  
C     6.1585750   -2.5443460    1.7133360  
C     6.8394140   -1.4918710    1.1583280  
C     5.8590220   -0.5665140    0.6606620  
C     4.5884910   -1.1279960    0.9525180  
N     4.7967630   -2.3263220    1.5949010  
C     3.3912780   -0.4864580    0.6044640  
C     3.4715400    0.7387730   -0.0562900  
O     2.3157340    1.3545600   -0.4042880  
C     4.7358600    1.3114180   -0.3496530  
O     4.6644670    2.5296350   -0.9963000  
C     5.9159390    0.6773580    0.0000650  
H     7.9145580   -1.3870370    1.1089910  
H     4.0642490   -2.9501060    1.8958790  
H     2.4913030    2.1986360   -0.8563220  
H     5.5601820    2.8229280   -1.2198350  
H     6.8732250    1.1385510   -0.2358410  
H     6.5291490   -3.4411560    2.1893510  
