60


C     4.2535120   -0.8441060   -2.6063610  
C     4.0139940   -0.4771460   -1.3023620  
C     5.0993210   -0.9757900   -0.4981780  
C     5.9758700   -1.6447590   -1.3878260  
N     5.4305360   -1.5557020   -2.6558180  
C     7.1562800   -2.2642090   -0.9572570  
C     7.4521740   -2.2036460    0.3947440  
O     8.5902880   -2.7843650    0.8677420  
C     6.5790330   -1.5388750    1.3005780  
O     7.0114700   -1.5726720    2.6099940  
C     5.4140740   -0.9310170    0.8746830  
H     5.8424570   -1.9350750   -3.4939520  
H     7.8341470   -2.7750970   -1.6332340  
H     8.6249620   -2.6148220    1.8252930  
H     6.4285960   -1.0296050    3.1614140  
H     4.7600880   -0.4281400    1.5825350  
H     3.6739850   -0.6460380   -3.4963210  
C     1.5713210   -0.2297490   -0.9230430  
C     0.6658120    0.6810800   -0.4373280  
C     1.4558900    1.8161760    0.0428250  
C     2.8724830    1.4879660   -0.2551530  
N     2.8755260    0.2275370   -0.8472600  
C     3.9337940    2.2871520    0.0201310  
C     3.6885420    3.5546210    0.6997650  
O     4.5788170    4.3384490    0.9951700  
C     2.2063610    3.9025190    1.0802460  
O     1.9781150    4.9445170    1.6764840  
C     1.1459180    2.9630410    0.7040010  
H     4.9546150    2.0149920   -0.2243770  
H     0.1296980    3.2399830    0.9501050  
H     1.3786790   -1.2181300   -1.3104200  
C    -1.5683220   -3.0470520    0.0299380  
C    -2.8495460   -2.6212030    0.0679780  
C    -2.7770960   -1.1728050   -0.0880310  
C    -1.3127450   -0.8887220   -0.2025820  
N    -0.6195020   -1.9883810   -0.1371570  
C    -0.7780540    0.4625480   -0.3794170  
C    -1.7240090    1.4431270   -0.4978910  
O    -1.4301840    2.7388240   -0.7321930  
C    -3.1887690    1.1933830   -0.3780550  
O    -3.9346330    2.1715290   -0.4327210  
C    -3.7077740   -0.1966480   -0.1951910  
H    -3.7469620   -3.2049310    0.2059330  
H    -2.2994820    3.1991340   -0.7332700  
H    -1.1959670   -4.0610270    0.1117980  
C    -6.2431760   -1.9363850    2.9605620  
C    -7.4860650   -1.7716770    2.4548110  
C    -7.2867480   -1.1414520    1.1534230  
C    -5.7973070   -0.9973360    1.0433670  
N    -5.1982610   -1.4617240    2.0986150  
C    -5.1687370   -0.3896910   -0.1200350  
C    -6.0062490    0.0170770   -1.1157170  
O    -5.5858660    0.5406860   -2.2715420  
C    -7.5055690   -0.1235200   -1.0269980  
O    -8.1647200    0.2760740   -1.9838420  
C    -8.1107190   -0.7233920    0.1737190  
H    -8.4338570   -2.0384660    2.9010410  
H    -6.4021250    0.7524320   -2.7781930  
H    -9.1934240   -0.7987310    0.2018760  
H    -5.9607660   -2.3699880    3.9122870  
