62


C     5.4380300    1.9245650   -2.7777380  
C     4.4873970    1.3069610   -2.0038100  
C     5.1409790    0.2416740   -1.3016290  
C     6.5019270    0.2576110   -1.7048270  
N     6.6533370    1.2974450   -2.5981300  
C     7.4470010   -0.6645560   -1.2435810  
C     7.0135140   -1.6336130   -0.3520370  
O     7.8995200   -2.5446030    0.1402000  
C     5.6614900   -1.6832230    0.0675390  
O     5.4086570   -2.6928790    0.9715660  
C     4.7038840   -0.7622700   -0.3884080  
H     3.4425120    1.5746550   -1.9593890  
H     7.5149940    1.5500250   -3.0561090  
H     8.4888220   -0.6437290   -1.5467170  
H     7.4182670   -3.0945240    0.7831470  
H     4.5366720   -2.5536040    1.3842410  
H     5.3474430    2.7675710   -3.4478880  
C     3.3292430   -0.8132900    0.0803800  
C     2.4305910    0.1875510    0.3205200  
C     1.2059320   -0.3902430    0.8110030  
C     1.4227340   -1.8540220    0.8100560  
N     2.7510120   -2.0673620    0.4520280  
C     0.4669260   -2.7953530    1.0330530  
C    -0.8620380   -2.3199880    1.3447440  
O    -1.8515410   -3.0499620    1.3834510  
C    -1.0221040   -0.8006940    1.6814890  
O    -1.9653490   -0.4762580    2.3811980  
C     0.0036850    0.1554040    1.1890710  
H     2.6446400    1.2418380    0.2585390  
H     0.6366900   -3.8614390    0.9179580  
H     2.9849090   -2.8942110   -0.0880080  
C    -3.5288080    2.0566650   -0.4717320  
C    -3.2428280    3.3979000   -0.2920450  
C    -1.9798940    3.4496880    0.3686370  
C    -1.5784040    2.0074570    0.5151780  
N    -2.4618230    1.2130950    0.0059960  
C    -0.3241130    1.5887310    1.1326980  
C     0.4570400    2.6067650    1.5939340  
O     1.6344920    2.4423920    2.2082180  
C     0.0706650    4.0736260    1.4774690  
O     0.8898790    4.8726120    1.9540420  
C    -1.1714740    4.4440800    0.8410810  
H    -3.8741200    4.2422570   -0.5323840  
H     1.9119020    3.3682320    2.4291340  
H    -1.4031590    5.5016010    0.7649950  
C    -5.7069590    1.9482720   -1.7547280  
C    -4.6752720    1.3895380   -0.9972260  
C    -5.0091470   -0.0171180   -0.8331400  
C    -6.2267920   -0.2384560   -1.5099470  
N    -6.6147910    0.9813700   -2.0619870  
C    -6.8654160   -1.4843230   -1.5394450  
C    -6.2497150   -2.5248570   -0.8562890  
O    -6.8125160   -3.7654880   -0.8450460  
C    -5.0323710   -2.3156740   -0.1498990  
O    -4.5518140   -3.4223560    0.4934470  
C    -4.4165410   -1.0774570   -0.1285430  
H    -7.4399520    1.1251510   -2.6252400  
H    -7.8029150   -1.6587830   -2.0574820  
H    -6.2246370   -4.3281410   -0.3086380  
H    -3.6882890   -3.2215230    0.9136600  
H    -3.5068960   -0.9227460    0.4333740  
H    -5.8266370    2.9597430   -2.1161480  
