62


C    -3.2606320    1.2399490   -1.4277370  
C    -3.0935430    0.1272380   -0.6152450  
C    -4.4061410   -0.1556230   -0.0576940  
C    -5.2943900    0.8276080   -0.5577330  
N    -4.5655680    1.6608380   -1.3907460  
C    -6.6485580    0.8896660   -0.2093080  
C    -7.1223680   -0.0716870    0.6692180  
O    -8.4345620   -0.0735060    1.0382690  
C    -6.2483560   -1.0638340    1.1870970  
O    -6.8637500   -1.9532500    2.0474160  
C    -4.9118410   -1.1137240    0.8428170  
H    -4.9583410    2.3889570   -1.9670180  
H    -7.3242810    1.6436980   -0.5999110  
H    -8.5642680   -0.8412400    1.6223150  
H    -6.2628520   -2.6916470    2.2284390  
H    -4.2749860   -1.9031320    1.2264330  
H    -2.5435580    1.7165930   -2.0803760  
C     1.0802940    1.6405700   -0.1716550  
C    -0.2965700    1.5038490   -0.2612160  
C    -0.6101770    0.1050870   -0.3208910  
C     0.6849970   -0.6021050   -0.2536240  
N     1.6564900    0.3748720   -0.1909070  
C     0.8629920   -1.9598500   -0.2536020  
C    -0.3654950   -2.7627940   -0.2530790  
O    -0.3803390   -3.9752400   -0.1228970  
C    -1.7600040   -2.0365120   -0.3730710  
O    -2.7527480   -2.7454810   -0.4332250  
C    -1.8211270   -0.5580580   -0.4141530  
H    -1.0284220    2.2884510   -0.1472740  
H     2.6494220    0.2322210   -0.0479100  
C     4.1324460   -1.7510690    2.7468700  
C     5.0014670   -2.6100970    2.1292330  
C     4.3725830   -3.0483780    0.9148350  
C     3.1068650   -2.4097050    0.8480040  
N     2.9921100   -1.6168220    1.9737130  
C     2.1869570   -2.6153290   -0.2028280  
C     2.5911150   -3.4982380   -1.2071870  
O     1.7796920   -3.7153570   -2.2800530  
C     3.8526270   -4.1431510   -1.1547870  
O     4.0970250   -4.9735930   -2.2353670  
C     4.7416360   -3.9308510   -0.1182530  
H     5.9803520   -2.8931770    2.4911220  
H     2.1590070   -1.1195450    2.2461290  
H     2.1914250   -4.4178230   -2.8124020  
H     4.9135260   -5.4700330   -2.0785230  
H     5.7052810   -4.4365130   -0.1058880  
H     4.2318310   -1.2029810    3.6729540  
C     0.2215740    5.8533870   -1.1244740  
C     1.3660710    6.4197360   -0.6682740  
C     2.2059380    5.3506080   -0.1691910  
C     1.4410050    4.1027500   -0.3582330  
N     0.2382300    4.4737320   -0.9108810  
C     1.8895030    2.8346660   -0.0404380  
C     3.2877870    2.7564540    0.4313790  
O     3.8840230    1.6999940    0.5960740  
C     4.0710370    4.0836000    0.7412570  
O     5.1729420    3.9939270    1.2597260  
C     3.4536160    5.3520220    0.3792000  
H     1.6136770    7.4711070   -0.6772890  
H     4.0186560    6.2619000    0.5547820  
H    -0.6431960    6.3136810   -1.5830550  
H    -0.3982070    3.8140660   -1.3337550  
