62


C    -1.0583320   -1.8191350   -0.1847700  
C    -1.8895830   -0.7217390   -0.0210390  
C    -3.2049560   -1.1111740   -0.4136670  
C    -3.1314780   -2.4761990   -0.8127290  
N    -1.8292170   -2.8949500   -0.6299370  
C    -4.2419930   -3.1946390   -1.2640600  
C    -5.4531640   -2.5215600   -1.2939170  
O    -6.5709280   -3.1614840   -1.7199440  
C    -5.5546470   -1.1578620   -0.8881750  
O    -6.8260770   -0.6557500   -1.0071200  
C    -4.4557680   -0.4262780   -0.4484890  
H    -1.5922050    0.2302820    0.3952910  
H    -1.4368110   -3.7143230   -1.0716840  
H    -4.1936280   -4.2342900   -1.5695980  
H    -7.3084280   -2.5282410   -1.6510270  
H    -6.8773700    0.2108600   -0.5644780  
C     0.3422160   -1.9609160    0.0820150  
C     1.3279190   -1.0043300    0.1662020  
C     2.5732180   -1.6542630    0.4441460  
C     2.2659630   -3.0974880    0.5180540  
N     0.9103360   -3.2358920    0.2440070  
C     3.1600620   -4.0784590    0.7984620  
C     4.5487960   -3.6952270    0.9836750  
O     5.4420650   -4.4940630    1.2200620  
C     4.9281210   -2.1739510    0.8446320  
O     6.1082480   -1.8825950    0.9690680  
C     3.8654370   -1.1716660    0.5997510  
H     1.1855350    0.0469250   -0.0311440  
H     2.8975540   -5.1300220    0.8596600  
H     0.3790620   -4.0139250    0.6117350  
C     3.3728580    1.2629600    1.0669530  
C     4.1736090    0.2492990    0.6038770  
C     5.3690040    0.9659810    0.0829410  
C     5.0616930    2.4035700    0.3213920  
N     3.9025200    2.5586100    0.9083660  
C     5.9648190    3.4552320   -0.0599040  
C     7.1206430    3.1061780   -0.6740830  
O     8.0521680    3.9785030   -1.0935590  
C     7.4547770    1.6687520   -0.9460850  
O     8.5161390    1.4267780   -1.5193520  
C     6.5162670    0.6049920   -0.5228080  
H     5.7037530    4.4886800    0.1394660  
H     8.7597790    3.4262150   -1.4938140  
H     6.8200860   -0.4191470   -0.6976600  
H     2.4184110    1.1569020    1.5673300  
C    -7.0834960    1.7206180    2.5211170  
C    -6.4420310    0.7595990    1.7808720  
C    -5.5275170    1.4429350    0.9019470  
C    -5.6629700    2.8315690    1.1678900  
N    -6.6182350    2.9672860    2.1543030  
C    -4.9057770    3.8084040    0.5113020  
C    -3.9937110    3.3722630   -0.4354040  
O    -3.2349420    4.2790890   -1.1120960  
C    -3.8449440    1.9893230   -0.7261490  
O    -2.9212000    1.7385880   -1.7167930  
C    -4.5930330    1.0064060   -0.0788200  
H    -6.5804580   -0.3082770    1.8753220  
H    -6.9186540    3.8423980    2.5546650  
H    -5.0046630    4.8697750    0.7139550  
H    -2.6702200    3.7806430   -1.7283090  
H    -2.8407190    0.7796950   -1.8512300  
H    -7.8346490    1.6187960    3.2914450  
