62


C     0.1307920    4.8601930    0.6213760  
C    -1.0559180    5.2183670    1.1774110  
C    -1.8354230    4.0195530    1.3532870  
C    -1.0590900    2.9346620    0.8820910  
N     0.1688180    3.4670540    0.4379760  
C    -1.5499030    1.6243290    0.8528020  
C    -2.8300340    1.4086950    1.3482820  
O    -3.3471430    0.1472160    1.3498790  
C    -3.6095330    2.4814240    1.8478160  
O    -4.8521870    2.1038390    2.3036500  
C    -3.1281850    3.7792760    1.8476520  
H    -1.3469120    6.2236710    1.4495450  
H    -1.0078330    0.7834380    0.4375600  
H    -4.2635670    0.2038410    1.6733750  
H    -5.3682560    2.8868310    2.5470540  
H    -3.7439930    4.5968280    2.2156970  
H     0.9986710    5.4506860    0.3709690  
C     1.2484780    2.8165900   -0.1152170  
C     2.2008620    3.3044570   -0.9724650  
C     3.1616380    2.2618590   -1.1862070  
C     2.7002220    1.0964090   -0.3906130  
N     1.5160180    1.4829540    0.2039790  
C     3.3540100   -0.1055290   -0.2648040  
C     4.6651970   -0.1558100   -0.9191100  
O     5.4883110   -1.0502400   -0.7154700  
C     5.0901010    0.9829200   -1.9147710  
O     6.0954100    0.8071880   -2.5873980  
C     4.2914420    2.1937750   -1.9474000  
H     2.1992130    4.2772080   -1.4401010  
H     4.6246730    3.0091730   -2.5809330  
H     1.0866320    0.9782370    0.9659810  
C    -0.7131100   -2.0587890   -0.3096380  
C     0.4312160   -1.3073300   -0.6048120  
C     1.4439610   -1.6663320    0.3186040  
C     0.8845780   -2.6756210    1.1625840  
N    -0.4095940   -2.8772490    0.7692030  
C     1.6174770   -3.3170720    2.1664960  
C     2.9446790   -2.9472320    2.2961690  
O     3.7325530   -3.5399850    3.2215500  
C     3.5333260   -1.9311790    1.4737050  
O     4.8467960   -1.6949210    1.7703500  
C     2.7995320   -1.2407880    0.5132040  
H     0.5009450   -0.5672590   -1.3857640  
H    -1.1096570   -3.4526540    1.2183510  
H     1.1999390   -4.0900430    2.8023060  
H     4.6231950   -3.1542810    3.1008230  
H     5.3134250   -1.5296870    0.9115560  
C    -2.4289330   -0.4659100   -4.1446160  
C    -1.5232680   -0.9085260   -3.2315310  
C    -2.3140660   -1.4487670   -2.1348520  
C    -3.7081880   -1.2492540   -2.5772440  
N    -3.7766280   -0.6600590   -3.7453070  
C    -4.8364930   -1.6632110   -1.7800740  
C    -4.5869420   -2.2893030   -0.6096460  
O    -5.5461860   -2.7541360    0.2216410  
C    -3.1929310   -2.5553910   -0.1464760  
O    -3.0725040   -3.2437120    0.8730090  
C    -2.0201510   -2.0082000   -0.9134690  
H    -0.4476260   -0.9175760   -3.3284230  
H    -5.8454000   -1.4880280   -2.1374690  
H    -5.0643600   -3.2176100    0.9388400  
H    -2.2318510   -0.0132500   -5.1092210  
