64


C     1.9364720   -0.5637280    0.1334980  
C     3.2459740   -0.1892520   -0.0656580  
C     3.2121570    1.2278560   -0.3718340  
C     1.8563300    1.6400720   -0.3317460  
N     1.0850220    0.5238900   -0.0257000  
C     1.4611100    2.9607500   -0.5712180  
C     2.4520980    3.8805390   -0.8750420  
O     2.1206880    5.1819270   -1.1189600  
C     3.8136880    3.4828010   -0.9446730  
O     4.6797470    4.5080700   -1.2730430  
C     4.2029400    2.1789020   -0.7010200  
H     0.4239870    3.2725830   -0.5480150  
H     2.9432070    5.6505080   -1.3428530  
H     5.5757970    4.1539220   -1.3738160  
H     5.2496340    1.8929640   -0.7719720  
H     1.5287640   -1.5387650    0.3597820  
C    -1.0919450   -0.5842740    3.5719650  
C    -2.3581400   -0.4157620    3.0733730  
C    -2.2251220    0.0296250    1.7137760  
C    -0.8352780    0.1036460    1.4479870  
N    -0.1689760   -0.2680470    2.5941030  
C    -0.3149550    0.4874680    0.1989330  
C    -1.2332820    0.8020730   -0.7995310  
O    -0.7955390    1.1714470   -2.0326220  
C    -2.6284130    0.7614520   -0.5380000  
O    -3.3807710    1.1613580   -1.6235830  
C    -3.1529830    0.3750400    0.6947240  
H    -3.2778840   -0.6041840    3.6084490  
H     0.8345660   -0.3141040    2.6853490  
H    -1.5853950    1.3454480   -2.5750760  
H    -4.3238180    1.0053300   -1.4582540  
H    -0.7650600   -0.9098040    4.5492400  
C     4.1809440   -4.2068230   -1.8632360  
C     3.5790830   -3.0241310   -1.5216640  
C     4.4773550   -2.3280810   -0.6419030  
C     5.6258500   -3.1495050   -0.4917560  
N     5.4145470   -4.2889940   -1.2420740  
C     6.7310700   -2.7794900    0.2845340  
C     6.6688860   -1.5522960    0.9241070  
O     7.7106160   -1.1376230    1.7072790  
C     5.5301160   -0.7176950    0.7925340  
O     5.6192310    0.4546200    1.5241770  
C     4.4243320   -1.0728920    0.0205760  
H     2.6150940   -2.6793690   -1.8671540  
H     6.0657980   -5.0520580   -1.3357200  
H     7.6105170   -3.4047900    0.4003730  
H     7.4550850   -0.2753890    2.0785280  
H     4.7963250    0.9595100    1.4128960  
H     3.8354110   -5.0059850   -2.5038850  
C    -5.2528780    0.9597430    1.9896510  
C    -4.6062030    0.3634840    0.9437220  
C    -5.6441110   -0.2918160    0.1499710  
C    -6.9370010   -0.0052780    0.8229180  
N    -6.6233710    0.7489990    1.9364980  
C    -8.1453890   -0.4370190    0.3835390  
C    -8.1959050   -1.2465050   -0.8321340  
O    -9.2381710   -1.6681920   -1.3076810  
C    -6.8386140   -1.5887260   -1.5475720  
O    -6.8563080   -2.2840320   -2.5500100  
C    -5.5956520   -1.0553690   -0.9772820  
H    -9.0791340   -0.2170850    0.8921160  
H    -4.6647040   -1.3195070   -1.4698790  
H    -4.8255150    1.5455200    2.7926580  
H    -7.2943720    1.1148520    2.5937530  
