60


C     5.9618790    1.9703300    1.3687720  
C     7.3141990    1.8361830    1.2853270  
C     7.5859010    0.6920350    0.4558730  
C     6.3369360    0.1486410    0.0680300  
N     5.3360200    0.9443060    0.6484470  
C     6.2362930   -0.9353470   -0.8091720  
C     7.4168920   -1.5023060   -1.2710820  
O     7.3640160   -2.5699050   -2.1224680  
C     8.6730320   -0.9856790   -0.8731120  
O     9.7554290   -1.6534850   -1.4133140  
C     8.7681870    0.1034630   -0.0224030  
H     8.0423310    2.4824820    1.7563170  
H     5.2911150   -1.3551110   -1.1250900  
H     8.2815660   -2.8229280   -2.3222590  
H    10.5758720   -1.2585660   -1.0832000  
H     9.7418060    0.5022040    0.2559790  
H     5.3593230    2.7067280    1.8742450  
C     2.2808110    3.9250220   -0.0153680  
C     1.1640400    3.1595740   -0.0740860  
C     1.6239220    1.7888240    0.1246710  
C     3.0897080    1.9293650    0.3048120  
N     3.4686980    3.1737870    0.2115980  
C     3.9513710    0.7754920    0.5467350  
C     3.3278630   -0.4352060    0.6709390  
O     3.9765790   -1.5773750    0.9788680  
C     1.8685020   -0.6019320    0.4790890  
O     1.4094830   -1.7413830    0.6010940  
C     0.9985550    0.5784140    0.1603180  
H     0.1421330    3.4879230   -0.1990260  
H     3.2826790   -2.2726320    0.9800090  
H     2.3601250    5.0016660   -0.1036430  
C    -1.0388870    1.0405650   -1.1953110  
C    -0.4073800    0.3795150   -0.1713090  
C    -1.4303810   -0.4669100    0.4584300  
C    -2.6806480   -0.2329690   -0.2992620  
N    -2.3584200    0.6686370   -1.3004470  
C    -3.9006630   -0.7937400   -0.0407960  
C    -3.9699820   -1.6909380    1.1300200  
O    -4.9954570   -2.2553390    1.4714280  
C    -2.6631870   -1.9310550    1.9678630  
O    -2.7284790   -2.6466960    2.9532290  
C    -1.4196020   -1.2842600    1.5421600  
H    -0.5242180   -1.4970570    2.1118360  
H    -0.6121010    1.7421670   -1.8993130  
H    -3.0343670    1.0662740   -1.9355400  
C    -5.1493590   -0.7283800   -2.2367180  
C    -5.0836430   -0.5671480   -0.8805740  
C    -6.4186900   -0.1320160   -0.4565730  
C    -7.2418660   -0.0525620   -1.6869050  
N    -6.4057420   -0.4115290   -2.7301960  
C    -8.5483620    0.3110170   -1.7233670  
C    -9.2013550    0.6705570   -0.4678830  
O   -10.3706230    1.0154710   -0.3984400  
C    -8.3421770    0.6188460    0.8472420  
O    -8.8572620    0.9423890    1.9042360  
C    -6.9395870    0.1879760    0.7536160  
H    -9.1311990    0.3552310   -2.6383040  
H    -6.3730420    0.1230200    1.6755170  
H    -4.3798600   -1.0830330   -2.9110540  
H    -6.7094790   -0.5664290   -3.6791860  
