64


C    -5.9503900   -3.6702030    2.3080070  
C    -4.9957870   -2.8507650    1.7632170  
C    -5.6402680   -2.0625340    0.7511580  
C    -7.0069060   -2.4515130    0.7345660  
N    -7.1636040   -3.4353180    1.6891920  
C    -7.9539400   -1.8753600   -0.1182430  
C    -7.5089380   -0.8842280   -0.9802930  
O    -8.3815140   -0.3043240   -1.8542840  
C    -6.1531570   -0.4754850   -0.9784570  
O    -5.8719390    0.5126940   -1.9109930  
C    -5.1986090   -1.0334680   -0.1258940  
H    -3.9572520   -2.8075940    2.0575670  
H    -8.0308750   -3.8993960    1.9084790  
H    -8.9960870   -2.1773170   -0.1369790  
H    -7.8653530    0.3158700   -2.3987270  
H    -4.9257460    0.4893670   -2.1230980  
H    -5.8682020   -4.4096310    3.0920490  
C    -2.6731760   -1.3691090   -0.1453400  
C    -3.7950420   -0.5965510   -0.1430720  
C    -3.2701360    0.7843280   -0.0633050  
C    -1.7821790    0.6254640   -0.0067260  
N    -1.4571640   -0.6386520   -0.0846170  
C    -0.8730240    1.7567240    0.1021900  
C    -1.4702140    2.9896680    0.0297700  
O    -0.7943920    4.1461190    0.0044590  
C    -2.9533680    3.1773200   -0.0264460  
O    -3.3882470    4.3294190   -0.0727190  
C    -3.8441910    2.0007420   -0.0548630  
H    -1.4844180    4.8457540   -0.0286290  
H    -4.9125870    2.1793600   -0.1117880  
H    -2.6257010   -2.4501820   -0.1952190  
C     2.1911570   -0.7286030   -1.9922470  
C     3.3083910   -0.2200680   -1.3725630  
C     2.8194430    0.7296010   -0.3958260  
C     1.4059620    0.7535480   -0.4976140  
N     1.0482080   -0.1174330   -1.5086590  
C     0.5879140    1.6014310    0.2875050  
C     1.2605360    2.3591450    1.2594450  
O     0.5587450    3.1166720    2.1467030  
C     2.6744630    2.3458510    1.3602040  
O     3.1672650    3.1766450    2.3538330  
C     3.4604970    1.5676850    0.5349730  
H     0.1358640   -0.5608360   -1.4926980  
H     1.2109290    3.6100230    2.6745730  
H     4.1334280    3.2064060    2.2942390  
H     4.5447620    1.5852780    0.6168140  
H     2.1238910   -1.4994000   -2.7476910  
C     5.2937810   -0.5906230   -2.9066010  
C     4.7027810   -0.5608630   -1.6635240  
C     5.7295480   -0.9548410   -0.7226120  
C     6.9131720   -1.2042750   -1.4640560  
N     6.6157350   -0.9808650   -2.7932310  
C     8.1083930   -1.6207290   -0.8635500  
C     8.1069750   -1.7969190    0.5115330  
O     9.2459540   -2.2030990    1.1489380  
C     6.9280860   -1.5663210    1.2678810  
O     7.0806050   -1.7910730    2.6264330  
C     5.7504380   -1.1539350    0.6724860  
H     7.2684280   -1.0546470   -3.5571690  
H     9.0152970   -1.8145460   -1.4276460  
H     9.0248460   -2.2972950    2.0914760  
H     6.2144680   -1.7380410    3.0566850  
H     4.8557130   -0.9917990    1.2693950  
H     4.8712890   -0.3406110   -3.8696150  
