60


C    -2.7834490    5.8183620   -0.0841840  
C    -2.3212660    4.5216510   -0.0577520  
C    -0.8904910    4.5746780   -0.0415590  
C    -0.5427530    5.9476530   -0.0491890  
N    -1.7121190    6.6776690   -0.0855990  
C     0.7777900    6.4124340    0.0002620  
C     1.7856730    5.4680440    0.0749750  
O     3.0863860    5.8626180    0.1344310  
C     1.4924370    4.0787330    0.0882280  
O     2.5979530    3.3011640    0.1576750  
C     0.1567080    3.5904420    0.0049870  
H    -2.9558920    3.6511670   -0.0144920  
H    -1.7685790    7.6844890   -0.0887440  
H     1.0298280    7.4681430   -0.0098720  
H     3.6227050    5.0492480    0.1583500  
H     2.2896550    2.3451130    0.1855220  
H    -3.7964750    6.1940360   -0.0981260  
C    -0.0977620    2.1779220   -0.0512310  
C    -1.2509510    1.4586010   -0.3112640  
C    -0.9015320    0.0821880   -0.2224290  
C     0.5538980    0.0678480    0.1078620  
N     1.0065470    1.2869730    0.1938720  
C     1.3208160   -1.1501370    0.3110370  
C     0.6034320   -2.3047530    0.1755260  
O     1.1178440   -3.5227370    0.3773730  
C    -0.8552780   -2.3477320   -0.2146500  
O    -1.3455220   -3.4691930   -0.3691830  
C    -1.5932860   -1.0937490   -0.3810240  
H    -2.2248700    1.8464250   -0.5563510  
H     0.3842440   -4.1491280    0.1684920  
C    -3.4201770   -0.4226460   -1.9173820  
C    -4.7507820   -0.6093670   -2.0855290  
C    -5.2048740   -1.4835400   -1.0256490  
C    -4.0073870   -1.8034500   -0.2107710  
N    -2.9310200   -1.1355480   -0.8113590  
C    -4.0388350   -2.5549240    0.9152620  
C    -5.3200310   -3.1214300    1.3407260  
O    -5.4358180   -3.8065940    2.3444260  
C    -6.5923040   -2.8249730    0.4693980  
O    -7.6664140   -3.2975830    0.8057690  
C    -6.4326030   -1.9723900   -0.7108180  
H    -5.3595290   -0.1940270   -2.8757920  
H    -3.1645600   -2.7798200    1.5136520  
H    -7.3198660   -1.7456510   -1.2941480  
H    -2.7236850    0.1539740   -2.5105390  
C     3.3186650   -0.1923780    1.5120230  
C     2.7438790   -1.0952600    0.6577080  
C     3.8333310   -1.9367220    0.1594830  
C     5.0703800   -1.4479830    0.8183500  
N     4.6803400   -0.3967310    1.6271080  
C     6.3114310   -1.9582040    0.6204500  
C     6.4638590   -3.0637160   -0.3207900  
O     7.5384700   -3.5901210   -0.5645790  
C     5.1753300   -3.5810980   -1.0553210  
O     5.2790510   -4.4914600   -1.8618210  
C     3.8877730   -2.9479260   -0.7455190  
H     7.1988200   -1.5782860    1.1174490  
H     3.0113250   -3.3329280   -1.2514960  
H     2.8425020    0.6018370    2.0690440  
H     5.3026950    0.1530650    2.1988690  
