60


C    -3.1290810   -2.0471140    2.7506310  
C    -4.1439790   -2.8325190    2.2760110  
C    -4.7311470   -2.1347210    1.1663330  
C    -4.0254300   -0.9115780    1.0243490  
N    -3.0760030   -0.8663570    2.0268130  
C    -4.3374760    0.0501320    0.0376730  
C    -5.3640290   -0.2933790   -0.8485070  
O    -5.6880420    0.5422810   -1.8767990  
C    -6.0754510   -1.5126690   -0.7151640  
O    -7.0684780   -1.6805110   -1.6660530  
C    -5.7861780   -2.4237410    0.2808140  
H    -4.4429090   -3.7952840    2.6670490  
H    -2.2640450   -0.2685340    1.9745900  
H    -6.4187810    0.1208440   -2.3619790  
H    -7.4436620   -2.5694310   -1.5840340  
H    -6.3537670   -3.3482710    0.3666000  
H    -2.4351040   -2.2205610    3.5611590  
C    -0.0923810    1.1545160   -0.2334760  
C    -0.1503250    2.5236410   -0.3810250  
C    -1.5416210    2.8378450   -0.3304210  
C    -2.2299130    1.5057410   -0.1526510  
N    -1.3526320    0.5333980   -0.0856340  
C    -3.6633650    1.3658820   -0.0648110  
C    -4.3542890    2.5488860   -0.0947780  
O    -5.6722580    2.6387590    0.0366330  
C    -3.6934090    3.9092830   -0.2754780  
O    -4.4549440    4.8808340   -0.2910130  
C    -2.2527810    3.9952410   -0.4003250  
H     0.6579250    3.2246920   -0.5226420  
H    -5.8670330    3.6046100   -0.0377230  
H    -1.8082870    4.9766940   -0.5270400  
C     2.3249230    0.8952480   -0.2074120  
C     3.2910400   -0.0675500   -0.2234800  
C     2.5937690   -1.3546080   -0.1895130  
C     1.1418280   -1.0506320   -0.1931160  
N     1.0360810    0.3630550   -0.2046120  
C     0.1698690   -1.9920450   -0.1861130  
C     0.5688080   -3.4054480   -0.1391640  
O    -0.2443100   -4.3143000   -0.1527590  
C     2.0918100   -3.7433420   -0.0558260  
O     2.4445590   -4.9086030    0.0357100  
C     3.0446600   -2.6308890   -0.0985150  
H    -0.8835900   -1.7493700   -0.2016760  
H     4.0973000   -2.8790620   -0.0815610  
H     2.4630900    1.9624250   -0.1608060  
C     5.4758140    3.2331570    1.6447410  
C     6.7623050    2.9294940    1.3653570  
C     6.7021800    1.7000270    0.5819280  
C     5.2393550    1.3882270    0.4955360  
N     4.5351080    2.2889460    1.1149830  
C     4.7289050    0.2083950   -0.2051920  
C     5.6760710   -0.5501580   -0.8374060  
O     5.3951040   -1.6189890   -1.6000920  
C     7.1454890   -0.2523520   -0.7668240  
O     7.9054850   -1.0076760   -1.3723150  
C     7.6229230    0.9181340   -0.0100340  
H     7.6562440    3.4675590    1.6480300  
H     6.2680880   -1.9518090   -1.9115010  
H     8.6939680    1.0939470    0.0145170  
H     5.0923950    4.0772690    2.2048010  
