62


C     5.1866580   -0.8241100   -2.2696600  
C     5.0042030   -0.3327780   -0.9939120  
C     6.0910450   -0.8718710   -0.1982840  
C     6.8865060   -1.6731660   -1.0578530  
N     6.3073870   -1.6261540   -2.3098760  
C     8.0207690   -2.3649710   -0.6147900  
C     8.3585720   -2.2491900    0.7243160  
O     9.4564100   -2.8985430    1.2077890  
C     7.5677900   -1.4618170    1.6041170  
O     8.0268400   -1.4539060    2.9072020  
C     6.4478900   -0.7811070    1.1651330  
H     6.6612620   -2.0881030   -3.1330120  
H     8.6301530   -2.9786570   -1.2704070  
H     9.5147500   -2.6974100    2.1578030  
H     7.4440200   -0.9045860    3.4521770  
H     5.8530580   -0.1922220    1.8590290  
H     4.6046290   -0.6396260   -3.1613660  
C     0.5459770   -0.5734350   -1.3954950  
C     1.8853500   -0.8186520   -1.4496730  
C     2.5546120    0.2948970   -0.8304060  
C     1.5534220    1.2076700   -0.4194310  
N     0.3119480    0.6629830   -0.7790990  
C     1.8462220    2.3726440    0.2957950  
C     3.1813960    2.6295520    0.5660450  
O     3.5288440    3.7633300    1.2423500  
C     4.1981670    1.7398170    0.1414870  
O     5.4742620    2.1553510    0.4659660  
C     3.9184600    0.5644190   -0.5558200  
H     2.3525700   -1.6897670   -1.8862450  
H     1.0927920    3.0827270    0.6114910  
H     4.5010870    3.7901940    1.2691470  
H     6.1154140    1.5625670    0.0382920  
H    -0.2874600   -1.1376550   -1.7869450  
C    -3.2910510   -1.1510120    0.9054100  
C    -2.0209560   -0.9119930    0.4998780  
C    -1.9787170    0.4409720   -0.0151770  
C    -3.3452430    0.9819150    0.1199290  
N    -4.1143330   -0.0352750    0.6834430  
C    -3.7287570    2.2406670   -0.2267340  
C    -2.7266540    3.1349370   -0.7734930  
O    -2.9427680    4.3020730   -1.0658060  
C    -1.2705770    2.5788810   -0.9960350  
O    -0.4569590    3.2820310   -1.5634580  
C    -0.9600670    1.1957170   -0.5383250  
H    -1.1876370   -1.5943360    0.5696850  
H    -4.7411130    2.6094110   -0.1081470  
H    -3.7160980   -2.0320630    1.3666700  
C    -6.0952250    0.9236420    1.8229510  
C    -5.4828150    0.0258750    0.9983610  
C    -6.5099790   -0.8658460    0.4801550  
C    -7.7817510   -0.4049460    1.0862020  
N    -7.4583700    0.6839250    1.8784390  
C    -8.9878420   -0.9821440    0.8610420  
C    -9.0493290   -2.1336440   -0.0389500  
O   -10.0879920   -2.7203170   -0.2957540  
C    -7.7111450   -2.6306800   -0.6997450  
O    -7.7426130   -3.5868900   -1.4562240  
C    -6.4684900   -1.9199730   -0.3745470  
H    -9.9114560   -0.6340590    1.3130950  
H    -5.5512570   -2.2656890   -0.8409580  
H    -5.6555470    1.7370060    2.3840100  
H    -8.1244220    1.2472470    2.3838620  
