64


C     6.4191650    0.6282830   -0.9079810  
C     7.0429080   -0.5456130   -0.6014060  
C     6.2165060   -1.2350530    0.3518100  
C     5.0842900   -0.4150190    0.5890860  
N     5.2122500    0.7225430   -0.2097980  
C     4.0964880   -0.7533590    1.5264870  
C     4.2361950   -1.9597200    2.2032230  
O     3.3027150   -2.3272610    3.1274020  
C     5.3457600   -2.8043420    1.9520230  
O     5.3416220   -3.9698490    2.6940980  
C     6.3340140   -2.4505800    1.0492280  
H     7.9908620   -0.8804960   -0.9995900  
H     3.2793560   -0.0911360    1.7933490  
H     3.5910680   -3.1760480    3.5054700  
H     6.1624830   -4.4586180    2.5345690  
H     7.1912400   -3.1021650    0.8907840  
H     6.7157620    1.4298000   -1.5658690  
C     0.9068980    0.5662210   -0.9440410  
C     0.6768850    1.9154590   -0.8757130  
C     1.9274330    2.5944290   -0.6797050  
C     2.9507470    1.5340280   -0.6069890  
N     2.3087420    0.3139610   -0.8490950  
C     4.2703080    1.7584350   -0.3545380  
C     4.7165850    3.1678940   -0.2604220  
O     5.8872780    3.4731950   -0.1166000  
C     3.6357080    4.3045390   -0.3840920  
O     4.0168410    5.4637630   -0.2969660  
C     2.2518110    3.9180400   -0.5937200  
H    -0.2784230    2.3938980   -1.0338830  
H     1.5093950    4.7065020   -0.6640160  
H     2.6208550   -0.5030670   -0.3252300  
C    -3.3889470   -0.0770800    0.2256610  
C    -2.1150570    0.4387390    0.0687200  
C    -1.3575310   -0.4900220   -0.7095580  
C    -2.2208980   -1.5778220   -1.0048390  
N    -3.4547740   -1.2855660   -0.4568330  
C    -1.8114530   -2.7035670   -1.7211200  
C    -0.4945060   -2.7444880   -2.1592130  
O    -0.0540910   -3.8187910   -2.8743290  
C     0.3943320   -1.6776970   -1.8906640  
O     1.6445090   -1.8631840   -2.4317750  
C    -0.0085440   -0.5355840   -1.1721860  
H    -1.7841360    1.3898760    0.4577760  
H    -4.2003580   -1.9534180   -0.3298470  
H    -2.4752460   -3.5318570   -1.9476080  
H     0.8735140   -3.6428050   -3.1111080  
H     2.1765070   -1.0515180   -2.3238880  
C    -4.4899430    1.1746040    2.1154090  
C    -4.5368230    0.4387860    0.9488160  
C    -5.9385020    0.2908200    0.6150020  
C    -6.6788030    0.9563580    1.6244000  
N    -5.7680500    1.4890310    2.5170750  
C    -8.0771120    1.0255400    1.6191010  
C    -8.7443320    0.4159530    0.5683630  
O   -10.1064430    0.4530360    0.5148070  
C    -8.0203160   -0.2396070   -0.4630630  
O    -8.8233410   -0.7831400   -1.4471860  
C    -6.6390110   -0.3068690   -0.4529560  
H    -6.0032800    1.9995220    3.3538950  
H    -8.6445920    1.5368300    2.3899330  
H   -10.3758150    0.0012180   -0.3035190  
H    -8.2716350   -1.1229020   -2.1671480  
H    -6.1098540   -0.7901580   -1.2714340  
H    -3.6331400    1.4743650    2.7015690  
