62


C     5.6388040    1.7359800   -1.4943990  
C     7.0002050    1.6354820   -1.3980710  
C     7.2820520    0.5929020   -0.4519130  
C     6.0343050    0.0909240   -0.0010450  
N     5.0322940    0.8062880   -0.6501780  
C     5.9304570   -0.9595110    0.9183020  
C     7.1093630   -1.5055840    1.3997970  
O     7.0668850   -2.5299980    2.3041610  
C     8.3680650   -1.0119980    0.9659220  
O     9.4508790   -1.6593580    1.5359790  
C     8.4668680    0.0209400    0.0528870  
H     7.7199200    2.2462420   -1.9264500  
H     4.9772220   -1.3372750    1.2684100  
H     7.9871870   -2.7498000    2.5287760  
H    10.2689300   -1.2288890    1.2474240  
H     9.4426220    0.3796330   -0.2699770  
H     5.0228520    2.4176330   -2.0642590  
C     2.2772500   -0.4144870   -3.7791290  
C     1.1319280   -0.4039660   -3.0249950  
C     1.5051500   -0.0302320   -1.6884970  
C     2.9056880    0.1820330   -1.7056450  
N     3.3514710   -0.0600630   -2.9856060  
C     3.6348910    0.5819310   -0.5716920  
C     2.9171240    0.7635150    0.6078070  
O     3.5594340    1.1538800    1.7410610  
C     1.5175250    0.5257980    0.6474790  
O     0.9879860    0.6963750    1.9110650  
C     0.7855670    0.1399730   -0.4752070  
H     0.1362870   -0.6230140   -3.3835890  
H     4.3156430   -0.0002020   -3.2759940  
H     2.8835900    1.2235730    2.4388120  
H     0.0183910    0.6857710    1.8751370  
H     2.4204350   -0.6422100   -4.8258780  
C    -1.3078760   -1.2530800   -0.8240010  
C    -0.6626980   -0.1244030   -0.3987180  
C    -1.7001260    0.7478560    0.1370860  
C    -2.9866670    0.0224790   -0.0325910  
N    -2.6807990   -1.1666340   -0.6641090  
C    -4.2151910    0.5073090    0.3374890  
C    -4.1806550    1.7596160    1.1429570  
O    -5.1206690    2.1351700    1.8192280  
C    -2.8656670    2.6129450    1.1714710  
O    -2.9177680    3.7467860    1.6214860  
C    -1.6399320    2.0011930    0.6727900  
H    -0.7244310    2.5839950    0.7092300  
H    -0.8709660   -2.1465850   -1.2509170  
H    -3.3049240   -1.9668430   -0.5245050  
C    -5.6666300   -3.7266220    0.4608020  
C    -7.0012840   -3.5496120    0.3550990  
C    -7.1842530   -2.1170760    0.1595410  
C    -5.7937740   -1.5483850    0.2136670  
N    -4.9218510   -2.5087930    0.3660210  
C    -5.5254630   -0.1226630    0.0914640  
C    -6.6160520    0.6391680   -0.2504150  
O    -6.5436170    1.9368880   -0.5459770  
C    -8.0149280    0.0901720   -0.3400020  
O    -8.9151220    0.8749920   -0.6301250  
C    -8.2536060   -1.3420350   -0.0958920  
H    -7.7812030   -4.2971980    0.3875330  
H    -7.4693590    2.2307980   -0.7021100  
H    -9.2756030   -1.7009550   -0.1663450  
H    -5.1210990   -4.6515180    0.6026680  
