62


C    -5.1956650    2.9985970   -0.4613640  
C    -6.5542590    3.1047890   -0.3655860  
C    -7.0456040    1.8523160    0.1395350  
C    -5.9213180    1.0124300    0.3365100  
N    -4.7876050    1.7313960   -0.0405330  
C    -6.0268260   -0.2865590    0.8483050  
C    -7.2968540   -0.7519780    1.1530790  
O    -7.4563570   -2.0120110    1.6529500  
C    -8.4367210    0.0710950    0.9536100  
O    -9.6288750   -0.5335000    1.3047000  
C    -8.3256030    1.3566860    0.4569380  
H    -7.1417780    3.9727700   -0.6322020  
H    -5.1681420   -0.9292780    1.0064900  
H    -8.4104050   -2.1522360    1.7807360  
H   -10.3654680    0.0625230    1.1041340  
H    -9.2124690    1.9722730    0.3193380  
H    -4.4560850    3.7030830   -0.8144570  
C    -2.4546760    1.8019290    0.7657430  
C    -3.4589960    1.2787470    0.0076780  
C    -2.8882790    0.1993060   -0.7882750  
C    -1.4579840    0.1409940   -0.4159320  
N    -1.2643750    1.1237720    0.5419200  
C    -0.5378020   -0.7162580   -0.9466630  
C    -1.0366070   -1.6740980   -1.9592100  
O    -0.3368770   -2.5430530   -2.4465180  
C    -2.5467020   -1.5919180   -2.3972510  
O    -2.9397050   -2.3397100   -3.2774880  
C    -3.4191470   -0.6237290   -1.7290920  
H    -4.4632440   -0.5843310   -2.0214560  
H    -2.4990140    2.6207450    1.4711920  
H    -0.3551050    1.4158120    0.8677450  
C     1.3241190   -1.4950520    2.9958310  
C     2.6333560   -1.3370800    2.6235110  
C     2.6342310   -1.0317380    1.2201260  
C     1.2814440   -1.0070330    0.7939290  
N     0.5054690   -1.2817050    1.9018340  
C     0.8809350   -0.7353630   -0.5314430  
C     1.9106200   -0.4866220   -1.4422190  
O     1.6099060   -0.1706860   -2.7254870  
C     3.2758130   -0.5314000   -1.0539590  
O     4.1631840   -0.3371880   -2.0891090  
C     3.6448800   -0.8027170    0.2611470  
H     3.4927040   -1.4167890    3.2739290  
H    -0.4917760   -1.4306550    1.8793030  
H     2.4557660   -0.0698860   -3.1995270  
H     4.9569310    0.1355380   -1.7787880  
H     0.8985190   -1.7320140    3.9605150  
C     5.6436590   -2.0248930    1.1466740  
C     6.9743380   -1.8332840    1.3111850  
C     7.2730470   -0.4865310    0.8696880  
C     5.9782240    0.0986330    0.4363020  
N     5.0181360   -0.8793260    0.6243130  
C     5.8317830    1.3677040   -0.0423610  
C     7.0166640    2.2182490   -0.1343450  
O     6.9765670    3.3759020   -0.5207210  
C     8.3994370    1.6073850    0.2958750  
O     9.4058750    2.2901000    0.1980490  
C     8.4234400    0.2320300    0.8083210  
H     7.6845590   -2.5529670    1.6915920  
H     4.8666430    1.8068240   -0.2777770  
H     9.3819940   -0.1682460    1.1248000  
H     5.0375890   -2.8987590    1.3429440  
