60


C     6.2673740   -2.9108860   -0.4860960  
C     5.4600030   -1.8503670   -0.1656960  
C     4.1158150   -2.2156830   -0.5150340  
C     4.1814600   -3.5261760   -1.0650920  
N     5.5000640   -3.9256080   -1.0220360  
C     3.0698490   -4.2064170   -1.5693160  
C     1.8513910   -3.5457000   -1.5163090  
O     0.7245300   -4.1472340   -1.9878730  
C     1.7453160   -2.2460230   -0.9648140  
O     0.4606730   -1.7141880   -1.0121510  
C     2.8556740   -1.5532260   -0.4592480  
H     5.7979590   -0.9101510    0.2412980  
H     5.8496120   -4.8104600   -1.3544860  
H     3.1291800   -5.2049170   -1.9902690  
H     0.0149160   -3.4891260   -1.8567200  
H     0.1014970   -1.5609370   -0.1037090  
H     7.3363560   -3.0277930   -0.3778260  
C     2.7201020   -0.2158640    0.1067860  
C     3.4768010    0.4277190    1.0561190  
C     2.8852970    1.7122420    1.3030730  
C     1.6990930    1.7958050    0.4134820  
N     1.6842030    0.6341720   -0.3082950  
C     0.8390960    2.8600410    0.3494200  
C     1.0985760    3.9736870    1.2861470  
O     0.3394320    4.9196150    1.4206040  
C     2.3904610    3.9285970    2.1811900  
O     2.6420850    4.8963770    2.8857460  
C     3.2225630    2.7354030    2.1385630  
H     4.3277090    0.0179960    1.5767150  
H     4.0986200    2.7040870    2.7792560  
H     0.8887280    0.2974470   -0.8336870  
C    -2.6361480    0.1476680   -0.1935660  
C    -3.4502630    0.9497210   -0.9683940  
C    -2.6916870    2.1372970   -1.2511570  
C    -1.3895260    1.9271040   -0.5375890  
N    -1.3610210    0.7647100    0.0533080  
C    -0.3471200    2.9405390   -0.5220620  
C    -0.5940600    4.0481960   -1.2887330  
O     0.2870190    5.0360790   -1.4524020  
C    -1.8808230    4.2683490   -2.0394760  
O    -1.9860790    5.3073570   -2.6930710  
C    -2.9390400    3.2580320   -1.9668160  
H    -4.4915540    0.8217630   -1.2224720  
H    -0.1675330    5.7065930   -2.0105480  
H    -3.8638370    3.4581160   -2.4988270  
C    -6.0978280   -2.5648180   -0.6287340  
C    -5.8739550   -3.3690820    0.4379690  
C    -4.6214850   -2.9534390    1.0339510  
C    -4.1340710   -1.8117510    0.2262640  
N    -5.0882880   -1.6041650   -0.7397330  
C    -2.9577840   -1.1107240    0.4427820  
C    -2.0511990   -1.7897170    1.4024040  
O    -0.8320950   -1.7022770    1.4012520  
C    -2.6642010   -2.7813170    2.4525380  
O    -2.0238490   -3.0342810    3.4579820  
C    -3.9484540   -3.3951260    2.1312730  
H    -6.5036830   -4.1763650    0.7819930  
H    -4.3290170   -4.1698170    2.7893260  
H    -6.9129020   -2.5668470   -1.3397850  
H    -4.9218560   -1.0494590   -1.5666310  
