62


C    -5.9507330    3.3936120    0.2274100  
C    -7.2255080    3.0798070    0.6212520  
C    -7.3102270    1.6483800    0.6663830  
C    -6.0348940    1.1429140    0.2934810  
N    -5.2330090    2.2320830    0.0247030  
C    -5.7373960   -0.2372140    0.1970850  
C    -6.8076360   -1.0868970    0.4735310  
O    -6.6390080   -2.4573560    0.3709620  
C    -8.0844060   -0.6075670    0.8490010  
O    -9.0034270   -1.6143890    1.0885910  
C    -8.3487990    0.7431990    0.9572910  
H    -8.0156090    3.7836100    0.8434190  
H    -4.2624200    2.1761890   -0.2424220  
H    -7.4907990   -2.8658060    0.6117920  
H    -9.8561660   -1.2256970    1.3327530  
H    -9.3378290    1.0941030    1.2439900  
H    -5.4868470    4.3569760    0.0688430  
C    -1.6194410    0.7530780    1.7041300  
C    -2.9695410    0.6479010    1.5352170  
C    -3.2107370   -0.2296750    0.4134680  
C    -1.9473860   -0.6484790   -0.0667300  
N    -0.9882950   -0.0229740    0.7281880  
C    -1.7739500   -1.5519030   -1.1169310  
C    -2.9323030   -2.0626310   -1.6814790  
O    -2.8585970   -2.9666760   -2.6916950  
C    -4.2203150   -1.6608620   -1.2282390  
O    -5.2554600   -2.2480480   -1.9199370  
C    -4.3935320   -0.7254110   -0.2061720  
H    -3.7178670    1.1263280    2.1502680  
H    -0.8003770   -1.8676490   -1.4743390  
H    -3.7837660   -3.1931580   -2.9088590  
H    -5.9314250   -2.5295110   -1.2645900  
H    -1.0261340    1.3022810    2.4205370  
C     1.0910120   -1.1794410    1.3184550  
C     2.4191280   -1.0379740    1.0743980  
C     2.5884440    0.0881020    0.1819470  
C     1.2344420    0.6208370   -0.0725460  
N     0.3612460   -0.2115490    0.6244000  
C     0.9404480    1.7229840   -0.8044240  
C     2.0515150    2.4557700   -1.4000330  
O     1.9091670    3.5008390   -2.0140100  
C     3.4958710    1.8550580   -1.2584180  
O     4.3832980    2.3336360   -1.9367690  
C     3.7061470    0.6796520   -0.3637670  
H     3.2082800   -1.6467750    1.4871110  
H    -0.0697820    2.0936730   -0.9386380  
H     0.5596610   -1.8928850    1.9334740  
C     5.0551280    0.1897060   -0.1394480  
C     5.4859210   -1.1075830   -0.0453790  
C     6.9115500   -1.0328060    0.1865000  
C     7.1966980    0.4379460    0.2291570  
N     6.1246460    1.1446910    0.0354280  
C     8.5275520    0.9389790    0.4676920  
C     9.5207570    0.0342550    0.6299760  
O    10.8052760    0.3526130    0.8498920  
C     9.2650230   -1.4535390    0.5767670  
O    10.2317990   -2.1983940    0.7396020  
C     7.8991200   -1.9431660    0.3470930  
H     4.9067300   -2.0081520   -0.1930330  
H     8.7068940    2.0077770    0.4991810  
H    11.2754530   -0.5080630    0.9222840  
H     7.7537940   -3.0189840    0.3261250  
