62


C    -4.8565150   -1.5053400    3.4276780  
C    -4.3043300   -0.6709800    2.4925330  
C    -4.7030690   -1.1512300    1.1998090  
C    -5.5199130   -2.2916550    1.4249880  
N    -5.5858640   -2.4904650    2.7879100  
C    -6.1328660   -3.0143080    0.3959560  
C    -5.9383080   -2.5559560   -0.8963380  
O    -6.5170370   -3.2000020   -1.9480820  
C    -5.1445210   -1.4089570   -1.1577380  
O    -5.0296320   -1.1065630   -2.5005430  
C    -4.4905920   -0.7052320   -0.1367930  
H    -3.6697720    0.1760640    2.7034570  
H    -6.1171360   -3.2153060    3.2433360  
H    -6.7526350   -3.8871710    0.5750180  
H    -6.2516380   -2.6930500   -2.7390310  
H    -5.2185810   -0.1509910   -2.6134710  
H    -4.7866850   -1.4862780    4.5061170  
C    -0.3544000    0.2249060    1.0591630  
C    -0.1360480    1.4523490    0.5075420  
C    -1.4020040    1.7494300   -0.2000650  
C    -2.2739530    0.5750350    0.0855660  
N    -1.6475690   -0.3062280    0.8102970  
C    -3.6337390    0.4560000   -0.4486390  
C    -3.9991980    1.4610570   -1.2967370  
O    -5.2119780    1.5071530   -1.9227110  
C    -3.1435020    2.6248530   -1.6265510  
O    -3.5992280    3.4818750   -2.3911230  
C    -1.7985800    2.7307320   -1.0275910  
H    -5.1876660    2.3446440   -2.4422460  
H    -1.2044110    3.6009980   -1.2800930  
H     0.3258800   -0.3560820    1.6709320  
C     4.0608920    0.1693070    0.0716700  
C     4.6416640    1.4283250    0.2457020  
C     3.5974440    2.3630650    0.4419620  
C     2.3710320    1.6366720    0.3915760  
N     2.6828550    0.3252420    0.1710410  
C     1.0982730    2.2425460    0.5346220  
C     1.1167760    3.6263020    0.7340360  
O    -0.0498770    4.3039040    0.9103620  
C     2.3364090    4.3648690    0.7868510  
O     2.1400790    5.7143150    0.9950280  
C     3.5648910    3.7608350    0.6505950  
H     5.7003120    1.6345160    0.2781150  
H     2.0422160   -0.4543390    0.1102200  
H     0.1784910    5.2374780    1.0701940  
H     2.9940330    6.1595710    1.0999790  
H     4.4818070    4.3438000    0.6944460  
C     8.1512130   -1.2589090   -1.1211210  
C     7.0916490   -0.4355960   -0.9083290  
C     5.9947770   -1.3103660   -0.5139230  
C     6.5940600   -2.6620870   -0.5585960  
N     7.8570050   -2.6311980   -0.8995220  
C     5.8369850   -3.8523820   -0.2622290  
C     4.5261720   -3.7105870    0.0331940  
O     3.6959260   -4.7413970    0.2909290  
C     3.8760450   -2.3660970    0.0746930  
O     2.6599360   -2.3502950    0.2940910  
C     4.6865410   -1.1144070   -0.1414000  
H     7.0555390    0.6330870   -1.0561720  
H     6.3166170   -4.8239930   -0.3051280  
H     2.8134320   -4.3426140    0.4414820  
H     9.1499820   -0.9868620   -1.4413280  
