60


C     2.1788780   -3.3607540   -0.8138950  
C     3.1008330   -4.1227570   -0.1439540  
C     4.0923670   -3.2193750    0.3628420  
C     3.7210800   -1.9112330   -0.0589520  
N     2.5639610   -2.0362300   -0.8005680  
C     4.4969500   -0.7611160    0.2397950  
C     5.5965600   -0.9763380    1.0882870  
O     6.3269190    0.0793160    1.5463970  
C     5.9639350   -2.2761360    1.5159470  
O     7.0922750   -2.2977520    2.3220750  
C     5.2483400   -3.3954260    1.1458630  
H     3.0778980   -5.1966580   -0.0172010  
H     1.9067800   -1.2687850   -0.9142510  
H     7.0506230   -0.2911280    2.0811760  
H     7.2516390   -3.2044790    2.6216680  
H     5.5577580   -4.3856150    1.4758130  
H     1.2547200   -3.6440970   -1.2974300  
C     0.7648500    1.5994410   -0.2442000  
C     1.2730470    2.8167710   -0.6248680  
C     2.6970290    2.6271400   -0.7502100  
C     2.9254700    1.2029510   -0.3368220  
N     1.7979210    0.6189330   -0.0556200  
C     4.2475380    0.5945370   -0.3009270  
C     5.2443140    1.3683650   -0.8386140  
O     6.5001880    0.9458620   -1.0251670  
C     5.0413530    2.7883880   -1.2863130  
O     6.0238120    3.3895750   -1.7316950  
C     3.7121020    3.3983020   -1.1992720  
H     0.7240750    3.7074630   -0.8947140  
H     6.9728200    1.7216030   -1.4046270  
H     3.6067550    4.4270700   -1.5294540  
C    -2.8224120    3.7841250    1.1774950  
C    -1.5514880    3.4108540    0.8491800  
C    -1.6092880    2.0476440    0.4018810  
C    -3.0346610    1.6493430    0.4922880  
N    -3.7184960    2.7676050    0.9220290  
C    -3.5467590    0.4072550    0.1700580  
C    -2.4988280   -0.6139270   -0.0907250  
O    -2.7148490   -1.8130850   -0.0679950  
C    -1.0358250   -0.1615680   -0.4181210  
O    -0.3467100   -0.9625700   -1.0309030  
C    -0.6108420    1.1979460   -0.0478990  
H    -0.6630770    4.0151410    0.9415210  
H    -3.1761510    4.7224140    1.5843410  
H    -4.6263010    2.6512240    1.3704200  
C    -5.7873560   -2.2219620   -2.5943930  
C    -4.8603490   -1.4200100   -2.0035210  
C    -5.4411470   -0.8920310   -0.7958260  
C    -6.8140280   -1.4529550   -0.7365800  
N    -6.9529640   -2.2619780   -1.8451900  
C    -7.7217480   -1.2059770    0.2422670  
C    -7.3340320   -0.2855870    1.2922840  
O    -8.0429320   -0.0006070    2.2437770  
C    -5.9286660    0.4227340    1.1844810  
O    -5.7406340    1.3416080    1.9765810  
C    -4.9535690   -0.0181050    0.1672200  
H    -3.8671570   -1.2352760   -2.3784970  
H    -8.7035610   -1.6661930    0.2853640  
H    -5.7146090   -2.7879590   -3.5134400  
H    -7.7916100   -2.7650360   -2.0885970  
