60


C     4.8472310    0.3530210   -0.0674890  
C     4.5642210   -0.9944660    0.2043010  
C     5.7633210   -1.7273420    0.0697010  
C     6.7850410   -0.7923340   -0.2875220  
N     6.2042760    0.4431150   -0.3619450  
C     8.1145020   -1.1753330   -0.4981150  
C     8.4202330   -2.5181410   -0.3457460  
O     9.6922400   -2.9482140   -0.5364620  
C     7.4118490   -3.4690340    0.0128510  
O     7.8936610   -4.7553090    0.1201330  
C     6.1048120   -3.0937990    0.2202980  
H     3.6083460   -1.3842310    0.5169160  
H     6.6571590    1.3327180   -0.5239120  
H     8.8952750   -0.4728920   -0.7688400  
H     9.7048020   -3.9099490   -0.3850040  
H     7.1743260   -5.3579040    0.3613250  
H     5.3520910   -3.8304980    0.4919730  
C     0.3825940    1.0295400    0.1006510  
C     1.6197510    0.4152190   -0.0336630  
C     2.5919560    1.4549360    0.0204240  
C     1.7863220    2.6913800    0.1824260  
N     0.5050270    2.4441790    0.2398060  
C     2.3814060    4.0019250    0.2488880  
C     3.7220600    4.0849770    0.1161090  
O     4.4084990    5.2393820    0.1205280  
C     4.5808630    2.8619760   -0.0684470  
O     5.7891350    3.0830210   -0.2298350  
C     3.9814540    1.5007530   -0.0433330  
H     1.7939280   -0.6351460   -0.2094610  
H     1.7572140    4.8794540    0.3746450  
H     5.3478570    4.9863030   -0.0129480  
C    -1.2732050   -0.8871290    0.0352980  
C    -0.9174400    0.4416670    0.1005070  
C    -2.2139560    1.1510270    0.1860380  
C    -3.2387120    0.0772060    0.1168710  
N    -2.6512110   -1.1043930    0.0514580  
C    -4.6618630    0.3416600    0.1377820  
C    -4.9974050    1.6547020    0.3824330  
O    -6.2505730    2.0702490    0.5733750  
C    -3.9850520    2.7561600    0.4794780  
O    -4.4012280    3.8972010    0.6804000  
C    -2.5491730    2.4428450    0.3497090  
H    -6.1923930    3.0467150    0.6805130  
H    -1.8216840    3.2427340    0.4186720  
H    -0.6111230   -1.7429510   -0.0183860  
C    -5.2300050   -3.9133660    1.3639190  
C    -6.4791250   -4.1162690    0.8706250  
C    -6.8735110   -2.8992510    0.1967730  
C    -5.7398970   -1.9523060    0.3714190  
N    -4.7896320   -2.6161400    1.1238010  
C    -5.7109310   -0.6674000   -0.1075770  
C    -6.8258010   -0.3100370   -1.0245700  
O    -6.7928490    0.6626760   -1.7569730  
C    -8.0836200   -1.2466750   -1.1048370  
O    -9.0698820   -0.8446990   -1.7035720  
C    -8.0056310   -2.5579810   -0.4758360  
H    -7.0707780   -5.0161780    0.9563430  
H    -8.8597910   -3.2219570   -0.5673240  
H    -4.5905390   -4.5996790    1.9043120  
H    -3.8096570   -2.3470940    1.0123910  
