60


C     1.5718850    2.4429760    2.4046120  
C     2.2558590    1.3518140    1.9236050  
C     3.1645300    1.8213300    0.9083460  
C     2.9864220    3.2266270    0.8340340  
N     1.9928190    3.5732030    1.7321920  
C     3.7454650    4.0529540   -0.0016810  
C     4.7291760    3.4373380   -0.7568860  
O     5.5260050    4.1734500   -1.5743790  
C     4.9374410    2.0295340   -0.7079970  
O     5.9346060    1.6027280   -1.5450610  
C     4.1453750    1.1856980    0.0797090  
H     2.1588770    0.3407980    2.2909740  
H     1.7384350    4.5192300    1.9700480  
H     3.6151360    5.1292350   -0.0497190  
H     6.1603400    3.5376950   -1.9603480  
H     6.4271370    0.8868780   -1.0695790  
H     0.8388280    2.5124110    3.1964890  
C     1.0708910   -1.9863080   -0.1771500  
C     1.7955620   -0.8094450   -0.2357330  
C     3.1702670   -1.1157450   -0.0250600  
C     3.2396200   -2.5908930    0.1114840  
N     1.9428110   -3.0506460    0.0331620  
C     4.3879800   -3.2879030    0.3024560  
C     5.6287480   -2.5316930    0.3556170  
O     6.7210830   -3.0402940    0.5511690  
C     5.5728040   -0.9726760    0.1300770  
O     6.6607920   -0.4040410    0.0048640  
C     4.2792950   -0.2901480    0.0621610  
H     1.4170610    0.1696530   -0.4732140  
H     4.4266070   -4.3633420    0.4395900  
H     1.6299990   -4.0111250   -0.0401380  
C    -2.2436290    0.8031320    0.4898660  
C    -3.3039090    0.0197330    0.1381500  
C    -2.7355000   -1.2880140   -0.2099950  
C    -1.2707740   -1.1643580   -0.0566480  
N    -1.0364940    0.1210610    0.3542190  
C    -0.3570140   -2.1811150   -0.2807820  
C    -0.9222830   -3.5045290   -0.5837060  
O    -0.2539510   -4.5304560   -0.6336060  
C    -2.4603450   -3.6200630   -0.8616040  
O    -2.8999810   -4.6814730   -1.2667310  
C    -3.3084700   -2.4503120   -0.6138510  
H    -4.3781310   -2.5711330   -0.7338220  
H    -2.2404700    1.8204990    0.8582350  
H    -0.1536860    0.4525700    0.7316260  
C    -5.2512180    3.5389760   -1.6287700  
C    -6.5296340    3.3198140   -1.2326880  
C    -6.5421190    2.0834530   -0.4778090  
C    -5.1414500    1.5959740   -0.4626660  
N    -4.4028780    2.5426690   -1.1454790  
C    -4.7140900    0.4291710    0.1139910  
C    -5.7472270   -0.3903590    0.7755600  
O    -5.4979440   -1.4503810    1.3270480  
C    -7.2356520    0.1227500    0.7863270  
O    -8.0799010   -0.5644910    1.3369580  
C    -7.5423440    1.3912170    0.1292530  
H    -7.3838910    3.9477840   -1.4392760  
H    -8.5734280    1.7304380    0.1368830  
H    -4.8428830    4.3485930   -2.2190860  
H    -3.4533810    2.3918770   -1.4527290  
