62


C     2.2009220   -0.4543180   -0.6648850  
C     2.6204370   -1.4109460   -1.5637380  
C     1.6102010   -2.4218640   -1.6346100  
C     0.5791100   -2.0499520   -0.7296400  
N     0.9510560   -0.8363800   -0.1748160  
C    -0.5660010   -2.8452630   -0.5025710  
C    -0.6657160   -4.0097310   -1.2782750  
O    -1.7796500   -4.7854330   -1.1827270  
C     0.3452940   -4.3770240   -2.1990220  
O     0.0765820   -5.5493430   -2.8831650  
C     1.4777950   -3.6077910   -2.3807340  
H     3.5249120   -1.3555530   -2.1539930  
H     0.5407230   -0.4237950    0.6498020  
H    -1.6104200   -5.5970700   -1.6921970  
H     0.8665820   -5.8230920   -3.3718640  
H     2.2446640   -3.9102930   -3.0910470  
C    -3.0419540    0.7539370    0.3240090  
C    -3.8250430    0.2276140    1.3334600  
C    -3.3894150   -1.1189780    1.5765940  
C    -2.2949830   -1.3772690    0.6115890  
N    -2.1535290   -0.2139170   -0.1282630  
C    -1.6113380   -2.5546410    0.4991760  
C    -1.9322720   -3.5845490    1.5264720  
O    -1.2524480   -4.5804460    1.6909960  
C    -3.1571110   -3.3606400    2.4850370  
O    -3.5025550   -4.2799170    3.2151200  
C    -3.8150060   -2.0651070    2.4637150  
H    -4.5406700    0.7681270    1.9362910  
H    -4.6395170   -1.8972740    3.1499860  
H    -1.3970380    0.0007690   -0.7662750  
C    -6.1944840    3.8188690    0.0430940  
C    -5.4536500    4.8543500   -0.4252830  
C    -4.0982120    4.3736420   -0.5907000  
C    -4.1114360    2.9560280   -0.1670150  
N    -5.3959900    2.6891420    0.2334900  
C    -3.0251880    2.1069050   -0.2038290  
C    -1.8043440    2.6651970   -0.7974710  
O    -0.8242300    1.9835470   -1.0804940  
C    -1.7227940    4.2044560   -1.0767140  
O    -0.6287210    4.6839330   -1.3366160  
C    -2.9534230    4.9823930   -1.0109350  
H    -5.8051820    5.8532070   -0.6382050  
H    -2.9086400    6.0337090   -1.2767430  
H    -7.2485610    3.7748340    0.2816120  
H    -5.7360720    1.7557970    0.4191290  
C     2.2844270    2.0478430   -0.2237050  
C     2.8453110    0.7847490   -0.2479840  
C     4.2174910    0.9355680    0.1806160  
C     4.4209780    2.3102200    0.4582700  
N     3.2234880    2.9559950    0.2116290  
C     5.6457630    2.8151550    0.9115620  
C     6.6833020    1.9120360    1.0879930  
O     7.9009860    2.3505000    1.5250870  
C     6.4927130    0.5298860    0.8234640  
O     7.6173720   -0.2428040    1.0534760  
C     5.2812640    0.0349810    0.3780640  
H     3.0787020    3.9531100    0.2472910  
H     5.8075170    3.8664900    1.1270710  
H     8.4764620    1.5694430    1.5955570  
H     7.4019100   -1.1746760    0.9009970  
H     5.1493310   -1.0275330    0.1849320  
H     1.3056020    2.3750890   -0.5460530  
