62


C     3.2541700   -1.4198310   -1.2875580  
C     3.1250970   -0.2469430   -0.5578660  
C     4.4454620    0.0296630   -0.0147540  
C     5.2989710   -1.0181410   -0.4395060  
N     4.5432200   -1.8789690   -1.2172760  
C     6.6491510   -1.1047030   -0.0804750  
C     7.1560080   -0.1023850    0.7308210  
O     8.4669010   -0.1223850    1.1061160  
C     6.3176880    0.9547160    1.1726130  
O     6.9620500    1.8802080    1.9727600  
C     4.9845940    1.0290870    0.8188550  
H     4.9021410   -2.6797790   -1.7136600  
H     7.2971640   -1.9086890   -0.4142170  
H     8.6231500    0.6811060    1.6325990  
H     6.3935970    2.6570510    2.0837160  
H     4.3771490    1.8659080    1.1455600  
H     2.5217680   -1.9250160   -1.9000370  
C    -1.0952480   -1.6032800   -0.1025870  
C     0.2661480   -1.5101100   -0.1902270  
C     0.6425200   -0.1206010   -0.2829760  
C    -0.6160970    0.6367760   -0.2280830  
N    -1.6492380   -0.2925170   -0.0637000  
C    -0.7495430    1.9914920   -0.3318100  
C     0.5032710    2.7544200   -0.4265880  
O     0.5440150    3.9721810   -0.4025600  
C     1.8690630    1.9725200   -0.4724180  
O     2.8835000    2.6433870   -0.5726370  
C     1.8749910    0.4918800   -0.4061600  
H     0.9499940   -2.3405490   -0.1097660  
H    -2.5359520   -0.1077200   -0.5231390  
C    -4.0481430    2.2198720    2.6531700  
C    -2.8870520    1.9418540    2.0028870  
C    -2.9319010    2.6264990    0.7255990  
C    -4.2270440    3.3458550    0.6929030  
N    -4.8653360    3.0344750    1.8804970  
C    -4.6426360    4.1575870   -0.3133750  
C    -3.7595480    4.3381370   -1.4574270  
O    -4.0199390    5.0755310   -2.3956510  
C    -2.4143640    3.5250580   -1.4903470  
O    -1.7464620    3.5463400   -2.5075830  
C    -2.0374650    2.7022200   -0.3091160  
H    -2.0626470    1.3593490    2.3858550  
H    -5.5870080    4.6929170   -0.2996120  
H    -4.3771910    1.9032250    3.6341510  
H    -5.7438140    3.4283490    2.1790590  
C    -0.8166080   -5.7950470   -1.6770250  
C    -0.5802120   -4.4705500   -1.4066270  
C    -1.6346650   -4.0175450   -0.5463350  
C    -2.4959370   -5.1255280   -0.3368450  
N    -1.9675830   -6.1947810   -1.0300630  
C    -3.6629320   -5.0519680    0.4315040  
C    -3.9732610   -3.8285760    1.0023430  
O    -5.0925650   -3.7041870    1.7714470  
C    -3.1377550   -2.6988180    0.8117180  
O    -3.5885120   -1.5787800    1.4749310  
C    -1.9621070   -2.7627280    0.0464810  
H     0.2396110   -3.8860450   -1.7959170  
H    -2.3736030   -7.1161860   -1.0750280  
H    -4.3179770   -5.9017730    0.5939510  
H    -5.1102130   -2.7877600    2.0985920  
H    -2.9271730   -0.8632070    1.4157380  
H    -0.2560360   -6.4922990   -2.2833710  
