60


C     6.5944820   -0.7846030   -3.4825530  
C     7.5899360   -1.3505620   -2.7311240  
C     7.0818890   -1.4943470   -1.3955220  
C     5.7528370   -0.9983290   -1.4024170  
N     5.4756890   -0.5882670   -2.6911170  
C     4.9343730   -0.9549420   -0.2534310  
C     5.5080810   -1.4325630    0.9262040  
O     4.7767220   -1.4410550    2.0809510  
C     6.8351010   -1.9330860    0.9492280  
O     7.2346420   -2.3732010    2.1976370  
C     7.6207350   -1.9760570   -0.1865430  
H     8.5712390   -1.6343460   -3.0856970  
H     4.6540160   -0.0689500   -2.9590380  
H     5.3560470   -1.7889610    2.7816500  
H     8.1590040   -2.6598930    2.1609400  
H     8.6350340   -2.3672920   -0.1412120  
H     6.5795180   -0.5097300   -4.5277820  
C     2.5634360   -0.8630950   -1.1430640  
C     3.5516940   -0.4462090   -0.3021890  
C     2.9694620    0.6202230    0.5146350  
C     1.5640600    0.7667110    0.0763840  
N     1.3616550   -0.1934430   -0.8992770  
C     0.6774370    1.6887070    0.5569270  
C     1.1675880    2.5923650    1.6184270  
O     0.4461290    3.3946250    2.1838670  
C     2.6669640    2.4691720    2.0731730  
O     3.0874230    3.2417250    2.9185380  
C     3.4995770    1.4249050    1.4695970  
H     4.5266150    1.3352530    1.8046450  
H     2.6001870   -1.6433750   -1.8924770  
H     0.5834960   -0.1671090   -1.5425530  
C    -2.6725760   -1.1198750    0.7632000  
C    -3.6638080   -0.3948350    0.1522170  
C    -3.0568200    0.8874660   -0.2261890  
C    -1.6444090    0.8188130    0.2134940  
N    -1.4801740   -0.4328180    0.7849610  
C    -0.7142380    1.8093810    0.0862390  
C    -1.1661810    3.0585530   -0.5648200  
O    -0.4071050    3.9707760   -0.8362170  
C    -2.6771880    3.1816100   -0.9698450  
O    -3.0756660    4.2348980   -1.4385180  
C    -3.5534990    2.0202890   -0.7851890  
H    -4.5808750    2.1159230   -1.1143160  
H    -2.7311610   -2.1219280    1.1666990  
H    -0.6252470   -0.7512070    1.2164760  
C    -6.5324130   -2.6537420    2.7189330  
C    -5.4467070   -1.9457810    2.3213110  
C    -5.7201360   -1.5714030    0.9366640  
C    -7.0650390   -2.1520250    0.6708450  
N    -7.5317490   -2.7897870    1.7089210  
C    -7.7303710   -1.9876530   -0.5969060  
C    -7.0943840   -1.2731010   -1.5518550  
O    -7.6016690   -1.0264570   -2.7725540  
C    -5.7283080   -0.6876170   -1.3275990  
O    -5.2159550   -0.0872720   -2.2698450  
C    -5.0341020   -0.8718910   -0.0117590  
H    -4.5817830   -1.6738190    2.9091350  
H    -8.7118860   -2.4202730   -0.7554340  
H    -6.9152900   -0.5080780   -3.2451700  
H    -6.7178790   -3.0971860    3.6899980  
