64


C    -3.5817830   -0.8413090    0.1055000  
C    -4.0806010   -0.4627470   -1.1198590  
C    -5.2984030    0.2652440   -0.9009920  
C    -5.5096550    0.3083210    0.4989400  
N    -4.4895300   -0.4227930    1.1004940  
C    -6.5964180    0.9672940    1.0803520  
C    -7.4986160    1.5891020    0.2280470  
O    -8.5754920    2.2501410    0.7437230  
C    -7.3154310    1.5384810   -1.1784180  
O    -8.3005140    2.1938570   -1.8928480  
C    -6.2362720    0.8868040   -1.7485810  
H    -3.6526500   -0.7336320   -2.0750600  
H    -4.1792310   -0.2364690    2.0458830  
H    -6.7601370    1.0046020    2.1525800  
H    -9.0870800    2.5967310   -0.0075170  
H    -8.1349610    2.0902500   -2.8414860  
H    -6.1154730    0.8643190   -2.8299040  
C     0.5694140   -0.8860110   -1.5807490  
C    -0.7439170   -0.6018020   -1.3238760  
C    -1.1676450   -1.4675520   -0.2586340  
C    -0.0508340   -2.2640430    0.0969250  
N     1.0120470   -1.8946670   -0.7246000  
C    -0.0795730   -3.1924780    1.1426250  
C    -1.2721640   -3.3252290    1.8352980  
O    -1.3690040   -4.2271870    2.8534900  
C    -2.4062300   -2.5448790    1.4972160  
O    -3.5162360   -2.8124450    2.2779060  
C    -2.3876070   -1.6117350    0.4563520  
H    -1.3479890    0.1289830   -1.8417760  
H     0.7673620   -3.8164880    1.4005860  
H    -2.2954360   -4.2182990    3.1518490  
H    -4.3047870   -2.4403870    1.8435730  
H     1.2399890   -0.4944120   -2.3326070  
C     4.6825940    0.2462840    0.0129460  
C     5.5639930   -0.7895930   -0.1938340  
C     4.8137930   -1.9729390   -0.5066380  
C     3.3930920   -1.5625830   -0.4777260  
N     3.3719160   -0.2082080   -0.2128820  
C     2.3347120   -2.3931170   -0.6919650  
C     2.6226000   -3.8081420   -0.9872210  
O     1.7496790   -4.6273140   -1.2140630  
C     4.1329480   -4.2600950   -1.0204500  
O     4.3705960   -5.4402950   -1.2370180  
C     5.1666130   -3.2630040   -0.7835690  
H     6.6417580   -0.7130760   -0.1732650  
H     6.2004560   -3.5921230   -0.8156570  
H     2.5561840    0.2492900    0.1688410  
C     6.0555000    2.0917420    1.0093170  
C     4.9100610    1.6178000    0.3888890  
C     4.0242380    2.7580200    0.2349200  
C     4.6976450    3.8756040    0.7852300  
N     5.9290720    3.4322250    1.2418860  
C     4.1503570    5.1627100    0.8119150  
C     2.8866570    5.3298310    0.2679620  
O     2.3018590    6.5585200    0.2733130  
C     2.1978710    4.2263340   -0.3037290  
O     0.9627540    4.5521730   -0.8194450  
C     2.7488990    2.9576610   -0.3338600  
H     6.6155350    4.0054160    1.7087840  
H     4.6704180    6.0156630    1.2352980  
H     1.4270260    6.4675760   -0.1430300  
H     0.5101320    3.7522260   -1.1266050  
H     2.2038740    2.1490690   -0.8141180  
H     6.9363160    1.5514140    1.3248870  
