62


C     5.1785910    0.2315730   -2.3601910  
C     6.1511260   -0.6748180   -2.6848320  
C     6.5755390   -1.2969490   -1.4622800  
C     5.8137400   -0.7192900   -0.4143900  
N     4.9596450    0.2211900   -0.9828480  
C     5.9498840   -1.1103260    0.9228010  
C     6.8815880   -2.0953410    1.2082750  
O     7.0601800   -2.5117830    2.4980910  
C     7.6590470   -2.6804280    0.1740160  
O     8.5442420   -3.6479270    0.6173740  
C     7.5168980   -2.2968220   -1.1462040  
H     6.5342700   -0.8648000   -3.6784500  
H     5.3718080   -0.6647720    1.7236730  
H     7.7625840   -3.1842510    2.4856520  
H     9.0754440   -3.9618010   -0.1290240  
H     8.1197800   -2.7629110   -1.9235630  
H     4.6307860    0.9276850   -2.9800300  
C     0.6767220    0.0161980   -1.4764130  
C     0.3114330    1.0205180   -0.5900580  
C     1.5542680    1.5321210   -0.0313020  
C     2.6028820    0.7981000   -0.6343830  
N     2.0374220   -0.1034290   -1.5140600  
C     3.9604970    0.9784160   -0.3202980  
C     4.2687290    1.9276810    0.6521520  
O     5.5637360    2.1625090    0.9949910  
C     3.2257350    2.6478840    1.2877770  
O     3.6809060    3.5426930    2.2379820  
C     1.8930240    2.4681980    0.9664230  
H     2.5587840   -0.7696220   -2.0645610  
H     5.5554210    2.8548710    1.6791910  
H     2.9371740    4.0703390    2.5646040  
H     1.1277110    3.0550400    1.4608860  
H     0.0435180   -0.6215740   -2.0708470  
C    -3.3041220   -1.4067320   -0.6800900  
C    -4.2979650   -0.5305680   -0.3344640  
C    -3.5768070    0.7514660   -0.1452420  
C    -2.1496740    0.4226100   -0.4124140  
N    -2.0146910   -0.8390330   -0.7278280  
C    -1.0694470    1.4102250   -0.3175200  
C    -1.4745420    2.6725570    0.0327560  
O    -0.6386980    3.7340380    0.1271230  
C    -2.8835060    3.0221360    0.3205610  
O    -3.1444680    4.1913500    0.6256460  
C    -3.9419650    1.9933370    0.2143930  
H    -1.2290280    4.4848230    0.3647400  
H    -4.9620140    2.3069270    0.3971740  
H    -3.4159640   -2.4480290   -0.9607150  
C    -6.2342780   -4.0723360    1.3582490  
C    -7.5375290   -3.7337460    1.1847650  
C    -7.5631710   -2.4284130    0.5602660  
C    -6.1494600   -2.0314120    0.3744700  
N    -5.3954670   -3.0871960    0.8466900  
C    -5.7117020   -0.8340040   -0.1429030  
C    -6.7763790    0.1159010   -0.5342040  
O    -6.5476030    1.2277150   -0.9823640  
C    -8.2871580   -0.3114050   -0.3857140  
O    -9.1448530    0.4819060   -0.7403750  
C    -8.5900240   -1.6187080    0.1809710  
H    -8.3988330   -4.3247400    1.4598860  
H    -9.6330180   -1.8955530    0.2977890  
H    -5.8068890   -4.9625550    1.8004660  
H    -4.3992810   -3.0295560    1.0018700  
