64


C    -5.7216170   -2.0610890    2.8639730  
C    -6.9635330   -1.9813210    2.2890570  
C    -6.7960640   -1.3373440    1.0180670  
C    -5.4104660   -1.0535930    0.8737100  
N    -4.7869730   -1.4936440    2.0221800  
C    -4.8587570   -0.3924790   -0.2496800  
C    -5.7875690   -0.0138190   -1.2183500  
O    -5.3635820    0.6697360   -2.3459180  
C    -7.1700270   -0.2876510   -1.0980620  
O    -7.9187220    0.1649350   -2.1713430  
C    -7.6864160   -0.9469360   -0.0004530  
H    -7.8910070   -2.3285400    2.7230180  
H    -3.7881920   -1.4890380    2.1643870  
H    -6.1544350    0.8295020   -2.8929300  
H    -8.8530410   -0.0445120   -2.0266670  
H    -8.7534480   -1.1445380    0.0773360  
H    -5.4194980   -2.4737470    3.8163190  
C    -1.1959120   -2.9434600    0.3331540  
C    -2.4834170   -2.5026460    0.1701500  
C    -2.4213100   -1.0897030   -0.1051460  
C    -1.0467280   -0.7388880   -0.1143960  
N    -0.3263840   -1.8851990    0.1534160  
C    -0.5702230    0.5642740   -0.3738190  
C    -1.5544170    1.5124760   -0.6504090  
O    -1.2040940    2.7926640   -0.9537490  
C    -2.9376860    1.1884310   -0.6426000  
O    -3.7527280    2.2667280   -0.9155160  
C    -3.4078130   -0.0925750   -0.3514720  
H    -3.3716360   -3.1162350    0.2087720  
H     0.6714410   -1.9132600    0.2955890  
H    -2.0479320    3.2540070   -1.1303250  
H    -4.4382150    1.9676900   -1.5529820  
H    -0.8186420   -3.9337150    0.5458690  
C     1.8306810    0.2035600   -1.0767780  
C     0.8683200    0.8795660   -0.3919920  
C     1.5575240    1.9465680    0.3429630  
C     2.9993210    1.8262750    0.0314750  
N     3.1004480    0.7633360   -0.8600800  
C     3.9788430    2.6127500    0.5389900  
C     3.5920700    3.6739660    1.4648960  
O     4.3938150    4.4403560    1.9764310  
C     2.0656660    3.8281670    1.8125820  
O     1.7215650    4.7048510    2.5887070  
C     1.1076850    2.9034340    1.1917390  
H     5.0274890    2.4885130    0.2912690  
H     0.0569610    3.0279240    1.4265830  
H     1.7411200   -0.6332310   -1.7567430  
C     4.9149670    0.5605850   -2.4946550  
C     6.0066070   -0.2435570   -2.6525080  
C     6.0542600   -1.1413840   -1.5273650  
C     4.9515460   -0.8359190   -0.6947670  
N     4.2711910    0.2158740   -1.3043760  
C     4.6745340   -1.5152160    0.4949020  
C     5.5395890   -2.5387890    0.8534040  
O     5.3202580   -3.2407170    2.0011980  
C     6.6548910   -2.8640860    0.0356490  
O     7.4182330   -3.9044090    0.5276670  
C     6.9202790   -2.1820850   -1.1378780  
H     6.7065000   -0.2024660   -3.4758380  
H     3.8393640   -1.2621480    1.1389160  
H     6.0445870   -3.8842860    2.0896320  
H     8.1945170   -4.0344830   -0.0368350  
H     7.7811240   -2.4491040   -1.7475540  
H     4.5180500    1.3608390   -3.1018970  
