62


C     2.0964770   -1.3823200   -1.0751100  
C     2.3987740   -2.6690370   -0.7448080  
C     3.6574180   -2.6493750   -0.0467880  
C     4.0911300   -1.3020590    0.0028770  
N     3.1173190   -0.5239970   -0.6428890  
C     5.2579860   -0.9198840    0.6726880  
C     6.0154580   -1.9179500    1.2672890  
O     7.1673470   -1.5913490    1.9205990  
C     5.6063220   -3.2746340    1.2050980  
O     6.4634620   -4.1488990    1.8415720  
C     4.4397610   -3.6471510    0.5611040  
H     1.8086290   -3.5404560   -0.9955520  
H     5.6027230    0.1044870    0.7253290  
H     7.5553460   -2.4176800    2.2560210  
H     6.1409220   -5.0560510    1.7355460  
H     4.1310740   -4.6903580    0.5373910  
H     1.2692890   -0.9757830   -1.6375290  
C    -0.0534320    2.4966850   -0.0112680  
C     0.6362280    1.3036760   -0.0218660  
C     1.9351230    1.6014330   -0.5593560  
C     1.8832210    3.0577590   -0.8544400  
N     0.7350280    3.5795130   -0.5321720  
C     3.0105120    3.7636960   -1.4126400  
C     4.1397720    3.0583000   -1.6429480  
O     5.2715700    3.5860460   -2.1387680  
C     4.2355640    1.5783700   -1.3722240  
O     5.2858980    1.0195160   -1.6813440  
C     3.0649890    0.8664870   -0.7926800  
H     0.3122340    0.3556280    0.3774070  
H     2.9394360    4.8260770   -1.6161280  
H     5.8938340    2.8313660   -2.2306230  
C    -3.7668580   -0.0143600    0.1391280  
C    -2.4554160    0.4059380   -0.0473070  
C    -2.4010710    1.7579520    0.3991790  
C    -3.8032840    2.0368110    0.8552470  
N    -4.5888190    1.0077090    0.6964930  
C    -4.1887450    3.3125840    1.3833600  
C    -3.2397970    4.2768370    1.4300600  
O    -3.4512240    5.5123850    1.8940130  
C    -1.8052720    4.0421020    0.9890200  
O    -1.0363670    4.9795320    1.1834610  
C    -1.4123380    2.7247490    0.4290410  
H    -1.6726240   -0.1306930   -0.5609120  
H    -5.2066290    3.4822400    1.7158920  
H    -2.5724370    5.9564490    1.8344620  
C    -1.8214440   -3.9550450    0.3377390  
C    -2.8902960   -4.7102520   -0.0686650  
C    -3.9739500   -3.8025630   -0.3133030  
C    -3.4964390   -2.4958680   -0.0505780  
N    -2.1804460   -2.6198850    0.3346210  
C    -4.3069620   -1.3285500   -0.1326220  
C    -5.6535910   -1.5480530   -0.5016030  
O    -6.5036090   -0.5130290   -0.6702310  
C    -6.1302600   -2.8573180   -0.7785780  
O    -7.4614790   -2.8858220   -1.1478050  
C    -5.3195580   -3.9714220   -0.6959300  
H    -2.9084300   -5.7859880   -0.1759680  
H    -1.6284270   -1.8627930    0.7086500  
H    -7.3624920   -0.8873810   -0.9383230  
H    -7.7294370   -3.7959600   -1.3415950  
H    -5.7179370   -4.9597440   -0.9167100  
H    -0.8215530   -4.2490130    0.6235890  
