60


C    -4.2625510    0.9247140   -1.6938810  
C    -5.4468290    1.5110670   -1.3459220  
C    -6.0177860    0.7229240   -0.2893850  
C    -5.1257310   -0.3496560   -0.0379180  
N    -4.0447950   -0.2114370   -0.9090110  
C    -5.3565310   -1.3018490    0.9614600  
C    -6.5174940   -1.1767540    1.7078460  
O    -6.7944120   -2.0831000    2.6907590  
C    -7.4269560   -0.1139390    1.4637390  
O    -8.5354550   -0.1232600    2.2909190  
C    -7.1911060    0.8302120    0.4822840  
H    -5.8752980    2.3929840   -1.8029360  
H    -4.6875900   -2.1328420    1.1488010  
H    -7.6597920   -1.8448810    3.0651220  
H    -9.1524690    0.5677390    2.0085970  
H    -7.8967680    1.6421780    0.3166570  
H    -3.5554400    1.1787180   -2.4710630  
C     0.1305650    0.8936970   -0.5454620  
C     0.6822680   -0.3424160   -0.7937550  
C    -0.3880910   -1.2789180   -0.9973400  
C    -1.6386830   -0.5022260   -0.8543340  
N    -1.2668880    0.7924210   -0.5893410  
C    -2.8950550   -1.0256170   -0.9796570  
C    -3.0086550   -2.4619280   -1.2867450  
O    -4.0762350   -3.0217030   -1.4660850  
C    -1.6808250   -3.3060490   -1.3941300  
O    -1.7775030   -4.5084160   -1.5896690  
C    -0.4023600   -2.6193900   -1.2519310  
H     1.7372370   -0.5502680   -0.8395600  
H     0.5045430   -3.2085020   -1.3452690  
H    -1.9006420    1.5676020   -0.4584680  
C     4.3759260    1.8702120    0.2165290  
C     4.3020570    3.2432110    0.2992330  
C     2.9246120    3.5777840    0.1382460  
C     2.2341790    2.2545860   -0.0650720  
N     3.0791530    1.2726170   -0.0055600  
C     0.7876450    2.1637170   -0.2842780  
C     0.1220470    3.3611350   -0.2223340  
O    -1.2020850    3.4942730   -0.3731660  
C     0.7960350    4.6955240    0.0023400  
O     0.0458790    5.6781630    0.0194840  
C     2.2325680    4.7487260    0.1714140  
H     5.1093400    3.9371720    0.4865160  
H    -1.3649210    4.4676580   -0.2772010  
H     2.6911540    5.7198830    0.3258090  
C     6.8470620    1.3657070    0.3646460  
C     5.5115930    1.0140030    0.3181590  
C     5.5353900   -0.4602650    0.3962580  
C     6.9850720   -0.7942180    0.4787470  
N     7.7307820    0.2916080    0.4593420  
C     7.4549260   -2.1417440    0.5752920  
C     6.5236510   -3.1306700    0.5983410  
O     6.8130140   -4.4312940    0.6842810  
C     5.0458890   -2.8273690    0.5311480  
O     4.2703500   -3.7777120    0.5578410  
C     4.5945300   -1.4217520    0.4367730  
H     8.5181150   -2.3465000    0.6303330  
H     5.9489130   -4.9012040    0.6811880  
H     3.5296110   -1.2263980    0.4062810  
H     7.2536780    2.3698370    0.3204140  
