60


C    -2.8620480   -0.9198910   -1.2287680  
C    -1.9782520   -1.7581760   -0.5629660  
C    -2.7828570   -2.8442360   -0.0322330  
C    -4.1262760   -2.5882230   -0.4035100  
N    -4.1382640   -1.4151770   -1.1360510  
C    -5.1945110   -3.4173570   -0.0389920  
C    -4.8980640   -4.5387740    0.7179640  
O    -5.8921090   -5.3919440    1.0954800  
C    -3.5580310   -4.8130830    1.1022610  
O    -3.4190020   -5.9670950    1.8500590  
C    -2.5105880   -3.9875600    0.7452550  
H    -4.9507810   -1.0087850   -1.5739120  
H    -6.2208080   -3.2174530   -0.3293110  
H    -5.4708420   -6.1220010    1.5819870  
H    -2.4774220   -6.1757300    1.9443760  
H    -1.4931510   -4.2382830    1.0248670  
H    -2.6550020   -0.0441840   -1.8274380  
C     0.2120580    1.9551630    0.1449900  
C     1.4943580    1.4747170    0.0724030  
C     1.4349170    0.0609260   -0.1657160  
C     0.0018530   -0.2725750   -0.2598000  
N    -0.6938190    0.9257530   -0.1271530  
C    -0.5397160   -1.5184280   -0.4366410  
C     0.4483170   -2.6123800   -0.5446000  
O     0.1348660   -3.7811450   -0.6984870  
C     1.9888340   -2.2833270   -0.4709240  
O     2.7584580   -3.2307770   -0.4944510  
C     2.4217590   -0.8867810   -0.3218490  
H     2.3951410    2.0598980    0.1694910  
H    -1.6534600    0.9283920    0.1953350  
C     0.4259360    4.2180790    1.1951430  
C    -0.2518910    3.2931640    0.4443010  
C    -1.5037700    3.9290450    0.0377950  
C    -1.4843720    5.2924660    0.6236110  
N    -0.2791400    5.3989560    1.2985570  
C    -2.4743070    6.2075650    0.4853190  
C    -3.6533300    5.8417180   -0.2996260  
O    -4.5970260    6.5954430   -0.4721100  
C    -3.6886840    4.4121560   -0.9494290  
O    -4.6579260    4.0841110   -1.6142800  
C    -2.5474220    3.5168740   -0.7281810  
H    -2.4356580    7.2012590    0.9208130  
H    -2.5802710    2.5449160   -1.2077550  
H     1.3802350    4.1058930    1.6924190  
H     0.0082500    6.1996600    1.8403010  
C     4.9823940    1.0382380    2.7356820  
C     6.2178790    0.8830930    2.2086430  
C     6.0011130    0.2161770    0.9290820  
C     4.5107020    0.0442380    0.8501370  
N     3.9282550    0.5310260    1.9091890  
C     3.8680170   -0.6065860   -0.2830260  
C     4.7032740   -1.0274960   -1.2799480  
O     4.2693980   -1.5971030   -2.4117300  
C     6.1938350   -0.8602080   -1.2261000  
O     6.8518180   -1.2642770   -2.1842560  
C     6.8132380   -0.2170130   -0.0521360  
H     7.1706680    1.1713790    2.6305760  
H     5.0787420   -1.8165110   -2.9238480  
H     7.8951580   -0.1251330   -0.0465680  
H     4.7159590    1.4859130    3.6862270  
