62


C    -2.8664990   -3.0841030    1.4499500  
C    -1.6902880   -2.4927920    1.0603970  
C    -2.0332620   -1.3021760    0.3380500  
C    -3.4508410   -1.2193970    0.3332690  
N    -3.9283880   -2.3182760    1.0177660  
C    -4.1830480   -0.1832300   -0.2770770  
C    -3.4171790    0.8071090   -0.9017590  
O    -4.0337240    1.8526860   -1.5110400  
C    -2.0037560    0.7491150   -0.9058600  
O    -1.4107980    1.8105260   -1.5801390  
C    -1.2758260   -0.2742220   -0.2915440  
H    -0.6982030   -2.8622500    1.2745480  
H    -4.9065030   -2.5382570    1.1306360  
H    -3.3356870    2.3742370   -1.9463860  
H    -0.5870330    1.5055790   -1.9918160  
H    -3.0356720   -3.9952380    2.0061550  
C     1.0024820   -1.3884290   -0.4986950  
C     0.1881430   -0.3098790   -0.3113190  
C     1.1327060    0.7937310   -0.0079680  
C     2.4809210    0.1661470   -0.0815800  
N     2.3836740   -1.1000930   -0.3735320  
C     3.7092600    0.9282970    0.1591730  
C     3.5210490    2.2446330    0.5052490  
O     4.5224590    3.1107850    0.7746430  
C     2.1787560    2.8779710    0.6218520  
O     2.1401010    4.0707150    0.9400070  
C     0.9718970    2.0834500    0.3457750  
H     4.0670470    3.9604800    0.9863480  
H     0.0127270    2.5838460    0.4194860  
H     0.7049850   -2.4012210   -0.7378290  
C     5.0194560    0.3092270    0.0486400  
C     5.3468270   -0.9854140   -0.2855160  
C     6.7789700   -1.0997420   -0.2585930  
C     7.2976880    0.2383410    0.1208800  
N     6.1939180    1.0385630    0.2909890  
C     8.6161970    0.5388080    0.2540770  
C     9.5966370   -0.5126910    0.0118090  
O    10.8029640   -0.3383080    0.1067430  
C     9.0694560   -1.9398750   -0.3914180  
O     9.8771610   -2.8335520   -0.5980780  
C     7.6236280   -2.1409560   -0.5035010  
H     4.6355820   -1.7608410   -0.5176550  
H     8.9779850    1.5238560    0.5323350  
H     7.2703230   -3.1291170   -0.7823510  
H     6.2002590    2.0126860    0.5532060  
C    -6.9679560    0.0308070    3.1409260  
C    -8.1421140   -0.0142330    2.4359390  
C    -7.7973730   -0.0995470    1.0442510  
C    -6.3808380   -0.1071030    0.9677960  
N    -5.9013120   -0.0396780    2.2619000  
C    -5.6650280   -0.1576040   -0.2484900  
C    -6.4351380   -0.2100140   -1.4116530  
O    -5.8269460   -0.3003410   -2.6264860  
C    -7.8540330   -0.2046520   -1.3511960  
O    -8.4580860   -0.2700080   -2.5939740  
C    -8.5388370   -0.1538750   -0.1525070  
H    -9.1377740    0.0111610    2.8571640  
H    -4.9288250    0.0628520    2.5080470  
H    -6.5305480   -0.2935240   -3.2985670  
H    -9.4190760   -0.2107050   -2.4897880  
H    -9.6270080   -0.1528470   -0.1386940  
H    -6.7952190    0.0994760    4.2057310  
