62


C     2.0722360   -0.6681770    0.6728940  
C     1.1034900    0.2595200    0.3717520  
C     1.7656040    1.4400430   -0.1172100  
C     3.1524070    1.1598430   -0.0863520  
N     3.3205910   -0.1324350    0.4055390  
C     4.1151920    2.0846510   -0.5074050  
C     3.6629380    3.3120770   -0.9628350  
O     4.5561330    4.2510230   -1.3872750  
C     2.2720340    3.6096260   -0.9946590  
O     1.9853650    4.8736930   -1.4685810  
C     1.3236120    2.6951580   -0.5793190  
H     5.1775660    1.8721510   -0.4828340  
H     4.0443670    5.0266770   -1.6751780  
H     1.0252910    4.9894260   -1.5274350  
H     0.2642400    2.9379360   -0.6129760  
H     1.9782020   -1.6658570    1.0772820  
C    -0.9333780   -0.0449670    1.7915330  
C    -2.2721990   -0.2078720    1.6421390  
C    -2.5544240   -0.1770170    0.2258370  
C    -1.2436530    0.0080280   -0.4452040  
N    -0.2870170    0.0865830    0.5587700  
C    -1.0579810    0.0562320   -1.7898110  
C    -2.2253780   -0.0731060   -2.6470330  
O    -2.1660610   -0.0686760   -3.8680870  
C    -3.6358300   -0.2226930   -1.9676750  
O    -4.6221700   -0.2347370   -2.6833860  
C    -3.7152840   -0.3102250   -0.4880640  
H    -2.9970590   -0.3083000    2.4342610  
H    -0.0820600    0.1750810   -2.2475030  
H    -0.3377030    0.0025580    2.6934360  
C    -5.9826510    2.1707880    2.3744930  
C    -7.1540400    1.5021620    2.4699570  
C    -6.9953530    0.3359180    1.6070370  
C    -5.6058380    0.4748920    1.0546060  
N    -5.0256280    1.5481370    1.5076510  
C    -5.0453800   -0.4937450    0.1242000  
C    -5.8526910   -1.5431560   -0.2059020  
O    -5.4719400   -2.5434950   -1.0102180  
C    -7.2468550   -1.7035960    0.3350760  
O    -7.8863470   -2.6916550   -0.0219390  
C    -7.7888830   -0.6957210    1.2645070  
H    -8.0307550    1.7606170    3.0473650  
H    -6.2552300   -3.1319850   -1.0878710  
H    -8.8024980   -0.8437100    1.6245280  
H    -5.7011570    3.0953710    2.8646290  
C     4.8929810   -3.5539300   -1.7953850  
C     6.0693640   -3.6803280   -1.1039410  
C     6.0876740   -2.6473500   -0.1061860  
C     4.8762020   -1.9232210   -0.2483720  
N     4.1646760   -2.4971350   -1.2773640  
C     4.5520750   -0.8255160    0.5686570  
C     5.4729540   -0.4504150    1.5443560  
O     5.2038170    0.6004020    2.3660880  
C     6.6932670   -1.1629080    1.6839800  
O     7.5008420   -0.6684340    2.6905890  
C     7.0059890   -2.2464420    0.8847390  
H     6.8350130   -4.4223550   -1.2833070  
H     3.2826070   -2.1587020   -1.6300010  
H     5.9739140    0.7092070    2.9513160  
H     8.3193370   -1.1843870    2.7337620  
H     7.9484110   -2.7734300    1.0189130  
H     4.5028650   -4.1326120   -2.6205560  
