62


C     2.4637420   -1.9564430    0.3992490  
C     3.4787350   -1.1540530   -0.0682270  
C     2.8598430    0.1022610   -0.4319380  
C     1.4736910   -0.0160370   -0.1555280  
N     1.2602690   -1.2745880    0.3600860  
C     0.5675660    1.0327760   -0.4070040  
C     1.0830930    2.2146800   -0.9395720  
O     0.2484640    3.2634120   -1.1922540  
C     2.4686260    2.3380040   -1.2094450  
O     2.8192840    3.5722330   -1.7265510  
C     3.3552280    1.3047540   -0.9706550  
H     0.3562100   -1.6726880    0.5623500  
H     0.7892400    3.9608860   -1.6037040  
H     3.7231820    3.5317050   -2.0727070  
H     4.4139120    1.4192990   -1.1890950  
H     2.5105830   -2.9655150    0.7832520  
C    -1.5329330    1.7850990    0.7247180  
C    -2.8307240    1.4127600    0.8354960  
C    -3.0168040    0.2397520    0.0133190  
C    -1.6933480   -0.0429970   -0.5986070  
N    -0.8180170    0.9209150   -0.1159430  
C    -1.4412820   -1.0690190   -1.4556110  
C    -2.5338900   -1.9706120   -1.7886370  
O    -2.4048680   -2.9323740   -2.5317510  
C    -3.9472500   -1.6953090   -1.1600510  
O    -4.8749830   -2.4141160   -1.4873550  
C    -4.1055300   -0.5544790   -0.2234510  
H    -3.5941640    1.9167730    1.4064990  
H    -0.4725060   -1.2401050   -1.9113180  
H    -1.0122790    2.6188540    1.1734220  
C    -6.8483130    2.8976900   -0.4664400  
C    -7.9325730    2.4513230    0.2069670  
C    -7.5735880    1.1098480    0.6563500  
C    -6.1777910    0.9121150    0.1393200  
N    -5.7651610    1.9593540   -0.5128980  
C    -5.4406040   -0.3224420    0.3628080  
C    -6.0857370   -1.2831050    1.0849000  
O    -5.5300880   -2.4547620    1.4194480  
C    -7.4827650   -1.1068490    1.6146180  
O    -7.9677960   -2.0349770    2.2594780  
C    -8.2076120    0.1501970    1.3554120  
H    -8.8717440    2.9578640    0.3806880  
H    -6.2279400   -2.9471220    1.9059650  
H    -9.2168220    0.2334920    1.7471490  
H    -6.7158970    3.8536770   -0.9590850  
C     5.3926810   -2.6469060   -0.7985990  
C     4.8932080   -1.5154720   -0.1932730  
C     6.0397090   -0.7808190    0.2958130  
C     7.1975210   -1.5237130   -0.0507930  
N     6.7711640   -2.6587780   -0.7108210  
C     8.4925680   -1.1057170    0.2813800  
C     8.6217380    0.0823080    0.9837950  
O     9.8616550    0.5359680    1.3339410  
C     7.4735630    0.8326600    1.3511690  
O     7.7629890    1.9903360    2.0534050  
C     6.1967150    0.4179200    1.0207100  
H     7.3723740   -3.3686940   -1.0981110  
H     9.3802660   -1.6729160    0.0200000  
H     9.7325160    1.3544530    1.8434260  
H     6.9389530    2.3812090    2.3793220  
H     5.3306590    1.0037260    1.3208580  
H     4.8635240   -3.4400350   -1.3079220  
