60


C    -3.0839450    1.4383300   -1.0197840  
C    -2.9775610    0.1756860   -0.4424850  
C    -4.3120330   -0.1571540    0.0381280  
C    -5.1534740    0.9358250   -0.2919020  
N    -4.3733440    1.8754890   -0.9447640  
C    -6.5099070    0.9963120    0.0405190  
C    -7.0441990   -0.0746020    0.7405360  
O    -8.3634780   -0.0739500    1.0927420  
C    -6.2214320   -1.1709530    1.0972630  
O    -6.8839870   -2.1625810    1.8002870  
C    -4.8796390   -1.2228190    0.7652860  
H    -4.6953040    2.7703230   -1.2807130  
H    -7.1412570    1.8396210   -0.2204560  
H    -8.5315870   -0.9084910    1.5634440  
H    -6.2742240   -2.8975230    1.9618920  
H    -4.2818580   -2.0836970    1.0413700  
H    -2.3127560    2.0498110   -1.4609620  
C     1.1161430    1.6851750   -0.4064190  
C     1.8421870    0.5242260   -0.4031200  
C     0.8782030   -0.5460460   -0.3675180  
C    -0.4472190    0.1473440   -0.3833870  
N    -0.2979470    1.4372470   -0.4001260  
C    -1.7268340   -0.5709410   -0.3778300  
C    -1.5990040   -1.9353770   -0.3347430  
O    -2.6516350   -2.7881520   -0.3537410  
C    -0.3002360   -2.6507010   -0.2581900  
O    -0.3363110   -3.8810780   -0.1394350  
C     0.9844920   -1.8978470   -0.3215620  
H     2.9137580    0.4069680   -0.4567470  
H    -2.2372530   -3.6792050   -0.2962120  
C     4.4946080   -1.6910840    2.3807350  
C     5.2396880   -2.7321460    1.9480630  
C     4.5008060   -3.2809740    0.8171050  
C     3.2780450   -2.4127000    0.7156210  
N     3.2946490   -1.4794700    1.6255910  
C     2.2479410   -2.6573640   -0.2855590  
C     2.5000130   -3.6682730   -1.1698860  
O     1.7002810   -3.9669620   -2.1964170  
C     3.7319350   -4.5330330   -1.0988220  
O     3.8543940   -5.4150360   -1.9455640  
C     4.7264460   -4.2938850   -0.0401350  
H     6.1782270   -3.0974660    2.3408490  
H     2.1142170   -4.7400320   -2.6415930  
H     5.5957680   -4.9436880   -0.0137630  
H     4.6986720   -1.0276990    3.2131800  
C     4.5134820    3.3152020    1.7764140  
C     4.4075820    4.6258600    1.4372540  
C     3.2666030    4.7475150    0.5542930  
C     2.7231170    3.3813380    0.3944060  
N     3.5346320    2.5567240    1.1410390  
C     1.6012820    3.0487890   -0.3301800  
C     0.9100110    4.1614340   -1.0212030  
O    -0.0431500    4.0066350   -1.7633760  
C     1.4661030    5.6235280   -0.8362080  
O     0.8619000    6.5462130   -1.3600920  
C     2.6797900    5.8193430   -0.0457760  
H     5.0465510    5.4312100    1.7687940  
H     3.0553510    6.8322940    0.0623980  
H     5.2276330    2.8292630    2.4278760  
H     3.3160560    1.5876170    1.3377450  
