60


C    -4.6176520    2.5308880   -1.7509580  
C    -4.3802180    1.5150950   -0.8432100  
C    -5.6208190    1.3226180   -0.1181870  
C    -6.5572090    2.2488160   -0.6419710  
N    -5.9134950    2.9700310   -1.6315270  
C    -7.8679640    2.3597820   -0.1639610  
C    -8.2432470    1.5213250    0.8739270  
O    -9.5087350    1.5845130    1.3751100  
C    -7.3145100    0.6002430    1.4284790  
O    -7.8305570   -0.1505170    2.4653810  
C    -6.0202480    0.4965070    0.9526750  
H    -6.3425550    3.6768440   -2.2085390  
H    -8.5837630    3.0693640   -0.5660620  
H    -9.5685750    0.9327810    2.0949820  
H    -7.1509730   -0.7513850    2.8051540  
H    -5.3255830   -0.2032890    1.4109430  
H    -3.9557360    2.9447830   -2.4983120  
C    -1.8493640    1.3440150   -0.7104200  
C    -3.1085840    0.8294780   -0.6806670  
C    -2.8888970   -0.6255310   -0.5420190  
C    -1.4060590   -0.7899740   -0.4804720  
N    -0.8212680    0.3683970   -0.5937540  
C    -0.7620060   -2.1007740   -0.3321610  
C    -1.6299870   -3.1800810   -0.3132430  
O    -1.2774780   -4.4562800   -0.1881690  
C    -3.1238390   -3.0197350   -0.4276130  
O    -3.8039350   -4.0471240   -0.3953760  
C    -3.7182060   -1.6831010   -0.5536160  
H    -2.1294790   -4.9545660   -0.2128960  
H    -4.7979250   -1.6164860   -0.6405740  
H    -1.5667990    2.3862150   -0.7953620  
C     0.6754490   -2.2211980   -0.2246080  
C     1.6107240   -1.2038810   -0.1886700  
C     2.8854510   -1.8422700   -0.0827870  
C     2.5583610   -3.3056190   -0.0432840  
N     1.2796920   -3.5206200   -0.1295130  
C     3.5775820   -4.3078560    0.0935230  
C     4.8588210   -3.8834420    0.1887720  
O     5.9118640   -4.7009560    0.3105970  
C     5.2412770   -2.4189590    0.1227260  
O     6.4450310   -2.1800210    0.1167830  
C     4.1799650   -1.3816290    0.0115780  
H     1.3979390   -0.1496740   -0.2228140  
H     3.3110490   -5.3585490    0.1169610  
H     6.6967450   -4.1056290    0.3132410  
C     4.5446280    0.0216990   -0.0179670  
C     3.9219230    1.0353450   -0.7008120  
C     4.6595090    2.2352200   -0.3819530  
C     5.7318440    1.7676980    0.5542310  
N     5.6702920    0.4869560    0.7597030  
C     6.6834920    2.6878670    1.1261290  
C     6.5887430    3.9909270    0.7732500  
O     7.4069320    4.9565740    1.2184990  
C     5.5265190    4.4881480   -0.1788180  
O     5.5204980    5.6925790   -0.4369840  
C     4.5600690    3.5367450   -0.7407630  
H     3.0866280    0.9556780   -1.3812330  
H     7.4468970    2.3264690    1.8059510  
H     7.0878900    5.7816050    0.7884840  
H     3.8054390    3.9321340   -1.4137920  
