60


C    -4.7372840   -1.3354190    3.4082440  
C    -4.2565290   -0.5129580    2.4202060  
C    -4.6731220   -1.0682260    1.1571550  
C    -5.4232260   -2.2357470    1.4592270  
N    -5.4304260   -2.3800460    2.8325580  
C    -6.0447500   -3.0207560    0.4820730  
C    -5.9232550   -2.5941500   -0.8294590  
O    -6.5204150   -3.2875440   -1.8352260  
C    -5.1751790   -1.4319140   -1.1688980  
O    -5.1403490   -1.1793780   -2.5180110  
C    -4.5072650   -0.6697850   -0.2053560  
H    -3.7099570    0.4050950    2.5820360  
H    -5.9202450   -3.1032110    3.3355270  
H    -6.6255640   -3.9072790    0.7152530  
H    -6.3312820   -2.7787440   -2.6478120  
H    -5.2357640   -0.2017230   -2.6306130  
H    -4.6498610   -1.2569950    4.4826870  
C    -0.4340810    0.2489780    1.0750780  
C    -0.2176800    1.4608550    0.4791150  
C    -1.4438200    1.7616520   -0.2702640  
C    -2.3657030    0.6221200   -0.0436390  
N    -1.6856930   -0.2563680    0.7643910  
C    -3.6364060    0.4780850   -0.5592040  
C    -4.0268630    1.5114640   -1.5127930  
O    -5.0377360    1.4530650   -2.2176960  
C    -3.1102170    2.7733900   -1.7115230  
O    -3.5186630    3.6749680   -2.4238520  
C    -1.8002450    2.8028050   -1.0627000  
H    -1.1817850    3.6794750   -1.2077570  
H     0.2201130   -0.3144230    1.7278670  
H    -2.1161410   -1.0629420    1.1952060  
C     3.9827180    0.2154850    0.1212900  
C     4.5832180    1.4409900    0.3380600  
C     3.5487260    2.4160950    0.5320640  
C     2.2660280    1.6845050    0.4229080  
N     2.5984540    0.3731870    0.1786160  
C     1.0203790    2.2452590    0.5444030  
C     0.9862430    3.6960640    0.8155030  
O    -0.0531470    4.3145110    0.9821760  
C     2.3418150    4.4927190    0.9140560  
O     2.2908930    5.6995580    1.1022770  
C     3.5910340    3.7594010    0.7723950  
H     5.6412120    1.6307090    0.4259900  
H     4.5206750    4.3139070    0.8546220  
H     1.9680450   -0.4122370    0.0937170  
C     7.9976510   -1.1114410   -1.2974160  
C     6.8913560   -0.3730540   -0.9899760  
C     5.8780100   -1.2810680   -0.5243140  
C     6.4841340   -2.6314740   -0.5960690  
N     7.7793170   -2.4516260   -1.0467440  
C     5.8618240   -3.7919390   -0.2664280  
C     4.4732340   -3.7181860    0.1580330  
O     3.8207100   -4.6878390    0.5067330  
C     3.7702420   -2.3131170    0.1547220  
O     2.5606880   -2.3000310    0.3485240  
C     4.5752950   -1.0931280   -0.0884080  
H     6.7926700    0.6915330   -1.1250260  
H     6.3439730   -4.7636690   -0.2993840  
H     8.9496320   -0.7811360   -1.6914650  
H     8.4291520   -3.1979030   -1.2404840  
