60


C     2.6923110    2.6092980    2.5711730  
C     3.0183110    1.3738560    2.0717300  
C     3.9057740    1.5812440    0.9588330  
C     4.0942330    2.9852330    0.8488430  
N     3.3354000    3.5819920    1.8351090  
C     4.9479910    3.5701820   -0.0914360  
C     5.6456960    2.7098790   -0.9238780  
O     6.5137980    3.2034520   -1.8481100  
C     5.4783580    1.3006830   -0.8445450  
O     6.2253760    0.6045770   -1.7650840  
C     4.5874610    0.7087760    0.0572020  
H     2.6782250    0.4290000    2.4698740  
H     3.2718770    4.5746060    1.9972700  
H     5.0980380    4.6422170   -0.1686970  
H     6.9080470    2.4194350   -2.2773600  
H     6.5890500   -0.1855610   -1.2987710  
H     2.0493600    2.8782130    3.3970400  
C     0.7794630   -1.4801530   -0.0031270  
C     1.2624670   -2.7713820    0.1169220  
C     2.6950230   -2.7035430    0.1668460  
C     3.0437160   -1.2661460    0.0742570  
N     1.8502520   -0.5917910   -0.0288560  
C     4.3195580   -0.7481570    0.0735920  
C     5.3878410   -1.7520210    0.0587860  
O     6.5722040   -1.4842740   -0.1489440  
C     5.0475070   -3.2714640    0.2887820  
O     5.9747540   -4.0549970    0.4296960  
C     3.6503820   -3.6698410    0.2889060  
H     0.6815450   -3.6690250    0.2688590  
H     3.4173620   -4.7238100    0.4021100  
H     1.7240310    0.4137730    0.0107340  
C    -2.8827910   -3.5073660   -1.3172100  
C    -3.7904750   -2.5319000   -1.0655370  
C    -3.0674870   -1.3999820   -0.5258240  
C    -1.6468710   -1.8074700   -0.4737990  
N    -1.6053410   -3.1013170   -0.9300010  
C    -0.5895800   -1.0090410   -0.0824310  
C    -0.9327720    0.3975400    0.1860680  
O    -0.1035200    1.2867150    0.3160890  
C    -2.4388730    0.7945570    0.3256080  
O    -2.7043090    1.8567560    0.8563250  
C    -3.4792570   -0.1478970   -0.1456150  
H    -4.8542640   -2.5839910   -1.2385640  
H    -3.0267820   -4.4925290   -1.7397710  
H    -0.7459860   -3.5572730   -1.2042420  
C    -7.3463750   -1.5817490    1.6448450  
C    -6.0369670   -1.5267960    1.2964180  
C    -5.9122620   -0.3273240    0.4789170  
C    -7.3027140    0.2354880    0.4528100  
N    -8.1318750   -0.5040980    1.1332310  
C    -7.6155080    1.4585210   -0.2360470  
C    -6.6069820    2.1005820   -0.8702720  
O    -6.7581340    3.2402390   -1.5597470  
C    -5.2045530    1.5534560   -0.8923430  
O    -4.3817090    2.1407350   -1.5856640  
C    -4.8774620    0.3011160   -0.1389150  
H    -5.2462880   -2.2102840    1.5693680  
H    -8.6313880    1.8373960   -0.2346830  
H    -5.8728750    3.4482510   -1.9309140  
H    -7.8376730   -2.3286310    2.2575140  
