60


C     0.6478220    4.9144650   -0.5532070  
C    -0.4529730    5.5057540   -0.0238260  
C    -1.1415450    4.5180540    0.7706180  
C    -0.4011220    3.3157950    0.6912430  
N     0.7168600    3.5711080   -0.1433340  
C    -0.7969130    2.1561060    1.3634190  
C    -1.9661050    2.2169030    2.1138100  
O    -2.3920520    1.1046660    2.7774950  
C    -2.7182250    3.4128300    2.1983860  
O    -3.8483830    3.3150420    2.9802890  
C    -2.3157300    4.5619620    1.5364690  
H    -0.7513830    6.5342850   -0.1760280  
H    -0.2246880    1.2412390    1.3178140  
H    -3.1994610    1.3472410    3.2629470  
H    -4.2987310    4.1720200    3.0163360  
H    -2.8997400    5.4767590    1.6106560  
H     1.4105820    5.3181330   -1.1995230  
C     1.7156250    2.7188600   -0.5330570  
C     2.8024220    2.9968690   -1.3402400  
C     3.5212040    1.7735270   -1.4290390  
C     2.7227970    0.8016220   -0.5905130  
N     1.6658590    1.3746980   -0.0820040  
C     3.1326150   -0.5719990   -0.3950990  
C     4.2767470   -0.9349040   -1.0554090  
O     4.7711720   -2.1637570   -1.0466370  
C     5.0954840    0.0199210   -1.9197880  
O     6.0962490   -0.4740550   -2.4495750  
C     4.6653150    1.3887940   -2.0649040  
H     3.0737270    3.9320520   -1.8054770  
H     5.5950720   -2.1063930   -1.5927600  
H     5.2695350    2.0524070   -2.6743580  
C    -1.1151660   -1.9882810   -0.0815080  
C     0.0621700   -1.3760270   -0.4580520  
C     1.0929380   -1.7927410    0.4469820  
C     0.4474690   -2.7312120    1.3964390  
N    -0.8775000   -2.7938370    1.0341320  
C     1.0907860   -3.3935040    2.3929000  
C     2.5151270   -3.1627540    2.5610470  
O     3.1975780   -3.7299740    3.4011650  
C     3.2160510   -2.1214160    1.6147820  
O     4.3770200   -1.8275530    1.8361180  
C     2.4332230   -1.4992220    0.5108720  
H     0.1948940   -0.7257100   -1.3056800  
H     0.5968020   -4.0950100    3.0575170  
H    -1.5681840   -3.4394640    1.3894460  
C    -3.1211310    0.9217260   -2.8335380  
C    -2.2311700    0.3910680   -1.9554740  
C    -2.8132970   -0.8747460   -1.5411120  
C    -4.1071870   -0.9323430   -2.2846800  
N    -4.2737040    0.1099210   -3.0508300  
C    -5.0270450   -2.0278990   -2.1347090  
C    -4.7068600   -3.0049640   -1.2561550  
O    -5.4942870   -4.0618330   -0.9897520  
C    -3.4298890   -2.9720320   -0.4723250  
O    -3.2708260   -3.8692930    0.3608170  
C    -2.4199360   -1.8927240   -0.7112640  
H    -1.3191860    0.8389850   -1.5914610  
H    -5.9539560   -2.0393610   -2.6971680  
H    -5.0258540   -4.5811780   -0.3024200  
H    -3.0527940    1.8699000   -3.3533780  
