60


C    -4.9923300   -0.6578930    3.3338860  
C    -5.5933060   -1.8274630    2.9533230  
C    -5.3236300   -2.0076210    1.5531500  
C    -4.5372220   -0.9030830    1.1376840  
N    -4.3241630   -0.1075620    2.2504460  
C    -4.1003350   -0.7158160   -0.1917470  
C    -4.4845490   -1.6965790   -1.1089690  
O    -4.0630850   -1.6123890   -2.3997670  
C    -5.2681370   -2.8091980   -0.7075220  
O    -5.5427000   -3.6925290   -1.7359290  
C    -5.6838870   -2.9795300    0.5996670  
H    -6.1623460   -2.4875040    3.5936730  
H    -3.9731300    0.8379140    2.2112100  
H    -4.5172230   -2.3146530   -2.8975120  
H    -6.2310030   -4.3125130   -1.4531720  
H    -6.2801140   -3.8456910    0.8794610  
H    -4.9668840   -0.1668420    4.2964920  
C    -0.1672700    0.6069610    1.1709940  
C     0.0019410    1.7449250    0.4298450  
C    -1.2040330    1.8790310   -0.3923500  
C    -2.0673430    0.7265200   -0.0546030  
N    -1.3782710   -0.0025600    0.9005580  
C    -3.2873980    0.4491140   -0.6009330  
C    -3.7821870    1.4062020   -1.6141570  
O    -4.8888290    1.3293990   -2.1164450  
C    -2.8463970    2.5977940   -2.0395370  
O    -3.2133040    3.3345490   -2.9408070  
C    -1.5717220    2.7782310   -1.3404840  
H    -0.9643750    3.6346970   -1.6098160  
H     0.4939530    0.1877330    1.9187700  
H    -1.7403680   -0.8317520    1.3470670  
C     4.2870950    0.9032380   -0.0812690  
C     4.7711180    2.1739910    0.1137520  
C     3.6615860    3.0455100    0.3827500  
C     2.4538350    2.1938940    0.3397090  
N     2.8947790    0.8913440    0.1266830  
C     1.1687840    2.6358030    0.4652650  
C     0.9968830    4.0865580    0.7070140  
O    -0.0988960    4.5993450    0.8591960  
C     2.2739380    5.0016090    0.7998340  
O     2.1144970    6.1968190    0.9998170  
C     3.5821190    4.3855330    0.6280130  
H     5.8141930    2.4570400    0.1143780  
H     4.4567440    5.0267210    0.6736390  
H     2.2888100    0.2156400   -0.3216950  
C     6.2020840   -0.4241140   -1.0531480  
C     4.9945420   -0.3044580   -0.4159980  
C     4.5913760   -1.6987960   -0.1476940  
C     5.7081560   -2.5128340   -0.7157260  
N     6.6388130   -1.7516220   -1.2329100  
C     5.7082550   -3.9464600   -0.6527680  
C     4.6611060   -4.5551080   -0.0416880  
O     4.5345670   -5.8818850    0.0865910  
C     3.5333240   -3.7637500    0.5638430  
O     2.6222970   -4.3804140    1.1090410  
C     3.5583750   -2.2857350    0.4846580  
H     6.5317750   -4.5072610   -1.0802870  
H     3.6925200   -6.0285080    0.5704750  
H     2.7381080   -1.7564060    0.9583030  
H     6.8162250    0.3821510   -1.4367700  
