64


C     0.5464960   -0.8164670    0.3558300  
C     0.7000110   -2.1897540    0.4521920  
C     2.0966780   -2.4702440    0.4090040  
C     2.7678540   -1.2234630    0.2831110  
N     1.8102990   -0.2340260    0.2848460  
C     4.1696520   -1.0878750    0.1750540  
C     4.8916100   -2.2836010    0.2146290  
O     6.2474900   -2.2599320    0.1343680  
C     4.2365320   -3.5425320    0.3533340  
O     5.1115860   -4.6090790    0.3828470  
C     2.8656230   -3.6529410    0.4540070  
H    -0.1045610   -2.9005720    0.5814360  
H     1.9926280    0.7127700   -0.0179850  
H     6.5579650   -3.1813780    0.1832710  
H     4.6169630   -5.4373280    0.4710260  
H     2.3929560   -4.6272910    0.5552250  
C    -0.6435270   -0.0108020    0.3820310  
C    -1.9427630   -0.3423480    0.0934730  
C    -2.7581980    0.8303500    0.2754350  
C    -1.8353530    1.9075270    0.6996020  
N    -0.5588900    1.3584820    0.6970010  
C    -2.2075090    3.1752070    1.0030310  
C    -3.6166160    3.5228810    0.8740200  
O    -4.0478770    4.6464580    1.0854790  
C    -4.6263450    2.3971950    0.4406950  
O    -5.8155260    2.6638960    0.4442720  
C    -4.1034080    1.0501780    0.1048460  
H    -2.2807990   -1.2968760   -0.2812850  
H    -1.5075900    3.9503040    1.3000830  
H     0.1823450    1.7315150    1.2749410  
C    -5.1059180   -2.8546590    1.9522010  
C    -6.0586580   -3.2470610    1.0488640  
C    -6.1541620   -2.2114620    0.0582470  
C    -5.2184950   -1.2063840    0.4161920  
N    -4.5931820   -1.6271960    1.5725590  
C    -5.0481440   -0.0071480   -0.3102020  
C    -5.8567020    0.1445140   -1.4389560  
O    -5.7169270    1.2477620   -2.2240450  
C    -6.7917640   -0.8543540   -1.8136550  
O    -7.4984040   -0.5492940   -2.9643860  
C    -6.9509600   -2.0188000   -1.0873260  
H    -6.6308720   -4.1640350    1.0856520  
H    -3.9002760   -1.0960970    2.0756650  
H    -6.4280770    1.2205640   -2.8874270  
H    -8.2268580   -1.1787920   -3.0686190  
H    -7.6765890   -2.7678460   -1.3985420  
H    -4.7419490   -3.3479300    2.8425650  
C     6.6941900    0.7347060   -3.0926140  
C     5.9616900   -0.1294700   -2.3223500  
C     5.5775740    0.5821960   -1.1370260  
C     6.1125090    1.8937840   -1.2496860  
N     6.7882060    1.9565980   -2.4507310  
C     5.9273700    2.8802920   -0.2741240  
C     5.1846490    2.5347970    0.8431480  
O     4.9808860    3.4494210    1.8377280  
C     4.6285080    1.2367810    0.9701600  
O     3.9015360    1.0523560    2.1364230  
C     4.8074150    0.2453960    0.0051850  
H     5.7305690   -1.1564520   -2.5637520  
H     7.2731920    2.7662410   -2.8037520  
H     6.3451930    3.8786150   -0.3552190  
H     4.5229130    2.9842440    2.5592820  
H     3.7908400    0.0985140    2.2834700  
H     7.1658610    0.5834820   -4.0533710  
