64


C    -1.3815690    0.2459090    0.2516390  
C    -2.5462100   -0.0209500   -0.4244330  
C    -3.0421400    1.2605820   -0.8898050  
C    -2.1366760    2.2573940   -0.4575310  
N    -1.1155490    1.6164060    0.2602020  
C    -2.2993530    3.6056700   -0.7897900  
C    -3.4161290    3.9569400   -1.5340400  
O    -3.6181140    5.2635610   -1.8733980  
C    -4.3536990    2.9749240   -1.9388170  
O    -5.4219800    3.4769780   -2.6569300  
C    -4.1776480    1.6382360   -1.6267690  
H    -1.6141720    4.3801930   -0.4715340  
H    -4.4568900    5.3076390   -2.3636250  
H    -6.0554150    2.7656480   -2.8323990  
H    -4.9092690    0.8969900   -1.9391120  
H    -0.6973430   -0.4293110    0.7417820  
C     3.1755290    0.4869690    0.1133490  
C     1.8111300    0.5244490   -0.1166800  
C     1.2983110    1.6195000    0.6379900  
C     2.4841070    2.2013000    1.3227380  
N     3.5663700    1.5448690    1.0069750  
C     2.4045100    3.3489870    2.1836050  
C     1.1816090    3.8986590    2.3554820  
O     0.9360430    4.9740820    3.1096730  
C    -0.0691810    3.3303860    1.7049760  
O    -1.1291430    3.8812310    2.0109660  
C     0.0486430    2.1793490    0.8030210  
H     1.2403430   -0.0953820   -0.7859460  
H     3.2933140    3.7488480    2.6581830  
H    -0.0415080    5.0967020    3.0645720  
C     3.1133840   -3.3121750   -2.3503650  
C     2.7346910   -2.2099250   -1.6195080  
C     3.9294970   -1.5501750   -1.1814430  
C     5.0114040   -2.3164100   -1.6792500  
N     4.4862760   -3.3741610   -2.3920070  
C     6.3570310   -2.0104940   -1.4328690  
C     6.6242400   -0.9040780   -0.6492040  
O     7.9101530   -0.5595080   -0.3640260  
C     5.5753760   -0.1005760   -0.1238800  
O     6.0241940    0.9371980    0.6177550  
C     4.2062960   -0.3831440   -0.3885460  
H     1.7115090   -1.9434950   -1.4092170  
H     5.0275030   -4.0892890   -2.8522250  
H     7.1761710   -2.6076610   -1.8210670  
H     7.8605590    0.2381460    0.1948250  
H     5.2165700    1.4228530    0.9746940  
H     2.5087330   -4.0600630   -2.8430350  
C    -3.8341040   -1.7591260   -1.7457760  
C    -3.1544160   -1.3309920   -0.6226890  
C    -3.1518560   -2.4511250    0.2947930  
C    -3.8377470   -3.5186720   -0.3368730  
N    -4.2429330   -3.0664850   -1.5773810  
C    -4.0326580   -4.7628880    0.2755800  
C    -3.5279650   -4.9315420    1.5554930  
O    -3.6858940   -6.1254430    2.1981900  
C    -2.8519720   -3.8685230    2.2111790  
O    -2.4217730   -4.1850890    3.4865800  
C    -2.6624440   -2.6420730    1.6020610  
H    -4.7410500   -3.6122960   -2.2624500  
H    -4.5578770   -5.5815570   -0.2059600  
H    -3.2784410   -6.0336990    3.0767560  
H    -1.9915090   -3.4132240    3.8830670  
H    -2.1604070   -1.8360270    2.1321690  
H    -4.0177830   -1.2417820   -2.6762980  
