64


C     1.3057940   -2.1050550   -0.5768700  
C     0.6321790   -1.0259510   -0.0472170  
C     1.6096590    0.0327580    0.0808690  
C     2.8447290   -0.4703220   -0.3967130  
N     2.6265470   -1.7729040   -0.7971110  
C     4.0504290    0.2663230   -0.4028060  
C     3.9636110    1.5584540    0.1199080  
O     5.0717630    2.3624130    0.1521130  
C     2.7385850    2.0736500    0.6179990  
O     2.8388820    3.3690740    1.1012710  
C     1.5677080    1.3407120    0.6032060  
H     3.3575440   -2.3958390   -1.1047030  
H     4.7846580    3.2202950    0.5104250  
H     1.9664790    3.6664300    1.3984350  
H     0.6443790    1.7569650    0.9993680  
H     0.9282820   -3.0820640   -0.8444740  
C    -1.4673900   -1.9093060    1.0744640  
C    -0.7848780   -0.9812700    0.3213550  
C    -1.7561140    0.0268720   -0.0451530  
C    -2.9974570   -0.3494380    0.5245770  
N    -2.7901210   -1.5271480    1.2130590  
C    -4.1905830    0.3842060    0.3463550  
C    -4.0908030    1.5286380   -0.4480540  
O    -5.1934170    2.3072650   -0.6579790  
C    -2.8573650    1.9117350   -1.0344070  
O    -2.9395360    3.0714680   -1.7855140  
C    -1.6974690    1.1857240   -0.8432150  
H    -3.5245020   -2.0882230    1.6155620  
H    -4.9245740    3.0258690   -1.2570290  
H    -2.1057860    3.2072170   -2.2594130  
H    -0.7635610    1.4959790   -1.3056920  
H    -1.0987590   -2.8046810    1.5548930  
C     5.4099490   -0.9795390   -2.1420040  
C     5.2964850   -0.3114340   -0.9387700  
C     6.6095670   -0.3521330   -0.3324700  
C     7.4629040   -1.0566690   -1.2184190  
N     6.7042450   -1.4287930   -2.3109040  
C     8.8145030   -1.2995770   -0.9401420  
C     9.3138300   -0.8203120    0.2599100  
O    10.6252370   -1.0218370    0.5835770  
C     8.4720760   -0.1165190    1.1621810  
O     9.1149820    0.2970060    2.3162230  
C     7.1397280    0.1180660    0.8849900  
H     7.0550170   -1.8962370   -3.1318110  
H     9.4690790   -1.8371920   -1.6187220  
H    10.7726580   -0.6003820    1.4478350  
H     8.5005490    0.8192470    2.8526600  
H     6.5186500    0.6760700    1.5795860  
H     4.6694970   -1.1286640   -2.9158740  
C    -5.6521410   -0.3210320    2.2897770  
C    -5.4586940   -0.0356080    0.9697580  
C    -6.7450770   -0.2710820    0.3118300  
C    -7.6882580   -0.7090720    1.3699880  
N    -6.9581820   -0.7346270    2.5411090  
C    -8.9949410   -1.0153370    1.1617040  
C    -9.5186610   -0.9266470   -0.1962200  
O   -10.6783530   -1.1827200   -0.4851150  
C    -8.5306240   -0.4863240   -1.3386460  
O    -8.9456550   -0.4180930   -2.4848470  
C    -7.1422460   -0.1725330   -0.9815490  
H    -9.6679800   -1.3296610    1.9536830  
H    -6.4762090    0.1509250   -1.7732110  
H    -4.9441750   -0.2474460    3.1053660  
H    -7.3441020   -0.9127970    3.4549100  
