64


C    -2.1345880   -0.3734970    0.3553660  
C    -3.4594780   -0.2790320    0.0114890  
C    -3.7113580    1.1309460   -0.2305840  
C    -2.4993650    1.8281530   -0.0073640  
N    -1.5321390    0.8842220    0.3565100  
C    -2.3873780    3.2103110   -0.1881860  
C    -3.5262110    3.9040120   -0.5688140  
O    -3.4657880    5.2534080   -0.7532030  
C    -4.7568880    3.2257320   -0.7644550  
O    -5.8012880    4.0512900   -1.1276580  
C    -4.8625290    1.8565470   -0.5997470  
H    -1.4696260    3.7565350   -0.0123060  
H    -4.3637920    5.5561720   -0.9724400  
H    -6.6222780    3.5382460   -1.1647440  
H    -5.8141080    1.3532630   -0.7511460  
H    -1.5599740   -1.2444120    0.6329750  
C     2.0587790   -1.0829790   -1.1853980  
C     0.7799510   -0.6869970   -0.9696980  
C     0.8150540    0.3541600    0.0342180  
C     2.2357020    0.5293740    0.4028420  
N     2.9571650   -0.3731280   -0.3789140  
C     2.7044190    1.4187770    1.3187120  
C     1.7441550    2.2811970    1.9859750  
O     2.0553720    3.1511490    2.7850900  
C     0.2153920    2.0951500    1.6589530  
O    -0.6005860    2.7410150    2.2895630  
C    -0.1696660    1.1093480    0.6169110  
H    -0.0983770   -1.0621920   -1.4721460  
H     3.7535350    1.5152890    1.5738820  
H     2.4520150   -1.8187150   -1.8733710  
C     4.3426050   -0.5892780   -0.3495270  
C     5.0414560   -1.7594590   -0.1879400  
C     6.4330110   -1.4303930   -0.3037470  
C     6.5172340   -0.0306530   -0.5261100  
N     5.2257870    0.4632850   -0.5455740  
C     7.7363380    0.6403410   -0.6768410  
C     8.8946330   -0.1176680   -0.6046250  
O    10.1089520    0.4836950   -0.7512500  
C     8.8311200   -1.5195990   -0.3776800  
O    10.0691310   -2.1294700   -0.3277340  
C     7.6255480   -2.1779060   -0.2265270  
H     4.6086630   -2.7277500    0.0215690  
H     4.9540400    1.4022070   -0.7945060  
H     7.8047750    1.7100060   -0.8452970  
H    10.7875550   -0.2074670   -0.6608950  
H     9.9592690   -3.0759550   -0.1539180  
H     7.6018860   -3.2516260   -0.0521230  
C    -4.5044810   -3.6136160    2.8442640  
C    -3.9600300   -2.4949700    2.2695450  
C    -4.5553480   -2.3522100    0.9695610  
C    -5.4704020   -3.4269090    0.8150770  
N    -5.4131050   -4.1818660    1.9694640  
C    -6.2570400   -3.5990120   -0.3304720  
C    -6.1117660   -2.6633080   -1.3416020  
O    -6.8414460   -2.7834630   -2.4914750  
C    -5.2026360   -1.5829360   -1.2106070  
O    -5.1600450   -0.7619080   -2.3241230  
C    -4.4152250   -1.3992940   -0.0743210  
H    -3.2326600   -1.8379460    2.7242430  
H    -5.9653860   -5.0041840    2.1538870  
H    -6.9562750   -4.4201190   -0.4516760  
H    -6.5666500   -2.0553160   -3.0753440  
H    -4.4730820   -0.0869400   -2.1955110  
H    -4.3239250   -4.0584060    3.8127690  
