66


C    -5.7436790    2.2839360   -0.0689360  
C    -5.0901480    1.0758310    0.0528650  
C    -6.1265260    0.0600140    0.0448210  
C    -7.3724400    0.7263990   -0.0899510  
N    -7.1054130    2.0785860   -0.1544490  
C    -8.5966740    0.0466530   -0.1168680  
C    -8.5652590   -1.3340800   -0.0004780  
O    -9.7292430   -2.0463290   -0.0237950  
C    -7.3296330   -2.0188000    0.1492050  
O    -7.4632140   -3.3899680    0.2631790  
C    -6.1224020   -1.3461990    0.1757970  
H    -7.7973040    2.8048920   -0.2527160  
H    -9.5504570    0.5545420   -0.2182900  
H    -9.4938980   -2.9836430    0.0874370  
H    -6.5906580   -3.7884230    0.3983470  
H    -5.1898850   -1.8908300    0.3019860  
H    -5.3294970    3.2807400   -0.1184580  
C    -1.9349130    2.9773520    2.6467320  
C    -3.1251010    2.6215820    2.0662860  
C    -2.8340660    1.6161440    1.0818490  
C    -1.4346240    1.3928400    1.1238120  
N    -0.9152360    2.2283290    2.0924410  
C    -0.7503170    0.4718040    0.3003260  
C    -1.5590310   -0.2240680   -0.5995290  
O    -1.0046200   -1.1394350   -1.4567030  
C    -2.9592760   -0.0150120   -0.6598510  
O    -3.5869120   -0.7864480   -1.6255830  
C    -3.6326070    0.8823910    0.1661760  
H    -4.0994030    3.0146340    2.3194030  
H     0.0730350    2.3493170    2.2542080  
H    -1.7383000   -1.4920340   -1.9905380  
H    -4.5202440   -0.5205800   -1.6789470  
H    -1.7260070    3.6984010    3.4246830  
C     1.4013880    0.1014790    1.5920820  
C     0.7061530    0.2755480    0.4107530  
C     1.6992390    0.2690720   -0.6414350  
C     2.9626850    0.0839070   -0.0296750  
N     2.7501050   -0.0244980    1.3303770  
C     4.1840900    0.0548860   -0.7371480  
C     4.0902690    0.2221790   -2.1181610  
O     5.2113670    0.1731640   -2.8903290  
C     2.8306160    0.4164780   -2.7464170  
O     2.9159630    0.5595850   -4.1215220  
C     1.6464780    0.4412700   -2.0378500  
H     3.4804860   -0.1384220    2.0162350  
H     4.9288070    0.3266100   -3.8084880  
H     2.0251280    0.6735340   -4.4838840  
H     0.6950040    0.5666040   -2.5461000  
H     1.0242780    0.0031830    2.6007940  
C     5.5527280   -3.4133280    1.6013310  
C     6.7885080   -2.9384400    1.9580970  
C     6.9212240   -1.6294140    1.3817610  
C     5.7164170   -1.3615830    0.6819870  
N     4.8964960   -2.4617180    0.8424120  
C     5.4737350   -0.1718900   -0.0377390  
C     6.5043710    0.7680350   -0.0270610  
O     6.3469620    1.9604980   -0.6682110  
C     7.7176460    0.5163360    0.6676170  
O     8.6298410    1.5555980    0.5827150  
C     7.9381680   -0.6542600    1.3675950  
H     7.5198910   -3.4597950    2.5606280  
H     4.0041180   -2.5787710    0.3870020  
H     7.1869270    2.4428620   -0.5793950  
H     9.4599490    1.2866410    1.0025060  
H     8.8786870   -0.8148190    1.8914640  
H     5.0744150   -4.3552240    1.8307100  
