62


C     5.1415850   -0.3247020    0.0787370  
C     6.0397400   -1.3719010   -0.0846570  
C     7.3587600   -0.8373050    0.0392900  
C     7.2164960    0.5564680    0.2788730  
N     5.8703170    0.8374160    0.2872550  
C     8.3145770    1.4071940    0.4612580  
C     9.5780230    0.8416900    0.4023020  
O    10.6829010    1.6236350    0.5741990  
C     9.7397440   -0.5512500    0.1633110  
O    11.0604900   -0.9591960    0.1315570  
C     8.6563800   -1.3885170   -0.0178550  
H     5.7845750   -2.4179510   -0.1836620  
H     5.4404630    1.7120090    0.5500320  
H     8.2106010    2.4715420    0.6447380  
H    11.4603110    1.0434140    0.5025740  
H    11.0994430   -1.9166910   -0.0084550  
H     8.8065070   -2.4512010   -0.1991840  
C     2.3528060   -3.0223190   -1.9990840  
C     1.1793460   -2.4804870   -1.5441190  
C     1.5336250   -1.3837850   -0.6881690  
C     2.9501370   -1.3160250   -0.6533490  
N     3.4192620   -2.3392920   -1.4491880  
C     3.6818380   -0.3275390    0.0476260  
C     2.8964350    0.6432990    0.6841230  
O     3.4904980    1.6798080    1.3543200  
C     1.4820630    0.5854700    0.6970320  
O     0.8827140    1.5594940    1.4715820  
C     0.7914280   -0.4251270    0.0335710  
H     0.1833660   -2.8115350   -1.8015150  
H     4.3833080   -2.4228860   -1.7354850  
H     2.7650090    2.2194730    1.7215960  
H     0.0619540    1.8734210    1.0494450  
H     2.5210930   -3.8498860   -2.6734880  
C    -1.3600740   -1.5791050    0.5722390  
C    -2.6947740   -1.3238010    0.5634640  
C    -2.8756940    0.0155220    0.0569590  
C    -1.5170080    0.5112610   -0.2623470  
N    -0.6285350   -0.4906230    0.0900360  
C    -1.2401840    1.7186530   -0.8363930  
C    -2.3569560    2.5975320   -1.1589350  
O    -2.2259990    3.6557240   -1.7533820  
C    -3.7917330    2.1639230   -0.6986550  
O    -4.6783010    2.9947330   -0.7227790  
C    -3.9961290    0.7801590   -0.1785600  
H    -3.4739930   -2.0045860    0.8677320  
H    -0.2454190    2.0012190   -1.1694070  
H    -0.8260780   -2.4638110    0.8908930  
C    -5.3470220    0.3237250    0.1000000  
C    -5.7890740   -0.4476020    1.1421970  
C    -7.2123170   -0.6069220    0.9370470  
C    -7.4829590    0.1398760   -0.3335050  
N    -6.4056760    0.6826900   -0.8143780  
C    -8.8068510    0.2023540   -0.9012630  
C    -9.8073250   -0.4197300   -0.2352350  
O   -11.0865810   -0.4387650   -0.6386200  
C    -9.5662970   -1.1671030    1.0547860  
O   -10.5379390   -1.7043350    1.5866230  
C    -8.2066520   -1.2303840    1.6091270  
H    -5.2197540   -0.8031940    1.9892840  
H    -8.9756970    0.7449300   -1.8246110  
H   -11.5652460   -0.9599170    0.0441100  
H    -8.0718830   -1.7856120    2.5324400  
