66


C     4.8802620   -0.9098190   -0.3095870  
C     5.3766680   -2.1946670   -0.2498820  
C     6.8070150   -2.1108170   -0.1955280  
C     7.1419360   -0.7307480   -0.2212610  
N     5.9550280   -0.0212650   -0.2561960  
C     8.4636210   -0.2728440   -0.1938340  
C     9.4716190   -1.2242750   -0.1328890  
O    10.7808830   -0.8299100   -0.1088590  
C     9.1567260   -2.6066720   -0.0915770  
O    10.2664390   -3.4321000   -0.0231120  
C     7.8486540   -3.0566510   -0.1189950  
H     4.7766180   -3.0933720   -0.2018980  
H     5.8767800    0.9512170   -0.5135220  
H     8.7235470    0.7807610   -0.2189380  
H    11.3202800   -1.6381220   -0.0684710  
H     9.9772660   -4.3562700   -0.0190440  
H     7.6343770   -4.1235230   -0.0879560  
C     2.4878050   -1.0180210   -1.1089710  
C     3.5149030   -0.4200860   -0.4095930  
C     2.9554690    0.7727200    0.1924210  
C     1.5912810    0.8303420   -0.1836680  
N     1.3315030   -0.2821980   -0.9608060  
C     0.7130730    1.8629760    0.2067360  
C     1.2603860    2.8573540    1.0177370  
O     0.4777590    3.8776240    1.4646610  
C     2.6221950    2.8064180    1.4184350  
O     2.9959290    3.8560630    2.2377900  
C     3.4684420    1.7867430    1.0256750  
H     0.4597900   -0.4537230   -1.4384470  
H     1.0444470    4.4588450    2.0008510  
H     3.9194410    3.7431710    2.5068510  
H     4.4994610    1.7621140    1.3714400  
H     2.5036570   -1.9116920   -1.7161600  
C    -2.4878130   -1.0180070    1.1090280  
C    -3.5149020   -0.4200900    0.4096210  
C    -2.9554670    0.7727100   -0.1923970  
C    -1.5912850    0.8303430    0.1837040  
N    -1.3315120   -0.2821860    0.9608620  
C    -0.7130750    1.8629710   -0.2067140  
C    -1.2603890    2.8573400   -1.0177240  
O    -0.4777710    3.8776220   -1.4646380  
C    -2.6221950    2.8063920   -1.4184370  
O    -2.9959170    3.8560100   -2.2378310  
C    -3.4684390    1.7867150   -1.0256750  
H    -0.4598020   -0.4537040    1.4385100  
H    -1.0444350    4.4587680   -2.0009360  
H    -3.9194630    3.7431770   -2.5067990  
H    -4.4994530    1.7620650   -1.3714530  
H    -2.5036740   -1.9116630    1.7162400  
C    -4.8802610   -0.9098250    0.3095940  
C    -5.3766680   -2.1946720    0.2498970  
C    -6.8070150   -2.1108180    0.1955200  
C    -7.1419300   -0.7307470    0.2212140  
N    -5.9550190   -0.0212660    0.2561400  
C    -8.4636130   -0.2728380    0.1937680  
C    -9.4716150   -1.2242670    0.1328460  
O   -10.7808770   -0.8298950    0.1087770  
C    -9.1567280   -2.6066660    0.0915810  
O   -10.2664440   -3.4320920    0.0231470  
C    -7.8486580   -3.0566500    0.1190250  
H    -4.7766160   -3.0933750    0.2019050  
H    -5.8767740    0.9512130    0.5134810  
H    -8.7235350    0.7807680    0.2188450  
H   -11.3202800   -1.6381080    0.0685010  
H    -9.9772730   -4.3562640    0.0190860  
H    -7.6343850   -4.1235240    0.0880230  
