62


C     5.8953410    1.3314640    1.7734780  
C     5.3123390    0.5073070    0.8182240  
C     6.4115010   -0.0916400    0.0814990  
C     7.6103450    0.4225300    0.6345010  
N     7.2608990    1.2799860    1.6627880  
C     8.8828700    0.0892210    0.1549980  
C     8.9483960   -0.7908220   -0.9125670  
O    10.1567240   -1.1625540   -1.4173230  
C     7.7581060   -1.3152030   -1.4859640  
O     7.9847170   -2.1785400   -2.5386770  
C     6.5064940   -0.9770190   -1.0112870  
H     7.9107080    1.7322030    2.2875590  
H     9.7970200    0.4844520    0.5856970  
H     9.9860680   -1.8002410   -2.1325890  
H     7.1527010   -2.6057340   -2.7922210  
H     5.6167490   -1.4171540   -1.4475990  
H     5.4283310    1.8870790    2.5747510  
C     2.0810350    3.4380670    0.9925800  
C     1.0068500    2.6205740    0.7950190  
C     1.5039210    1.2795590    0.6323380  
C     2.9706870    1.3741830    0.7704830  
N     3.2544890    2.7111380    1.0160230  
C     3.8697120    0.3460590    0.6503390  
C     3.2510540   -0.9642120    0.3625910  
O     3.8890920   -1.9717300    0.1135760  
C     1.6822510   -1.1075920    0.4083950  
O     1.2581540   -2.2675420    0.4250180  
C     0.8416440    0.0783380    0.4204530  
H    -0.0281630    2.9218790    0.7714160  
H     2.1048210    4.5095630    1.1428340  
H     4.1879440    3.0905830    0.9494240  
C    -1.9389950    2.2444880   -2.3510240  
C    -0.8362000    1.7700060   -1.6941330  
C    -1.2986740    0.8443290   -0.6953670  
C    -2.7120230    0.8057890   -0.8008400  
N    -3.0757340    1.6867320   -1.7957920  
C    -3.5343420   -0.0600320   -0.0359450  
C    -2.8314580   -0.9527400    0.7881370  
O    -3.4940690   -1.8813210    1.5368130  
C    -1.4215150   -0.9246200    0.9179270  
O    -0.9437050   -1.8431460    1.8227610  
C    -0.6245180   -0.0045320    0.2314990  
H     0.1882310    2.0396930   -1.9022630  
H    -3.9974380    1.7178560   -2.2050410  
H    -2.7899220   -2.3827620    1.9996260  
H    -0.1416760   -2.2528460    1.4123110  
H    -2.0173720    2.9450230   -3.1702040  
C    -4.9847340   -0.0330190   -0.1248630  
C    -5.8202960    0.9779890   -0.5563660  
C    -7.1766640    0.5190310   -0.4439730  
C    -7.0958600   -0.8633810    0.0919250  
N    -5.7554910   -1.1381490    0.2437180  
C    -8.1737660   -1.6458020    0.3559190  
C    -9.5046590   -1.1050380    0.0991920  
O   -10.5313090   -1.7354640    0.3077150  
C    -9.6144210    0.3569080   -0.4729860  
O   -10.7246020    0.8204840   -0.6962030  
C    -8.3809020    1.0990710   -0.7147680  
H    -5.5230800    1.9803930   -0.8258440  
H    -8.0956280   -2.6547610    0.7491400  
H    -8.4695460    2.1078760   -1.1071450  
H    -5.3600090   -1.9381030    0.7170610  
