60


C    -5.2159470   -0.4585780    2.3050990  
C    -6.3772500   -1.1644970    2.2699330  
C    -6.5449740   -1.6574990    0.9270190  
C    -5.4475510   -1.1934300    0.1641540  
N    -4.6271980   -0.4403160    1.0283580  
C    -5.2653990   -1.5613960   -1.1721440  
C    -6.2293330   -2.3712730   -1.7556900  
O    -6.0951480   -2.7408920   -3.0607080  
C    -7.3493110   -2.8195070   -1.0109530  
O    -8.2180750   -3.6137960   -1.7278870  
C    -7.5125740   -2.4754500    0.3196820  
H    -7.0560230   -1.3048990    3.1002050  
H    -4.4302290   -1.2280870   -1.7734880  
H    -6.8625440   -3.2937360   -3.2878550  
H    -8.9653170   -3.8708870   -1.1675340  
H    -8.3650040   -2.8446410    0.8859100  
H    -4.7563510    0.1017490    3.1049430  
C    -0.7844990   -0.2826350    3.1847100  
C    -2.0526330   -0.6263350    2.8504040  
C    -2.3305180    0.0992000    1.6157440  
C    -1.0821420    0.8536920    1.3504500  
N    -0.1833810    0.6255940    2.2686020  
C    -0.9192870    1.7219480    0.1903700  
C    -1.9735250    1.7755420   -0.6703580  
O    -1.9573410    2.4682160   -1.8184730  
C    -3.2585880    1.0395470   -0.4340400  
O    -4.1675500    1.2287060   -1.2354980  
C    -3.3970210    0.1561020    0.7692930  
H    -2.7150900   -1.3103220    3.3604700  
H    -2.8608060    2.3855640   -2.1946400  
H    -0.2037260   -0.6199720    4.0345130  
C     3.4949450    0.8559700   -0.1519960  
C     2.1435770    0.7023960    0.0446350  
C     1.5743350    2.0209450   -0.0673780  
C     2.7543590    2.8998250   -0.3489120  
N     3.8620720    2.2249390   -0.4040710  
C     2.6137180    4.3189620   -0.5500520  
C     1.3688320    4.8401390   -0.4760920  
O     1.0877810    6.1440850   -0.6252530  
C     0.1583410    3.9897910   -0.1877180  
O    -0.9148250    4.5750110   -0.0657060  
C     0.3033560    2.5138070   -0.0284980  
H     1.6057010   -0.2056180    0.2695860  
H     3.4881060    4.9285700   -0.7478060  
H     0.1169130    6.2166330   -0.4908470  
C     4.5018920   -0.1721660   -0.1291270  
C     4.3239060   -1.5131600    0.1186470  
C     5.6323300   -2.1074440    0.0248610  
C     6.5349780   -0.9531480   -0.2986010  
N     5.8805420    0.1643450   -0.3866970  
C     7.9542550   -1.1373150   -0.4770990  
C     8.4483210   -2.3897970   -0.3422480  
O     9.7434640   -2.7108580   -0.4796600  
C     7.5630260   -3.5706960   -0.0161660  
O     8.1073830   -4.6708520    0.0862030  
C     6.1212600   -3.3636950    0.1615390  
H     3.3999500   -2.0276930    0.3430800  
H     8.5858380   -0.2875640   -0.7106810  
H     9.7855170   -3.6812810   -0.3249710  
H     5.5180240   -4.2357810    0.3948110  
