62


C     0.5049290    5.5624950   -2.1301530  
C     1.5381950    6.1985390   -1.4941880  
C     2.1071650    5.2561300   -0.5738280  
C     1.3625930    4.0564900   -0.6892870  
N     0.3873120    4.2758490   -1.6359170  
C     1.6633480    2.8726300    0.0338450  
C     2.7627870    2.9579930    0.9088980  
O     3.1026070    1.9142780    1.7117990  
C     3.5045490    4.1600190    1.0387600  
O     4.5344290    4.0696230    1.9554120  
C     3.1946570    5.2980520    0.3199960  
H     1.8595750    7.2171700   -1.6614630  
H    -0.2125990    3.5537570   -2.0045430  
H     3.8815010    2.1959390    2.2253190  
H     5.0027120    4.9154890    2.0101840  
H     3.7829290    6.2049290    0.4438340  
H    -0.1731980    5.9200780   -2.8918660  
C     0.8738920    1.6650150   -0.1267220  
C    -0.4751580    1.5573950   -0.3816070  
C    -0.7555720    0.1471940   -0.4093300  
C     0.5759010   -0.5086400   -0.2277630  
N     1.5066090    0.3855500   -0.0426760  
C     0.7596420   -1.9530590   -0.2303120  
C    -0.4058500   -2.6725320   -0.2028790  
O    -0.4558720   -4.0016280   -0.0570270  
C    -1.7670210   -2.0606550   -0.3601270  
O    -2.7312060   -2.8258740   -0.4115290  
C    -1.8996600   -0.5908520   -0.4647880  
H    -1.2061690    2.3539920   -0.3780850  
H    -1.4069800   -4.2378790   -0.1370090  
C     4.5181610   -1.3124890    2.1371510  
C     5.2006560   -2.4064410    1.6745760  
C     4.3654590   -3.0252390    0.6855440  
C     3.1686780   -2.2606070    0.6140500  
N     3.2794250   -1.2357540    1.5312880  
C     2.0881500   -2.6054960   -0.2379770  
C     2.3226670   -3.6845900   -1.1065220  
O     1.3992430   -4.0180520   -2.0516360  
C     3.5199440   -4.4398450   -1.0481150  
O     3.5637920   -5.4801660   -1.9624040  
C     4.5261640   -4.1443640   -0.1519470  
H     6.1782390   -2.7386840    1.9966960  
H     2.7590820   -0.3685770    1.4203610  
H     1.7328640   -4.8130980   -2.5031070  
H     4.3997260   -5.9585650   -1.8634640  
H     5.4305370   -4.7489160   -0.1145540  
H     4.8107980   -0.5709110    2.8677260  
C    -3.4086180    0.8896500   -1.7479010  
C    -4.6912330    1.3229810   -1.7420890  
C    -5.3613180    0.6797330   -0.6327890  
C    -4.3484580   -0.1871530    0.0182240  
N    -3.1638820   -0.0318280   -0.7188650  
C    -4.5835330   -0.9087510    1.1393410  
C    -5.9251120   -0.8702640    1.7257780  
O    -6.2194850   -1.4907520    2.7349360  
C    -7.0212040    0.0095650    1.0261850  
O    -8.1471790    0.0428300    1.4970990  
C    -6.6329530    0.7697050   -0.1633360  
H    -5.1386290    2.0086410   -2.4473250  
H    -3.8421150   -1.5356790    1.6185610  
H    -7.3843490    1.4011940   -0.6276110  
H    -2.6018710    1.1266880   -2.4277840  
