62


C     4.1283120   -2.2572410   -2.0160680  
C     4.9945950   -3.2549720   -1.6761540  
C     5.4007690   -3.0372310   -0.3114990  
C     4.7441650   -1.8711480    0.1472630  
N     3.9669150   -1.4105380   -0.9153500  
C     4.9014940   -1.3554570    1.4363020  
C     5.7523750   -2.0423180    2.2900180  
O     5.9475130   -1.5891580    3.5593010  
C     6.4241570   -3.2164480    1.8539670  
O     7.2314820   -3.7825890    2.8193310  
C     6.2591660   -3.7165460    0.5754260  
H     5.3136920   -4.0601050   -2.3237490  
H     4.3985200   -0.4587990    1.7810040  
H     6.5786700   -2.1916490    3.9897710  
H     7.6850750   -4.5566680    2.4542070  
H     6.7836760   -4.6173880    0.2636650  
H     3.5997230   -2.0458510   -2.9340100  
C     1.8621500   -0.2686110   -0.4082070  
C     1.3606790    1.0000510   -0.4233680  
C     2.4262610    1.8643120   -0.9389170  
C     3.5912170    0.9907170   -1.2087640  
N     3.1723060   -0.2995270   -0.8957360  
C     4.7905060    1.4100770   -1.6759620  
C     4.9582090    2.8358680   -1.9562710  
O     6.0003970    3.3155810   -2.3716410  
C     3.7270360    3.7831140   -1.7181040  
O     3.8350270    4.9731580   -1.9630590  
C     2.4831870    3.1954650   -1.2025030  
H     5.6233650    0.7391290   -1.8564480  
H     1.6380560    3.8629930   -1.0683240  
H     1.4040540   -1.1904420   -0.0774520  
C     0.0224810    1.3969650   -0.0247090  
C    -1.1745160    0.7043160   -0.1171710  
C    -2.2025560    1.5136350    0.4524580  
C    -1.5727960    2.7050990    0.8887590  
N    -0.2352160    2.6226310    0.5639300  
C    -2.2471260    3.7444710    1.5416060  
C    -3.5993780    3.5779910    1.7744110  
O    -4.3068090    4.5440050    2.4164700  
C    -4.2845440    2.4050310    1.3486710  
O    -5.5980620    2.4221190    1.6546530  
C    -3.6184830    1.3539370    0.6575100  
H    -1.2679170   -0.2717610   -0.5652070  
H     0.4754950    3.2614410    0.8877230  
H    -1.7504700    4.6518900    1.8699550  
H    -5.2266030    4.2237690    2.4692300  
H    -5.9904640    1.5432900    1.3481790  
C    -4.3548260    0.2106500    0.1917570  
C    -3.9893580   -0.8624030   -0.6000200  
C    -5.1429830   -1.6870600   -0.7364780  
C    -6.2110110   -0.9848170    0.0532040  
N    -5.7440490    0.1110760    0.5787730  
C    -7.5422840   -1.5018060    0.1690760  
C    -7.8041940   -2.6648980   -0.4771520  
O    -8.9859740   -3.2780730   -0.4726430  
C    -6.7492970   -3.4062760   -1.2930800  
O    -7.1278420   -4.4539830   -1.8281810  
C    -5.4143680   -2.8571420   -1.3871490  
H    -3.0385750   -1.0424350   -1.0726610  
H    -8.2945840   -0.9774520    0.7475220  
H    -8.8484060   -4.0847500   -1.0274820  
H    -4.6831050   -3.4031450   -1.9741950  
