62


C     1.4505050    0.5572090   -1.2879190  
C     2.1843640   -0.5546830   -0.9627680  
C     3.0691440   -0.1916490    0.1153950  
C     2.8261250    1.1729800    0.3989940  
N     1.8340170    1.6230870   -0.4761970  
C     3.4960060    1.8537350    1.4217600  
C     4.4381900    1.1455720    2.1508650  
O     5.1196010    1.7630060    3.1568320  
C     4.7046620   -0.2205210    1.8638250  
O     5.6722520   -0.7820320    2.6714660  
C     4.0362020   -0.8935860    0.8592840  
H     3.3273970    2.9005700    1.6412290  
H     5.7368550    1.1110340    3.5311510  
H     5.7950250   -1.7124690    2.4310980  
H     4.2428170   -1.9409770    0.6554330  
H     0.7138620    0.6950900   -2.0659410  
C    -2.3475160    2.7284850   -0.2007090  
C    -2.2114860    4.0859340   -0.3810730  
C    -0.8103550    4.3697400   -0.5272200  
C    -0.1167330    3.0634630   -0.4211650  
N    -1.0944920    2.1181760   -0.2364940  
C     1.2386300    2.9010730   -0.5056220  
C     2.0596740    4.1031450   -0.7365300  
O     3.2678450    4.0635040   -0.8886060  
C     1.3316350    5.5001110   -0.7997780  
O     2.0196320    6.5025770   -0.9193400  
C    -0.1228130    5.5356330   -0.7061280  
H    -3.0128350    4.8101020   -0.4056770  
H    -0.6133360    6.5012600   -0.7757660  
H    -0.9675040    1.1251770   -0.0935290  
C    -3.5106270    1.9066370    0.0058750  
C    -4.8316630    2.2543430    0.0805290  
C    -5.5405060    1.0145150    0.2997110  
C    -4.4634790   -0.0315730    0.3348010  
N    -3.2860790    0.4950760    0.1631110  
C    -4.7667810   -1.4232280    0.5372710  
C    -6.0681050   -1.7631580    0.6970460  
O    -6.4999030   -3.0133500    0.8929120  
C    -7.1774370   -0.7325890    0.6670010  
O    -8.3269670   -1.1401420    0.8212730  
C    -6.8429040    0.6829480    0.4588980  
H    -5.2668530    3.2402470   -0.0028710  
H    -3.9702180   -2.1584180    0.5588850  
H    -7.4780040   -2.9460180    0.9731710  
H    -7.6642100    1.3925850    0.4439290  
C     2.3020330   -1.9874910   -2.9919680  
C     2.1509300   -3.3103940   -3.3056300  
C     1.8580270   -4.0038010   -2.0829110  
C     1.8422300   -3.0328410   -1.0480350  
N     2.1220770   -1.7968630   -1.6246090  
C     1.5536090   -3.3549590    0.2848610  
C     1.2985970   -4.6853900    0.5809940  
O     1.0176970   -5.0551730    1.8673030  
C     1.3237900   -5.6723100   -0.4385570  
O     1.0519880   -6.9519770    0.0134600  
C     1.5951090   -5.3485250   -1.7553050  
H     2.2474870   -3.7435040   -4.2919700  
H     1.5237480   -2.6117850    1.0736040  
H     0.8627590   -6.0152730    1.8602210  
H     1.0717610   -7.5670610   -0.7343020  
H     1.5999540   -6.1212070   -2.5220860  
H     2.5511430   -1.1399340   -3.6143910  
