64


C     3.9646100   -0.3696880    0.0943150  
C     4.3194020   -1.5547730    0.6910360  
C     5.6625750   -1.8432250    0.2753920  
C     6.0774430   -0.7816230   -0.5713370  
N     5.0251320    0.1135510   -0.6571230  
C     7.3468080   -0.7314560   -1.1567450  
C     8.2180340   -1.7758080   -0.8846920  
O     9.4663470   -1.7803020   -1.4364640  
C     7.8246470   -2.8426980   -0.0345380  
O     8.8035030   -3.8022480    0.1444500  
C     6.5696600   -2.8869840    0.5449300  
H     3.7063710   -2.1249530    1.3746320  
H     4.9554870    0.8851400   -1.3033270  
H     7.6661930    0.0785130   -1.8043440  
H     9.9156790   -2.5848080   -1.1250940  
H     8.4704300   -4.4990110    0.7288390  
H     6.2923820   -3.7154040    1.1938690  
C     1.5028030   -0.2731670   -0.0051890  
C     0.5056760    0.6786820    0.0536280  
C     1.1730080    1.9505340    0.2405150  
C     2.5632210    1.6955010    0.2972260  
N     2.7496610    0.3211360    0.1272130  
C     3.5101780    2.7009810    0.5333300  
C     3.0386420    3.9952170    0.6909780  
O     3.9159010    5.0146160    0.9151820  
C     1.6475390    4.2709610    0.6227150  
O     1.3352300    5.6054730    0.7931000  
C     0.7177670    3.2714910    0.4108280  
H     4.5728340    2.5035480    0.6148910  
H     3.3930950    5.8308530    0.9990120  
H     0.3773410    5.7250860    0.7117890  
H    -0.3411280    3.5027590    0.3507340  
H     1.4405780   -1.3301410   -0.2211490  
C    -1.8634330   -2.4591130    1.9841170  
C    -3.0859420   -2.1539210    1.4419970  
C    -2.9070960   -1.0018160    0.6044480  
C    -1.5281530   -0.6676010    0.6654780  
N    -0.9212270   -1.5706320    1.5132500  
C    -0.9332500    0.3987520   -0.0390300  
C    -1.8112100    1.1246360   -0.8532530  
O    -1.3479380    2.1659970   -1.6001880  
C    -3.1852350    0.8009840   -0.9616350  
O    -3.8752330    1.6411300   -1.8121760  
C    -3.7800810   -0.2336910   -0.2266640  
H    -4.0062630   -2.6866200    1.6287320  
H     0.0413230   -1.5049810    1.8070930  
H    -2.1174720    2.4620660   -2.1259730  
H    -4.4332220    1.0702270   -2.3834790  
H    -1.5847780   -3.2470200    2.6695260  
C    -6.9491460   -0.9678200    2.8521850  
C    -5.7748270   -0.6222110    2.2737240  
C    -5.9999900   -0.7488560    0.8345250  
C    -7.4132620   -1.1949980    0.7381120  
N    -7.9650120   -1.3316240    1.9123120  
C    -8.0547220   -1.4308280   -0.5309310  
C    -7.3373770   -1.1823670   -1.6486930  
O    -7.8218410   -1.3221120   -2.8989400  
C    -5.9341520   -0.6661920   -1.5804220  
O    -5.4124090   -0.3747700   -2.6675880  
C    -5.2240690   -0.5277910   -0.2696600  
H    -4.8612980   -0.3038480    2.7528440  
H    -9.0831630   -1.7723310   -0.5677230  
H    -7.0998640   -1.0364010   -3.4970290  
H    -7.1932760   -0.9886260    3.9074560  
