60


C    -5.0316970   -2.6601730    1.7052650  
C    -5.9913960   -2.8368360    0.7447660  
C    -5.9851060   -1.6621770   -0.0821420  
C    -4.9821190   -0.7997110    0.4299940  
N    -4.4026850   -1.4415840    1.5086530  
C    -4.7026920    0.4737460   -0.1114430  
C    -5.4760810    0.8584990   -1.2093610  
O    -5.2339980    2.0513450   -1.8169520  
C    -6.4803170    0.0052010   -1.7346840  
O    -7.1382020    0.5348990   -2.8296140  
C    -6.7400440   -1.2395240   -1.1934580  
H    -6.6298980   -3.7027570    0.6355140  
H    -3.7655140   -1.0068790    2.1579790  
H    -5.9251010    2.1782430   -2.4901550  
H    -7.8994560   -0.0220390   -3.0493240  
H    -7.5141820   -1.8747660   -1.6192550  
H    -4.7274100   -3.3068980    2.5160680  
C    -0.3700140   -0.1157240    0.3844190  
C    -0.0582150    1.1011920    0.9642670  
C    -1.2665290    1.8649510    1.0767630  
C    -2.3450530    1.0122100    0.5305210  
N    -1.7395080   -0.1632280    0.1321310  
C    -3.6615140    1.3648970    0.4412910  
C    -4.0212030    2.6999440    0.9737290  
O    -5.1703420    3.0945090    1.0505510  
C    -2.8769560    3.6400260    1.5072410  
O    -3.1677920    4.7678670    1.8771900  
C    -1.5118530    3.1235430    1.5456440  
H     0.9114820    1.4036310    1.3267470  
H    -0.7310900    3.7711780    1.9325920  
H    -2.2109450   -0.9903830   -0.2076040  
C     4.0765100   -0.6216870   -0.1126560  
C     2.8297640   -0.0435840   -0.0124730  
C     1.8892510   -1.1274480   -0.0196690  
C     2.7477850   -2.3434550   -0.1697920  
N     4.0155360   -2.0497580   -0.1977650  
C     2.1911040   -3.6643670   -0.2784060  
C     0.8440370   -3.7801390   -0.2634970  
O     0.1910640   -4.9450770   -0.3868470  
C    -0.0554870   -2.5839500   -0.1221840  
O    -1.2684080   -2.8031110   -0.1924600  
C     0.5179340   -1.2246440    0.0875840  
H     2.6147550    1.0097800    0.0682080  
H     2.8449600   -4.5224340   -0.3847390  
H    -0.7649460   -4.7221820   -0.3719790  
C     5.5570790    3.2013330   -1.8847010  
C     4.7328250    2.1795490   -1.5229190  
C     5.5689840    1.2634330   -0.7766440  
C     6.9243330    1.9134070   -0.8055880  
N     6.9017070    3.0476780   -1.4499200  
C     8.0708310    1.3034940   -0.1981170  
C     7.8978620    0.1032900    0.4056150  
O     8.8772150   -0.5725150    1.0180210  
C     6.5499900   -0.5758660    0.4854420  
O     6.4974330   -1.6064840    1.1444900  
C     5.3589910    0.0533530   -0.1704600  
H     3.6876730    2.0590890   -1.7650470  
H     9.0341460    1.8000880   -0.2317860  
H     8.4495090   -1.3764270    1.3902880  
H     5.2988810    4.0828240   -2.4603300  
