62


C    -5.2680520   -0.0841980    2.5893250  
C    -4.6063300   -0.2431130    1.3933100  
C    -5.5867640   -0.5668510    0.3894130  
C    -6.8394550   -0.5904490    1.0508130  
N    -6.6111780   -0.3053590    2.3848730  
C    -8.0380510   -0.8724020    0.3827540  
C    -7.9653750   -1.1317970   -0.9762030  
O    -9.1010440   -1.4057960   -1.6767610  
C    -6.7139610   -1.1138500   -1.6534550  
O    -6.8104650   -1.3970700   -3.0002480  
C    -5.5326200   -0.8393930   -0.9920660  
H    -7.3233860   -0.2382160    3.0951280  
H    -9.0015100   -0.8877080    0.8817110  
H    -8.8447640   -1.5294210   -2.6072910  
H    -5.9520410   -1.2564860   -3.4267930  
H    -4.5865710   -0.8288070   -1.5276930  
H    -4.8795830    0.1733050    3.5640510  
C    -2.2528690   -0.9774100    1.7947400  
C    -0.9906100   -0.6147670    1.4481020  
C    -1.0983290    0.5331880    0.5740460  
C    -2.5465610    0.8175480    0.4533410  
N    -3.2083180   -0.1440200    1.2095020  
C    -3.0845230    1.8476840   -0.2528110  
C    -2.1769440    2.7375770   -0.9546000  
O    -2.5444950    3.7084450   -1.6004410  
C    -0.6326200    2.4383380   -0.8825990  
O     0.1205450    3.1499090   -1.5274010  
C    -0.1508300    1.3007590   -0.0631130  
H    -0.0778820   -1.0913740    1.7736400  
H    -4.1508060    2.0369710   -0.3042530  
H    -2.5909400   -1.7856540    2.4294060  
C     1.8003150   -0.2710740   -0.1215530  
C     1.2776110    0.9850160   -0.0150500  
C     2.4180870    1.8796330    0.2052860  
C     3.6241830    1.0154590    0.2360100  
N     3.1878620   -0.2849300    0.0031740  
C     4.8883170    1.4595650    0.4680170  
C     5.0922680    2.8857740    0.6996660  
O     6.1905240    3.3757750    0.9179410  
C     3.8319900    3.8203560    0.6692230  
O     3.9764750    5.0159750    0.8677620  
C     2.5185750    3.2165130    0.4115570  
H     5.7477910    0.8008500    0.5250440  
H     1.6628860    3.8800020    0.3806140  
H     1.2860580   -1.2027160   -0.3066950  
C     6.6292420   -1.2959110   -2.5326060  
C     6.8386200   -2.5523980   -2.0295690  
C     5.8506670   -2.7704890   -1.0107640  
C     5.0629870   -1.5902360   -0.9467220  
N     5.5485730   -0.7151660   -1.8926670  
C     3.9865150   -1.4565990   -0.0489120  
C     3.7043990   -2.5389930    0.7843560  
O     2.6693610   -2.4636870    1.6748270  
C     4.4761900   -3.7245770    0.7105390  
O     4.0582990   -4.7041620    1.5920920  
C     5.5373950   -3.8526780   -0.1660030  
H     7.6038740   -3.2462660   -2.3482780  
H     5.2447230    0.2396930   -2.0088970  
H     2.6761640   -3.2956830    2.1808840  
H     4.7027200   -5.4271780    1.6045810  
H     6.1107750   -4.7762210   -0.2048570  
H     7.1595190   -0.7552200   -3.3035020  
