62


C    -3.6991170    1.6479830   -1.7967340  
C    -3.5874920    0.6196040   -0.8805890  
C    -4.8785880    0.5216190   -0.2237340  
C    -5.7146090    1.5125920   -0.7994670  
N    -4.9660820    2.1778730   -1.7508810  
C    -7.0359660    1.7246120   -0.3891480  
C    -7.5263450    0.9230070    0.6293980  
O    -8.8054580    1.0856850    1.0636380  
C    -6.7002120   -0.0643980    1.2334890  
O    -7.3270590   -0.7688090    2.2388630  
C    -5.3949290   -0.2707300    0.8268830  
H    -5.3017290    2.9290590   -2.3342390  
H    -7.6739520    2.4850390   -0.8273950  
H    -8.9512540    0.4550460    1.7901910  
H    -6.6999400   -1.3781930    2.6560190  
H    -4.7804300   -1.0201570    1.3194000  
H    -2.9689180    2.0154250   -2.5035320  
C     0.7296850    1.6538260   -0.1736560  
C    -0.6345530    1.6947880   -0.3835030  
C    -1.0943730    0.3501410   -0.5024390  
C     0.0393730   -0.4915790   -0.3596220  
N     1.1428120    0.3196230   -0.2030310  
C    -0.0355610   -1.9066090   -0.3414340  
C    -1.3359180   -2.4255620   -0.4517910  
O    -1.5399970   -3.7755530   -0.4430560  
C    -2.4704660   -1.5961890   -0.6219960  
O    -3.6398200   -2.3102150   -0.7711020  
C    -2.3922040   -0.2071630   -0.6656260  
H    -1.2315090    2.5914190   -0.4626420  
H     1.9996760   -0.0061540    0.2249680  
H    -2.4922370   -3.9223090   -0.5956700  
H    -4.3652840   -1.7010630   -0.9938580  
C     1.1489680   -2.7445210   -0.2180200  
C     2.4653870   -2.4470890   -0.5005030  
C     3.2611640   -3.6110350   -0.2156840  
C     2.3123520   -4.6433750    0.2698590  
N     1.0670540   -4.0528480    0.2649560  
C     2.6686020   -5.9020760    0.6316290  
C     4.0769750   -6.2773650    0.5442670  
O     4.4897560   -7.3870360    0.8466240  
C     5.1022130   -5.1970210    0.0369440  
O     6.2850870   -5.4958870   -0.0394750  
C     4.5936000   -3.8746640   -0.3236730  
H     2.8313270   -1.5402080   -0.9573050  
H     1.9595840   -6.6451840    0.9834610  
H     5.3112340   -3.1392380   -0.6751390  
H     0.1873190   -4.5316970    0.3897830  
C     1.6715290    2.7247940    0.0129310  
C     1.4638360    4.0094000    0.4434090  
C     2.7294140    4.6917900    0.4482080  
C     3.7293310    3.7033590   -0.0229840  
N     3.0456120    2.5038290   -0.2096270  
C     5.0406560    3.9756280   -0.2189690  
C     5.5227930    5.3246110    0.0848160  
O     6.6880680    5.6573580   -0.0616560  
C     4.4898330    6.3754940    0.6328750  
O     4.8825070    7.5015980    0.9020650  
C     3.0972120    5.9608560    0.7832010  
H     0.5201500    4.4154410    0.7786410  
H     5.7592450    3.2431970   -0.5743980  
H     2.3878940    6.6993730    1.1442450  
H     3.3628510    1.8253820   -0.8896550  
