66


C    -3.2586140   -1.5647550   -0.7348610  
C    -4.2339760   -0.6449380   -0.3996090  
C    -3.5481070    0.6155370   -0.2178470  
C    -2.1727120    0.3885230   -0.4647680  
N    -2.0290710   -0.9446250   -0.7922060  
C    -1.1704660    1.3784150   -0.3507130  
C    -1.6222440    2.6381400    0.0454410  
O    -0.7402320    3.6772650    0.1764880  
C    -2.9967030    2.8820040    0.3039540  
O    -3.2648130    4.1897280    0.6813630  
C    -3.9604170    1.9026950    0.1761070  
H    -1.1381660   -1.3922350   -0.9445440  
H    -1.2720610    4.4658930    0.3831580  
H    -4.2233610    4.3280220    0.6777990  
H    -5.0080480    2.1215680    0.3594110  
H    -3.3629220   -2.6088670   -0.9966140  
C    -6.1673680   -3.8883690    1.8445390  
C    -7.4718420   -3.5871180    1.5482670  
C    -7.4560230   -2.4211190    0.7100100  
C    -6.0961860   -2.0622850    0.5246530  
N    -5.3341220   -2.9821530    1.2170440  
C    -5.6667280   -0.9466080   -0.2285780  
C    -6.6878990   -0.1810250   -0.7955490  
O    -6.3836640    0.9177740   -1.5556950  
C    -8.0539940   -0.5222170   -0.6187190  
O    -8.9287130    0.3474180   -1.2536350  
C    -8.4524720   -1.6243400    0.1123850  
H    -8.3429040   -4.1320530    1.8861120  
H    -4.3362300   -2.9025810    1.3400410  
H    -7.2270470    1.2555770   -1.9043120  
H    -9.8247310   -0.0173560   -1.2123690  
H    -9.5088080   -1.8580560    0.2306870  
H    -5.7554220   -4.6856150    2.4474120  
C     0.6951270    0.3928870   -1.7609380  
C     0.2410180    1.0750400   -0.6482660  
C     1.4135990    1.3685040    0.1458740  
C     2.5341720    0.8458880   -0.5438520  
N     2.0672390    0.2700460   -1.7080140  
C     3.8615980    0.9057800   -0.0626540  
C     4.0161220    1.5208800    1.1806180  
O     5.2605190    1.6465750    1.7373110  
C     2.9028080    2.0446630    1.8889120  
O     3.2423770    2.6232120    3.1030500  
C     1.6154160    1.9836800    1.3959080  
H     2.6492000   -0.2379440   -2.3563560  
H     5.1470970    2.1667110    2.5522830  
H     2.4787190    3.1119850    3.4435370  
H     0.7839890    2.4110130    1.9483890  
H     0.1419370    0.0392280   -2.6203710  
C     5.2049640    0.5912280   -2.1906570  
C     4.9853770    0.3617850   -0.8469060  
C     6.0353990   -0.5359620   -0.4173250  
C     6.8487710   -0.8078610   -1.5461080  
N     6.3168090   -0.1108320   -2.6131060  
C     7.9602440   -1.6595950   -1.4943710  
C     8.2554240   -2.2483090   -0.2754870  
O     9.3307650   -3.0831630   -0.1621210  
C     7.4486820   -1.9906420    0.8648350  
O     7.8696600   -2.6514930    2.0064610  
C     6.3520010   -1.1532990    0.8085380  
H     6.7192410   -0.0615910   -3.5355970  
H     8.5854390   -1.8666300   -2.3571030  
H     9.3706410   -3.3693060    0.7667600  
H     7.3251310   -2.3683660    2.7557170  
H     5.7604450   -0.9528870    1.6971210  
H     4.6748470    1.2446620   -2.8699690  
