60


C    -2.1200700   -1.2228410   -0.3430110  
C    -2.5981670    0.0668290   -0.4677040  
C    -4.0184520   -0.0089110   -0.6017200  
C    -4.3703250   -1.3838930   -0.5553880  
N    -3.2040600   -2.1006780   -0.3664760  
C    -5.6932710   -1.8272040   -0.6706900  
C    -6.6767850   -0.8619070   -0.8246380  
O    -7.9828000   -1.2357900   -0.9428790  
C    -6.3426560    0.5210630   -0.8549670  
O    -7.4363680    1.3524720   -1.0039390  
C    -5.0371660    0.9557680   -0.7437260  
H    -2.0164890    0.9766040   -0.4075510  
H    -3.1184100   -3.0991650   -0.4833890  
H    -5.9712750   -2.8756310   -0.6387350  
H    -8.5083250   -0.4212990   -1.0266940  
H    -7.1436730    2.2757290   -0.9836220  
H    -4.7964770    2.0165450   -0.7650400  
C     0.3531870   -1.1551000   -0.7670430  
C    -0.7566930   -1.6936150   -0.1847890  
C    -0.2854550   -2.7993390    0.6488570  
C     1.1881730   -2.8461220    0.4995720  
N     1.5313300   -1.8068510   -0.3708960  
C     1.9906470   -3.7176940    1.1571320  
C     1.3752450   -4.6891350    2.0605860  
O     2.0228800   -5.5056740    2.6967540  
C    -0.1848730   -4.6613690    2.2270000  
O    -0.7200510   -5.4608920    2.9777850  
C    -0.9414000   -3.6541310    1.4751010  
H     3.0669090   -3.7463320    1.0381900  
H    -2.0143010   -3.6114880    1.6322610  
H     0.4112790   -0.3557840   -1.4929380  
C     3.4110900    2.0932690   -0.1848420  
C     4.5922440    1.7691970   -0.7980310  
C     4.5592870    0.3688250   -1.1366650  
C     3.2505650   -0.1251270   -0.6671890  
N     2.5720440    0.9644940   -0.1479990  
C     2.8265400   -1.4197740   -0.7684870  
C     3.7213290   -2.3787740   -1.4497570  
O     3.3982350   -3.5297520   -1.6790860  
C     5.1349320   -1.8666910   -1.9192400  
O     5.9051100   -2.6815910   -2.4036660  
C     5.4589280   -0.4570170   -1.7447020  
H     5.3849740    2.4596550   -1.0489970  
H     6.4274760   -0.1135340   -2.0934620  
H     1.8238760    0.8635810    0.5244390  
C     3.7406710    4.3426350    0.8835050  
C     2.9502930    3.3530310    0.3566740  
C     1.5720430    3.8336880    0.4444540  
C     1.6426240    5.1764560    1.0693200  
N     2.9893920    5.4193070    1.2973600  
C     0.5712700    5.9640170    1.3279660  
C    -0.7582760    5.4697290    0.9627220  
O    -1.7796010    6.1064990    1.1572670  
C    -0.8563180    4.0572790    0.2832500  
O    -1.9535230    3.6235080   -0.0320050  
C     0.3821980    3.3076860    0.0526240  
H     0.6453820    6.9477900    1.7807390  
H     0.2969000    2.3487450   -0.4464010  
H     4.8150960    4.3464840    1.0116590  
H     3.3569120    6.2389780    1.7567420  
