62


C    -3.6823000    0.0660630   -0.5917880  
C    -4.4270590    0.7270000   -1.5620340  
C    -5.7255690    0.9618040   -1.0336560  
C    -5.7411030    0.4280120    0.2874740  
N    -4.5050590   -0.1396570    0.5176100  
C    -6.8616910    0.5045150    1.1195930  
C    -7.9944000    1.1194660    0.6070600  
O    -9.1126580    1.2218560    1.3716280  
C    -8.0051350    1.6442830   -0.7195600  
O    -9.2097260    2.2136700   -1.0725550  
C    -6.8974570    1.5705160   -1.5372570  
H    -4.0786210    0.9594070   -2.5590770  
H    -4.1585160   -0.3890700    1.4317380  
H    -6.8794160    0.1034160    2.1275120  
H    -9.7929620    1.6696430    0.8385260  
H    -9.1648960    2.5403140   -1.9835450  
H    -6.9250120    1.9791220   -2.5449750  
C    -1.2859060    0.0769380   -1.4021380  
C    -2.3190220   -0.3779440   -0.6262520  
C    -1.7142260   -1.4894530    0.1539880  
C    -0.2940140   -1.5135300   -0.2707460  
N    -0.0745910   -0.6022820   -1.1873870  
C     0.6584240   -2.4931690    0.2495670  
C     0.1183810   -3.4147950    1.1075530  
O     0.8524980   -4.4138530    1.6863280  
C    -1.2958880   -3.4431770    1.5175470  
O    -1.6643460   -4.3157650    2.3151460  
C    -2.2184140   -2.4236290    0.9808370  
H     0.2044950   -4.8962550    2.2515080  
H    -3.2618020   -2.5041030    1.2696860  
H    -1.3137150    0.8836470   -2.1244920  
C     3.8290470    0.7251540   -0.0470740  
C     2.6542390    0.0122970    0.1838550  
C     2.8788170   -1.3378710   -0.1936430  
C     4.2330120   -1.4152710   -0.6321810  
N     4.7744170   -0.1588640   -0.5424880  
C     4.8295800   -2.6068210   -1.0554840  
C     4.0463350   -3.7479640   -1.0137130  
O     4.5598080   -4.9445320   -1.4001000  
C     2.6945210   -3.7085040   -0.5654430  
O     2.0625990   -4.9312330   -0.6252710  
C     2.0735410   -2.5169200   -0.1736230  
H     1.7545490    0.4038080    0.6302120  
H     5.7409770    0.1157220   -0.6652140  
H     5.8593230   -2.6635020   -1.3918280  
H     3.8405320   -5.5924070   -1.2702960  
H     1.6038430   -5.0799740    0.2301460  
C     1.1879970    4.2199110    0.1529520  
C     2.1084250    5.1793190    0.4367650  
C     3.4032830    4.5358320    0.4794440  
C     3.1555180    3.1073480    0.2178950  
N     1.7870900    2.9690450    0.0623770  
C     4.1220740    2.1298590    0.1410270  
C     5.5163530    2.6166500    0.2168130  
O     6.4861720    1.9055210   -0.0171690  
C     5.7926690    4.1212240    0.6000070  
O     6.9549190    4.4564850    0.7810430  
C     4.6613150    5.0244550    0.6940000  
H     1.9144590    6.2302940    0.5949100  
H     4.8566320    6.0675300    0.9208700  
H     0.1183660    4.3123240    0.0175820  
H     1.3665590    2.1556140   -0.3671560  
