64


C     3.8671610   -0.6922700   -2.7892990  
C     3.6671760   -0.5062100   -1.4416380  
C     4.7634100   -1.1315980   -0.7480420  
C     5.6041300   -1.6857750   -1.7456810  
N     5.0283810   -1.4132320   -2.9722230  
C     6.7816570   -2.3791300   -1.4364880  
C     7.1116950   -2.5127240   -0.0974460  
O     8.2505290   -3.1727790    0.2598620  
C     6.2748700   -1.9665120    0.9143110  
O     6.7366300   -2.1896850    2.1970850  
C     5.1125460   -1.2855080    0.6083900  
H     5.4125220   -1.6746900   -3.8664900  
H     7.4327790   -2.8019910   -2.1947180  
H     8.3109020   -3.1369710    1.2302420  
H     6.1837230   -1.7059460    2.8285320  
H     4.4859420   -0.8727910    1.3951620  
H     3.2700150   -0.3604220   -3.6261060  
C     1.2326880   -0.2230340   -1.0400680  
C     0.3944400    0.6403980   -0.3713330  
C     1.2491700    1.6134760    0.2737580  
C     2.5863950    1.2765200   -0.0530990  
N     2.5563480    0.1412340   -0.8576800  
C     3.6860840    2.0197750    0.3951150  
C     3.4300120    3.1144400    1.2060770  
O     4.4635050    3.8768320    1.6697890  
C     2.0984530    3.4542710    1.5632780  
O     2.0047580    4.5592860    2.3896880  
C     1.0158320    2.7203950    1.1147770  
H     4.7061430    1.7725770    0.1240830  
H     4.0711710    4.6120000    2.1721580  
H     1.0824100    4.8524700    2.4333800  
H     0.0060080    3.0005330    1.4042650  
H     0.9937090   -1.0810990   -1.6522310  
C    -1.7840950   -0.6031990   -0.0841600  
C    -1.0631310    0.5317150   -0.3110460  
C    -2.0439010    1.5914950   -0.5338570  
C    -3.3831880    0.9670270   -0.4052930  
N    -3.1668060   -0.3781500   -0.1356140  
C    -4.5565680    1.6376050   -0.5289570  
C    -4.5132790    3.0652630   -0.8232100  
O    -5.5158620    3.7548910   -0.9433020  
C    -3.1043270    3.7433400   -0.9926590  
O    -3.0469830    4.9387400   -1.2396220  
C    -1.9093800    2.9103530   -0.8339280  
H    -5.5238960    1.1572950   -0.4340490  
H    -0.9410880    3.3839850   -0.9577000  
H    -1.4243690   -1.6041560    0.1161490  
C    -4.1391510   -2.5833930    3.5030450  
C    -5.1398010   -3.3552670    2.9739470  
C    -5.2739390   -2.9874860    1.5919740  
C    -4.3110440   -1.9761390    1.3446450  
N    -3.6284970   -1.7529420    2.5196930  
C    -4.1578540   -1.3710500    0.0838320  
C    -4.9990240   -1.7958460   -0.9432220  
O    -4.8833080   -1.2492520   -2.1832060  
C    -5.9763890   -2.7963370   -0.6982780  
O    -6.7327290   -3.1024750   -1.8126360  
C    -6.1177920   -3.3952540    0.5393640  
H    -5.7158350   -4.1001450    3.5052880  
H    -2.9245510   -1.0440890    2.6555600  
H    -5.5717630   -1.6528720   -2.7406320  
H    -7.3993020   -3.7664000   -1.5825310  
H    -6.8727900   -4.1630930    0.6945150  
H    -3.7371600   -2.5531020    4.5057600  
