62


C     3.6568130    0.9112290    2.0081000  
C     4.1628710    2.1788160    2.0189610  
C     5.0622710    2.2901650    0.9032320  
C     5.0726200    1.0357890    0.2451700  
N     4.1950470    0.1933220    0.9335160  
C     5.8209290    0.7996430   -0.9132080  
C     6.5868400    1.8458550   -1.4035640  
O     7.3406280    1.6657930   -2.5263310  
C     6.5959550    3.1072870   -0.7515960  
O     7.4050250    4.0464520   -1.3619320  
C     5.8467250    3.3391770    0.3866610  
H     3.9361490    2.9443800    2.7487150  
H     5.8458530   -0.1597830   -1.4153180  
H     7.8189340    2.4968770   -2.6890170  
H     7.4121040    4.8586510   -0.8343740  
H     5.8593570    4.3157340    0.8666900  
H     2.9907190    0.4151690    2.6992380  
C     0.3162870   -1.5840210    0.1192960  
C     0.7416240   -2.8746160   -0.0425600  
C     2.1665970   -2.9273540    0.1538370  
C     2.5796150   -1.5436200    0.4441780  
N     1.4174150   -0.7609380    0.5009150  
C     3.8665040   -1.1377170    0.6156350  
C     4.9200320   -2.1817910    0.5638320  
O     6.0945160   -1.9358140    0.7617160  
C     4.4835870   -3.6662860    0.2717120  
O     5.3603090   -4.5141940    0.1912010  
C     3.0675390   -3.9497600    0.0931540  
H     0.1011880   -3.7250700   -0.2256400  
H     2.7773670   -4.9745370   -0.1152790  
H     1.4722360    0.1870710    0.1360390  
C    -3.2146220   -2.4998770   -2.4901380  
C    -1.9742600   -2.5026400   -1.9043710  
C    -1.9956040   -1.5170400   -0.8623950  
C    -3.2900070   -0.9410220   -0.8677630  
N    -4.0192640   -1.5756110   -1.8542530  
C    -3.6846750    0.1170830   -0.0215810  
C    -2.7101420    0.5916240    0.8592860  
O    -3.0338780    1.5602820    1.7530020  
C    -1.4047800    0.0414070    0.8858240  
O    -0.6021680    0.6093020    1.8450850  
C    -1.0174640   -1.0125260    0.0427710  
H    -1.1400540   -3.1211200   -2.1999310  
H    -4.9304590   -1.2792050   -2.1692520  
H    -2.2255080    1.7858920    2.2461190  
H     0.2527790    0.1392880    1.8811620  
H    -3.5977240   -3.0900820   -3.3104080  
C    -7.6356180   -1.6941280    0.6325520  
C    -8.4268530   -0.6069490    0.4455310  
C    -7.5589980    0.5107310    0.1345060  
C    -6.1764030   -0.0258920    0.1522290  
N    -6.2949610   -1.3747840    0.4355660  
C    -5.0400250    0.7031960   -0.0577540  
C    -5.2255750    2.1383140   -0.3693270  
O    -4.3027790    2.8745320   -0.6674110  
C    -6.6841040    2.7302750   -0.3607560  
O    -6.8290710    3.9253440   -0.5634650  
C    -7.8053660    1.8244810   -0.1153810  
H    -9.5042140   -0.5763480    0.5177940  
H    -8.8064410    2.2446190   -0.1207140  
H    -7.9121980   -2.7085580    0.8883140  
H    -5.5122810   -1.9794680    0.6343050  
