60


C    -5.2305650    2.2464090    0.5422240  
C    -6.4943700    2.7299590    0.4379870  
C    -7.3571590    1.6336280    0.0707400  
C    -6.5516990    0.4774180   -0.0366090  
N    -5.2295420    0.8633700    0.2721240  
C    -7.0679640   -0.7547210   -0.4531050  
C    -8.4322260   -0.8259080   -0.7112040  
O    -8.9729400   -2.0073140   -1.1093180  
C    -9.2579340    0.3184200   -0.5745000  
O   -10.5818230    0.0862850   -0.8633970  
C    -8.7322520    1.5434290   -0.1987680  
H    -6.7924900    3.7545370    0.6131570  
H    -6.4636950   -1.6365040   -0.6260380  
H    -9.9226200   -1.8617300   -1.2647040  
H   -11.0888300    0.9090290   -0.7923630  
H    -9.3723340    2.4194390   -0.1234490  
H    -4.3120890    2.7309970    0.8350090  
C    -4.1084120    0.0811360    0.3540640  
C    -2.7830200    0.4598310    0.2427050  
C    -1.9788330   -0.6964070    0.4479480  
C    -2.9237610   -1.8111500    0.6808190  
N    -4.2080020   -1.2818690    0.5806320  
C    -2.5792350   -3.0914530    0.9444430  
C    -1.1587850   -3.4248540    0.9410150  
O    -0.7380820   -4.5414280    1.1878260  
C    -0.1323950   -2.2969300    0.5740580  
O     1.0350790   -2.6464440    0.4309260  
C    -0.6020870   -0.9072500    0.4284630  
H    -2.4459370    1.4357620   -0.0633390  
H    -3.2973730   -3.8821320    1.1372940  
H    -5.0191070   -1.7153280    0.9986860  
C     0.3598360    0.1699100    0.2821240  
C     0.2183640    1.5321990    0.4703230  
C     1.4920030    2.1488530    0.2534630  
C     2.4268710    1.0557940   -0.0905320  
N     1.6826450   -0.0989080   -0.0795790  
C     3.7727190    1.2091140   -0.3446690  
C     4.2832650    2.5952030   -0.2523350  
O     5.4525410    2.8883250   -0.4488360  
C     3.2939100    3.7701920    0.1003990  
O     3.7515990    4.9030780    0.1705000  
C     1.8992550    3.4516270    0.3336490  
H    -0.6672250    2.0486010    0.8029250  
H     1.2232140    4.2637000    0.5827530  
H     2.0391680   -1.0488660   -0.0812980  
C     4.2907560   -1.0058690   -1.4618890  
C     4.6373090    0.1013250   -0.7317320  
C     6.0662620   -0.1399360   -0.3952060  
C     6.3686590   -1.4562210   -1.0221260  
N     5.3312250   -1.9413050   -1.6515820  
C     7.6647470   -2.0731030   -0.9224980  
C     8.6204320   -1.4286710   -0.2118650  
O     9.8698830   -1.8881070   -0.0252750  
C     8.3443250   -0.1100110    0.4479340  
O     9.2566070    0.4124990    1.0874070  
C     7.0088000    0.5139340    0.3098620  
H     7.8438290   -3.0298730   -1.4004260  
H    10.3137040   -1.2060650    0.5256660  
H     6.8700760    1.4874850    0.7624380  
H     3.3335960   -1.2086090   -1.9272430  
