60


C     3.2157990    2.0342470   -0.0653860  
C     4.5492070    2.4526940   -0.0670800  
C     5.3477190    1.3267580   -0.3691670  
C     4.4595660    0.2164560   -0.5522530  
N     3.1879080    0.6757530   -0.3569880  
C     4.9179390   -1.0681600   -0.8709900  
C     6.2849250   -1.2396880   -1.0051270  
O     6.7866310   -2.4607990   -1.3128500  
C     7.1888070   -0.1429550   -0.8232380  
O     8.5083690   -0.4965470   -0.9935770  
C     6.7420230    1.1193550   -0.5109130  
H     4.8892930    3.4593360    0.1335520  
H     2.3208090    0.1647240   -0.4383070  
H     4.2535690   -1.9136450   -1.0125460  
H     7.7556420   -2.3796810   -1.3622130  
H     9.0776820    0.2765940   -0.8630530  
H     7.4433100    1.9398360   -0.3773640  
C     2.0005610    2.7354530    0.1661200  
C     1.7632220    4.0667190    0.4259870  
C     0.3485200    4.1937000    0.5559520  
C    -0.1786540    2.8007360    0.3414820  
N     0.7876310    1.9582670    0.1187650  
C    -1.6028030    2.4917460    0.3847140  
C    -2.4162410    3.5516050    0.6716740  
O    -3.7415350    3.4603650    0.8154790  
C    -1.9104040    4.9658930    0.8854790  
O    -2.7789690    5.8121050    1.1312350  
C    -0.4923770    5.2362100    0.8106210  
H     2.4906570    4.8620480    0.5061670  
H    -4.0280070    4.3873730    1.0137140  
H    -0.1599560    6.2565610    0.9704910  
C    -1.4261270   -0.0016050    0.5886280  
C    -2.0754140    1.1197730    0.1666770  
C    -3.2447510    0.6621220   -0.5827950  
C    -3.2211240   -0.8197140   -0.5388600  
N    -2.0625840   -1.1779060    0.1779120  
C    -4.1915580   -1.6092940   -1.0522210  
C    -5.3009730   -0.9790770   -1.7718490  
O    -6.2141090   -1.6225370   -2.2631370  
C    -5.2929820    0.5793660   -1.9152050  
O    -6.1836890    1.1237870   -2.5479060  
C    -4.2154700    1.3265120   -1.2601400  
H    -4.1826240   -2.6902990   -0.9984080  
H    -4.2581750    2.4067460   -1.3092070  
H    -0.4990810   -0.0706310    1.1358040  
C    -0.6185080   -2.9156880    3.9760970  
C    -1.1348800   -2.0254340    3.0914020  
C    -1.1984020   -2.7465430    1.8253130  
C    -0.6551210   -4.0920940    2.1473440  
N    -0.3201740   -4.1866480    3.4056680  
C    -0.5571780   -5.1382690    1.1606170  
C    -0.9760910   -4.8661220   -0.0954550  
O    -0.9467230   -5.7500340   -1.1088300  
C    -1.5055360   -3.5155810   -0.4793620  
O    -1.7690570   -3.3202360   -1.6613520  
C    -1.6416150   -2.4528110    0.5715610  
H    -1.4635280   -1.0141950    3.2836270  
H    -0.1604760   -6.1081540    1.4389000  
H    -1.2598010   -5.2637660   -1.9010450  
H    -0.4285930   -2.7658060    5.0321240  
