60


C     0.1109860    4.3151220   -1.0208000  
C    -0.5069670    3.1679730   -0.5515580  
C    -1.8655480    3.5426740   -0.2084120  
C    -1.9967420    4.9216550   -0.5024770  
N    -0.7753360    5.3569440   -0.9914580  
C    -3.1777660    5.6391360   -0.2840690  
C    -4.2539230    4.9492100    0.2519410  
O    -5.4270460    5.5978410    0.4844280  
C    -4.1379140    3.5697620    0.5748760  
O    -5.2849600    3.0310750    1.1156880  
C    -2.9667690    2.8662670    0.3562100  
H    -0.5788350    6.2925690   -1.3135170  
H    -3.2751160    6.6966890   -0.5061920  
H    -6.0404230    4.9590710    0.8878380  
H    -5.1191910    2.1238580    1.4129580  
H    -2.8993450    1.8211330    0.6486370  
H     1.1120450    4.4431460   -1.4067820  
C     0.1127470    1.8683680   -0.4656530  
C     1.4286630    1.5115160   -0.2959470  
C     1.5167410    0.0779700   -0.3107310  
C     0.1366120   -0.4124760   -0.5289960  
N    -0.6693010    0.7084880   -0.5612380  
C    -0.2334650   -1.7184780   -0.6866430  
C     0.8336910   -2.7227080   -0.5539100  
O     0.6289690   -3.9209920   -0.6610310  
C     2.2946350   -2.2369200   -0.2450530  
O     3.1417930   -3.0843890   -0.0196320  
C     2.5761050   -0.7887850   -0.1861680  
H     2.2455790    2.1949220   -0.1203470  
H    -1.6141490    0.6997950   -0.9134760  
C     4.6572080    1.5941100    2.9622020  
C     3.7270270    0.9495220    2.2123950  
C     4.4080460    0.3957260    1.0584720  
C     5.8346230    0.7729640    1.2062760  
N     5.9128950    1.5200860    2.3665890  
C     6.8314150    0.4087610    0.3579410  
C     6.4850110   -0.4047270   -0.7973120  
O     7.3062940   -0.8080200   -1.6070700  
C     4.9713640   -0.7635060   -1.0207170  
O     4.6505870   -1.3065580   -2.0619490  
C     3.9708840   -0.3648630    0.0075060  
H     2.6751080    0.8594080    2.4358870  
H     7.8724610    0.6778030    0.5081550  
H     4.5376000    2.1222410    3.8990110  
H     6.7739300    1.8345150    2.7857180  
C    -2.3412010   -1.7638720   -2.0907120  
C    -1.6089570   -2.1348300   -1.0006780  
C    -2.4669500   -3.0265300   -0.2176410  
C    -3.7527540   -3.1229010   -0.9498900  
N    -3.6187180   -2.3143830   -2.0637850  
C    -4.8153720   -3.8668460   -0.5498660  
C    -4.7058580   -4.6136150    0.6990950  
O    -5.6106430   -5.3006570    1.1484180  
C    -3.3593320   -4.5067530    1.5054170  
O    -3.2590230   -5.0970960    2.5684860  
C    -2.2743870   -3.6860830    0.9514820  
H    -5.7452300   -3.9289440   -1.1070760  
H    -1.3391750   -3.6491030    1.4994100  
H    -2.0402520   -1.1445930   -2.9264920  
H    -4.2706790   -2.2911340   -2.8326870  
