60


C     6.5426140   -2.2513870   -0.3480810  
C     5.6190900   -1.2885360   -0.0333170  
C     4.3351570   -1.7741650   -0.4553100  
C     4.5570630   -3.0523590   -1.0407700  
N     5.9058820   -3.3195400   -0.9472540  
C     3.5438240   -3.8220020   -1.6175940  
C     2.2627880   -3.2889990   -1.6034450  
O     1.2277450   -3.9865260   -2.1461750  
C     2.0027710   -2.0274410   -1.0167330  
O     0.6713060   -1.6257510   -1.1057520  
C     3.0134040   -1.2431980   -0.4390990  
H     5.8427570   -0.3332760    0.4152630  
H     6.3588730   -4.1489210   -1.2976910  
H     3.7227680   -4.7932570   -2.0673280  
H     0.4475650   -3.4069050   -2.0542690  
H     0.2768770   -1.5256580   -0.2098830  
H     7.6125090   -2.2636880   -0.1955810  
C     2.7183330    0.0554910    0.1583870  
C     3.3654590    0.7397110    1.1597170  
C     2.6416010    1.9550270    1.4106200  
C     1.4908570    1.9480200    0.4735570  
N     1.6202870    0.8097840   -0.2759800  
C     0.5309840    2.9206390    0.3982900  
C     0.6486090    4.0397470    1.3559210  
O    -0.1952730    4.9139990    1.4638940  
C     1.8982130    4.0927820    2.3101110  
O     2.0257060    5.0603790    3.0471070  
C     2.8417050    2.9835480    2.2826960  
H     4.2327230    0.4013820    1.7041750  
H     3.6875400    3.0201180    2.9625770  
H     0.9020520    0.4300290   -0.8762420  
C    -2.6558870   -0.1088180   -0.2102580  
C    -3.4875780    0.5652480   -1.0647570  
C    -2.8309860    1.8211800   -1.3436900  
C    -1.5627380    1.7701810   -0.5474720  
N    -1.4545320    0.6379620    0.0852260  
C    -0.6258130    2.8846510   -0.5147200  
C    -0.9441870    3.9483560   -1.3135180  
O    -0.1637440    5.0235390   -1.4493390  
C    -2.1971790    4.0102500   -2.1437830  
O    -2.3770180    5.0162710   -2.8298820  
C    -3.1444200    2.8864600   -2.1109180  
H    -4.4485630    0.2366930   -1.4256340  
H    -0.6507190    5.6303410   -2.0504970  
H    -4.0460670    2.9703640   -2.7095760  
C    -6.2614520   -2.6271890   -0.1146670  
C    -5.8819410   -3.6380020    0.6962560  
C    -4.4982120   -3.3436740    1.0476080  
C    -4.1947700   -2.0598540    0.3348760  
N    -5.2305210   -1.6559530   -0.3365320  
C    -2.8845500   -1.3934200    0.4300790  
C    -1.9531520   -2.0706500    1.1808480  
O    -0.6680370   -1.6958810    1.3599600  
C    -2.2477460   -3.3530980    1.9033520  
O    -1.3302460   -3.8526390    2.5574930  
C    -3.5796840   -3.9643060    1.8087200  
H    -6.4594840   -4.4906450    1.0247250  
H    -0.2976840   -2.3809490    1.9708580  
H    -3.7460380   -4.8901080    2.3506670  
H    -7.2194930   -2.4735690   -0.5956620  
