64


C    -2.3858030    1.1999230    0.0704840  
C    -3.3984010    0.2771190   -0.0101420  
C    -2.8555850   -0.8626650   -0.7275250  
C    -1.5088040   -0.5774530   -1.0437310  
N    -1.2221780    0.7010220   -0.5306610  
C    -0.7203150   -1.4488850   -1.8055000  
C    -1.2991010   -2.6425800   -2.2172040  
O    -0.5668510   -3.5232690   -2.9505320  
C    -2.6459060   -2.9476670   -1.8925540  
O    -3.0745610   -4.1636560   -2.3762630  
C    -3.4282470   -2.0688650   -1.1660120  
H     0.2970640   -1.2321940   -2.1060430  
H    -1.1405630   -4.2821160   -3.1555910  
H    -4.0043360   -4.3013240   -2.1404800  
H    -4.4639180   -2.3019960   -0.9348890  
H    -2.3480080    2.1378100    0.6050080  
C    -0.0358900    1.4017670   -0.5807880  
C     0.1685490    2.7565110   -0.5405970  
C     1.5883120    2.9813770   -0.5411660  
C     2.2096670    1.6419830   -0.5911060  
N     1.1771390    0.7147490   -0.6728110  
C     3.5491460    1.4007580   -0.5614310  
C     4.4486510    2.5754380   -0.5170120  
O     5.6612980    2.4739000   -0.5365990  
C     3.7966560    4.0089380   -0.4651100  
O     4.5451620    4.9725430   -0.3849840  
C     2.3466450    4.1153160   -0.4987470  
H    -0.5975220    3.5171450   -0.5600770  
H     1.9109080    5.1085960   -0.4634910  
H     1.2939090   -0.2431950   -0.3689110  
C     3.7563440   -0.8005170   -1.6980580  
C     4.3911150   -1.9908770   -1.4849920  
C     5.1435940   -1.8619610   -0.2676480  
C     4.9321630   -0.5481270    0.2197040  
N     4.0692680    0.0958890   -0.6696010  
C     5.4939830   -0.0895480    1.4164830  
C     6.2979890   -0.9698630    2.1235020  
O     6.8764830   -0.5705390    3.2933920  
C     6.5284000   -2.2870380    1.6457140  
O     7.3483090   -3.0438400    2.4622960  
C     5.9634690   -2.7393380    0.4681600  
H     4.3437730   -2.8569900   -2.1312140  
H     5.3512320    0.9181710    1.7870080  
H     7.4242100   -1.3091400    3.6101250  
H     7.5364480   -3.8911990    2.0327310  
H     6.1452640   -3.7554050    0.1231370  
H     3.1372690   -0.4718930   -2.5206870  
C    -5.9717570   -2.2969170    2.6552000  
C    -4.9335170   -1.7980870    1.9111470  
C    -5.3786900   -0.5562780    1.3398330  
C    -6.7103900   -0.3516390    1.7882240  
N    -7.0465730   -1.4316880    2.5794800  
C    -7.4635360    0.7801250    1.4538270  
C    -6.8556940    1.7312610    0.6509890  
O    -7.5437780    2.8504070    0.2817560  
C    -5.5224440    1.5571520    0.1994420  
O    -5.0647860    2.5903840   -0.5926830  
C    -4.7668040    0.4280180    0.5176400  
H    -3.9607250   -2.2539720    1.7966620  
H    -7.9255040   -1.5491920    3.0583350  
H    -8.4825890    0.9341760    1.7936850  
H    -6.9568400    3.3673920   -0.2971020  
H    -4.2204560    2.3158870   -0.9927190  
H    -6.0362200   -3.2021060    3.2424620  
