62


C     2.1276780    4.7879260    1.6666700  
C     1.2950280    5.8357850    1.3689190  
C     0.2157920    5.3024260    0.5882800  
C     0.4599080    3.9154670    0.4339710  
N     1.6342430    3.6303870    1.0953480  
C    -0.4307290    3.0371840   -0.2362440  
C    -1.5927840    3.6228390   -0.7675500  
O    -2.4652660    2.8755600   -1.4841500  
C    -1.8366300    5.0139010   -0.6273640  
O    -3.0120350    5.4296480   -1.2263320  
C    -0.9574630    5.8512450    0.0318660  
H     1.4300190    6.8644710    1.6736650  
H     1.9959330    2.6966070    1.2414240  
H    -3.2250410    3.4441370   -1.7014770  
H    -3.1729690    6.3601670   -1.0118710  
H    -1.1730700    6.9144570    0.1195220  
H     3.0461920    4.7675960    2.2360050  
C    -0.1434140    1.6183000   -0.3214830  
C     1.0839900    1.0246650   -0.4363110  
C     0.8654110   -0.3850150   -0.2715200  
C    -0.6230270   -0.5083570   -0.1078140  
N    -1.2019240    0.6501720   -0.1471790  
C    -1.2841640   -1.7997410    0.0977300  
C    -0.4256480   -2.8535500    0.1777700  
O    -0.8346470   -4.1325670    0.4115150  
C     1.0609350   -2.7630900    0.0504190  
O     1.6914370   -3.8135780    0.2093570  
C     1.6998160   -1.4598560   -0.2261670  
H     2.0347480    1.5032790   -0.6114710  
H     0.0065270   -4.6509580    0.4301790  
C     4.8284060    0.8440160    1.9232420  
C     5.9610720    0.3408520    1.3852630  
C     5.5104040   -0.6176910    0.3830670  
C     4.0101640   -0.5632200    0.4648320  
N     3.6259900    0.3035350    1.3589230  
C     3.1680490   -1.4113160   -0.3694880  
C     3.8220080   -2.2049480   -1.2681400  
O     3.1955750   -2.9918060   -2.1491320  
C     5.3225240   -2.2567810   -1.3799670  
O     5.8027390   -3.0083970   -2.2257450  
C     6.1455620   -1.4202590   -0.4909570  
H     6.9863160    0.5798580    1.6307930  
H     3.9078970   -3.4530540   -2.6459440  
H     7.2240320   -1.4908010   -0.5939520  
H     4.7361570    1.5827180    2.7107340  
C    -4.8006860   -0.2923110   -2.3061400  
C    -3.5379150   -0.5649760   -1.8535360  
C    -3.6708570   -1.3166230   -0.6369730  
C    -5.0646910   -1.4740750   -0.4076730  
N    -5.7280660   -0.8318510   -1.4318730  
C    -5.5925160   -2.1842120    0.6758610  
C    -4.6857540   -2.7729190    1.5403310  
O    -5.1230890   -3.4921120    2.6128200  
C    -3.2868170   -2.6538020    1.3318100  
O    -2.5268000   -3.2790260    2.3027710  
C    -2.7486010   -1.9168820    0.2685410  
H    -2.6213200   -0.2309400   -2.3133060  
H    -6.7279690   -0.8142430   -1.5526880  
H    -6.6586670   -2.2970000    0.8457300  
H    -4.3120790   -3.8130780    3.0517780  
H    -1.8579560   -3.8344940    1.8491760  
H    -5.1240600    0.2539300   -3.1811390  
