64


C    -4.4873190    0.0936120    2.2995620  
C    -4.4075850    0.0710140    0.9134770  
C    -5.5366890   -0.7278810    0.4626500  
C    -6.2275430   -1.1604500    1.6208880  
N    -5.5661750   -0.6355380    2.7193580  
C    -7.3589000   -1.9834620    1.5809760  
C    -7.8089150   -2.3838330    0.3333080  
O    -8.9120000   -3.1773100    0.2260820  
C    -7.1282980   -1.9678630   -0.8414310  
O    -7.6928160   -2.4435640   -2.0092530  
C    -6.0094580   -1.1592740   -0.7922470  
H    -5.8728660   -0.7193480    3.6763890  
H    -7.8840220   -2.3068830    2.4738510  
H    -9.0737990   -3.3136820   -0.7238440  
H    -7.2761810   -2.0081400   -2.7680710  
H    -5.5298090   -0.8340700   -1.7089160  
H    -3.8738900    0.6308720    3.0080510  
C    -0.0726150    0.6425230    1.6687650  
C    -1.3603610    0.2267540    1.7114420  
C    -2.0501110    0.8145860    0.5784290  
C    -1.0295200    1.5929320   -0.1504640  
N     0.1485620    1.4802190    0.5616690  
C    -1.2399050    2.2714170   -1.3238390  
C    -2.5594380    2.2054900   -1.9129700  
O    -2.8531960    2.6923820   -2.9964360  
C    -3.6880320    1.4428950   -1.1223390  
O    -4.8144160    1.4654200   -1.5864730  
C    -3.3574960    0.7354810    0.1515230  
H    -1.7868070   -0.4447380    2.4401240  
H    -0.4378940    2.7312140   -1.8937570  
H     0.7531670    0.4277770    2.3322790  
C     4.2826630   -0.0621690    0.0092630  
C     2.9204560    0.0418580    0.1819970  
C     2.5781170    1.4350390    0.1623140  
C     3.7796710    2.1601660   -0.0332480  
N     4.8174380    1.2382510   -0.0651170  
C     3.8217940    3.5503300   -0.1618790  
C     2.6154630    4.2328670   -0.0756900  
O     2.5878030    5.5864540   -0.1988810  
C     1.3976540    3.5444880    0.1667710  
O     0.2991720    4.3618710    0.3217140  
C     1.3701470    2.1552970    0.2906960  
H     2.2506070   -0.7894020    0.3462510  
H     5.6918800    1.4221640   -0.5403460  
H     4.7413880    4.1005720   -0.3310320  
H     1.6527630    5.8517470   -0.1182610  
H    -0.4869010    3.9562430   -0.0944890  
C     3.7114950   -4.1711640   -1.7050670  
C     3.5354180   -2.8636140   -1.3328720  
C     4.7226510   -2.4576690   -0.6340310  
C     5.5964150   -3.5771870   -0.6228760  
N     4.9505430   -4.6069460   -1.2755430  
C     6.8723260   -3.5467310   -0.0486340  
C     7.2772180   -2.3547790    0.5307880  
O     8.5043710   -2.2683360    1.1219810  
C     6.4282100   -1.2206730    0.5319560  
O     6.9831600   -0.1155270    1.1578840  
C     5.1508430   -1.2392520   -0.0381900  
H     2.6697090   -2.2561790   -1.5511150  
H     5.3325990   -5.5264680   -1.4304390  
H     7.5368100   -4.4045730   -0.0369320  
H     8.5678000   -1.3775750    1.5092590  
H     6.2727890    0.5083300    1.3884980  
H     3.0533060   -4.8353550   -2.2471650  
