64


C    -3.3179550    1.3726120   -1.6415100  
C    -3.0867800    0.3229840   -0.7769670  
C    -4.3288730    0.1196380   -0.0547820  
C    -5.2591970    1.0765090   -0.5361600  
N    -4.6121160    1.8261210   -1.4979590  
C    -6.5664260    1.1778850   -0.0438860  
C    -6.9427960    0.2970030    0.9575490  
O    -8.2057570    0.3483070    1.4695650  
C    -6.0219050   -0.6608180    1.4620040  
O    -6.5426650   -1.4583120    2.4623790  
C    -4.7317490   -0.7573840    0.9761880  
H    -5.0315850    2.5673820   -2.0370880  
H    -7.2793790    1.9092690   -0.4106950  
H    -8.2670190   -0.3396790    2.1546970  
H    -5.8708890   -2.0925110    2.7539410  
H    -4.0427550   -1.4936190    1.3823790  
H    -2.6545090    1.8118860   -2.3726890  
C     1.2028870    1.6125020   -0.1685350  
C    -0.1738520    1.5806030   -0.3352510  
C    -0.5706250    0.2115640   -0.4663190  
C     0.6091370   -0.5694050   -0.3646380  
N     1.6614890    0.3018210   -0.1849900  
C     0.6240380   -1.9798830   -0.4178110  
C    -0.6237270   -2.5866470   -0.5844540  
O    -0.7167580   -3.9428500   -0.5988190  
C    -1.8113090   -1.8209200   -0.6980960  
O    -2.9447830   -2.5925130   -0.8729310  
C    -1.8258450   -0.4289860   -0.6404660  
H    -0.8434720    2.4254260   -0.2634450  
H     2.6389290    0.0584120   -0.1256200  
H    -1.6343450   -4.1639980   -0.8367180  
H    -3.6910600   -2.0088670   -1.0902890  
C     3.7706020   -2.0088890    2.6556480  
C     4.5897360   -2.9653120    2.1438150  
C     3.9879390   -3.4336900    0.9135710  
C     2.7344430   -2.6586040    0.7488180  
N     2.6464700   -1.8346350    1.8611770  
C     1.8607930   -2.7765500   -0.2956390  
C     2.2489700   -3.7289400   -1.3638730  
O     1.6448650   -3.8225860   -2.4170160  
C     3.5243500   -4.6282550   -1.1551670  
O     3.7717900   -5.4894830   -1.9867400  
C     4.3614900   -4.3847700    0.0138500  
H     5.5128680   -3.3212670    2.5776940  
H     5.2580900   -4.9856060    0.1320140  
H     3.8807400   -1.4235870    3.5592990  
H     1.9938520   -1.0694960    1.9460820  
C     0.8236070    5.8147560   -1.4400900  
C     1.9921300    6.2821620   -0.8998380  
C     2.6400400    5.1669920   -0.2685870  
C     1.7971960    4.0402370   -0.4493870  
N     0.6893050    4.4691160   -1.1511500  
C     2.1138280    2.7403890    0.0134430  
C     3.3587320    2.6230110    0.6451720  
O     3.7906910    1.3984410    1.1069430  
C     4.2059530    3.7391900    0.8406060  
O     5.3805420    3.4290110    1.5064170  
C     3.8645080    5.0058900    0.4074720  
H     2.3531840    7.3004050   -0.9451310  
H     0.0135790    3.8431550   -1.5614880  
H     4.6892410    1.5367390    1.4563140  
H     5.9668240    4.1996970    1.5026970  
H     4.5332620    5.8478820    0.5724450  
H     0.0589730    6.3320600   -2.0024140  
