64


C     0.1258200   -0.7791800    0.5264950  
C     0.1625360   -2.0006910    1.1530190  
C     1.5272280   -2.4447710    1.1136090  
C     2.2783250   -1.4367720    0.4579050  
N     1.4000940   -0.4233620    0.1144810  
C     3.6668280   -1.5136950    0.2272640  
C     4.2973610   -2.6669180    0.6989110  
O     5.6421310   -2.8157380    0.5519190  
C     3.5611440   -3.6863160    1.3596710  
O     4.3410610   -4.7527720    1.7691380  
C     2.1990300   -3.5932340    1.5745620  
H    -0.6772790   -2.4955080    1.6201610  
H     1.6180080    0.3452360   -0.5026500  
H     5.8731030   -3.6912660    0.9075930  
H     3.7743420   -5.4382820    2.1522870  
H     1.6642260   -4.3899410    2.0874290  
C    -2.1992260   -0.3609020   -0.1851220  
C    -3.0793570    0.6962650   -0.2468090  
C    -2.3500780    1.8591950    0.2132680  
C    -1.0383030    1.4355380    0.5339280  
N    -0.9619620    0.0659120    0.2753070  
C    -0.0700910    2.3027470    1.0543640  
C    -0.4329630    3.6264610    1.2484660  
O     0.4749790    4.5100090    1.7560630  
C    -1.7439820    4.0698490    0.9351640  
O    -1.9564180    5.4112690    1.1890530  
C    -2.6976000    3.2072530    0.4249120  
H     0.9330460    1.9814360    1.3078410  
H     0.0282460    5.3705960    1.8336780  
H    -2.8886140    5.6267760    1.0388980  
H    -3.7042570    3.5642960    0.2187620  
H    -2.3253860   -1.3909610   -0.4834280  
C     4.1171150    2.7450690    1.2993530  
C     4.8558740    3.1399580    0.2154660  
C     5.0599940    1.9788870   -0.6055800  
C     4.4079680    0.8958080    0.0381750  
N     3.8307290    1.3940340    1.1912930  
C     4.3947720   -0.4222800   -0.4672780  
C     5.0720550   -0.6218570   -1.6713770  
O     5.0783270   -1.8535960   -2.2541750  
C     5.7347670    0.4504080   -2.3250770  
O     6.3498930    0.0803130   -3.5092360  
C     5.7352140    1.7353970   -1.8174470  
H     5.2074400    4.1435100    0.0185610  
H     3.4012380    0.8251970    1.9047980  
H     5.6259940   -1.7856930   -3.0552410  
H     6.8263740    0.8404250   -3.8737510  
H     6.2477500    2.5371310   -2.3458190  
H     3.7400250    3.3187160    2.1341320  
C    -5.1259970    1.5977230   -1.4324690  
C    -4.4591090    0.6464680   -0.7151620  
C    -5.4143710   -0.4429310   -0.5060700  
C    -6.6777170   -0.0374450   -1.1727330  
N    -6.4420610    1.2153820   -1.6942260  
C    -7.8037430   -0.7964290   -1.2152200  
C    -7.7930470   -2.0945780   -0.5519300  
O    -8.7530990   -2.8509460   -0.5424520  
C    -6.4773740   -2.5298990    0.1918300  
O    -6.4513620   -3.6034070    0.7725830  
C    -5.3236330   -1.6236940    0.1572430  
H    -8.7163720   -0.4811040   -1.7118490  
H    -4.4262050   -1.9324690    0.6829680  
H    -4.7575900    2.5423200   -1.8088850  
H    -7.0924210    1.7321610   -2.2645920  
