66


C     0.2521160   -2.2256200    0.0100350  
C     1.3297140   -1.3648020   -0.0077960  
C     2.5038720   -2.1286380    0.2872240  
C     2.0876750   -3.4733840    0.4663880  
N     0.7191190   -3.5185800    0.2574270  
C     2.9728330   -4.5130240    0.7643060  
C     4.3164300   -4.1863500    0.8757300  
O     5.2271580   -5.1535950    1.1846940  
C     4.7633220   -2.8556780    0.6811670  
O     6.1282660   -2.7047250    0.8343040  
C     3.8860030   -1.8068120    0.3843640  
H     1.2855700   -0.3174500   -0.2676480  
H     0.1279110   -4.2559020    0.6138710  
H     2.6538570   -5.5400070    0.9089690  
H     6.0921110   -4.7127190    1.2574330  
H     6.3367600   -1.7533500    0.8848280  
C    -1.1513480   -1.9721670   -0.2189990  
C    -1.9037060   -0.8350950    0.0006690  
C    -3.2533270   -1.1203020   -0.4007260  
C    -3.2726210   -2.4660060   -0.8540330  
N    -1.9936210   -2.9725980   -0.7031220  
C    -4.4317540   -3.0930790   -1.3189560  
C    -5.5980850   -2.3430720   -1.3174330  
O    -6.7614120   -2.8963700   -1.7631280  
C    -5.6051690   -0.9963830   -0.8657550  
O    -6.8402820   -0.3965660   -0.9650390  
C    -4.4540440   -0.3571310   -0.4044790  
H    -1.5430330    0.0684080    0.4716520  
H    -1.6553340   -3.7968560   -1.1783670  
H    -4.4519320   -4.1213740   -1.6647650  
H    -7.4501870   -2.2142950   -1.6704970  
H    -6.8210130    0.4610020   -0.5047220  
C     4.3708320   -0.4353830    0.2295850  
C     3.8248480    0.7622160    0.6269280  
C     4.7296500    1.8128020    0.2526790  
C     5.8367900    1.1998490   -0.3812940  
N     5.6416610   -0.1804730   -0.3346680  
C     6.9065410    1.9288340   -0.9065230  
C     6.8628120    3.3108400   -0.7797230  
O     7.8793170    4.0711590   -1.2799600  
C     5.7714880    3.9416900   -0.1278210  
O     5.8776260    5.3179900   -0.0688730  
C     4.7141340    3.2143090    0.3894610  
H     2.9025430    0.8721130    1.1801960  
H     6.0090970   -0.7863740   -1.0589530  
H     7.7547710    1.4630000   -1.3977700  
H     7.6623800    5.0007860   -1.0927910  
H     5.0896510    5.6854370    0.3580280  
H     3.8860300    3.7202780    0.8817680  
C    -6.9338570    1.9154180    2.6035840  
C    -6.3581670    0.9266530    1.8470460  
C    -5.3896080    1.5592250    0.9875260  
C    -5.4250210    2.9480320    1.2827090  
N    -6.3755670    3.1331300    2.2663020  
C    -4.5910180    3.8799990    0.6537250  
C    -3.7046460    3.3936920   -0.2927360  
O    -2.8642130    4.2500580   -0.9417480  
C    -3.6586070    2.0104230   -0.6153410  
O    -2.7495800    1.7159930   -1.6077450  
C    -4.4864980    1.0723590    0.0009490  
H    -6.5752590   -0.1300780    1.9140690  
H    -6.6161550    4.0195850    2.6812650  
H    -4.6107160    4.9410170    0.8805220  
H    -2.3334710    3.7096620   -1.5537670  
H    -2.6325530    0.7516200   -1.6663850  
H    -7.6967020    1.8531170    3.3666990  
