62


C    -2.8582880    1.3164400    0.8070170  
C    -3.7696960    0.3844600    0.3539180  
C    -2.9896260   -0.6946560   -0.2107840  
C    -1.6230270   -0.3546260   -0.0607130  
N    -1.5732070    0.8726300    0.5672380  
C    -0.5657210   -1.1549520   -0.5495550  
C    -0.9387840   -2.3344900   -1.1979820  
O     0.0220040   -3.1871490   -1.6476670  
C    -2.3033530   -2.6896250   -1.3477110  
O    -2.4922180   -3.8974640   -1.9948430  
C    -3.3242990   -1.8926220   -0.8697230  
H    -0.7278630    1.3744150    0.7893690  
H    -0.4292690   -3.8907900   -2.1460780  
H    -3.4376430   -4.0260390   -2.1614700  
H    -4.3621640   -2.1934700   -0.9768120  
H    -3.0304500    2.2467230    1.3304760  
C     1.9860310   -0.1663830    2.9502460  
C     0.9664120   -0.5410790    2.1371360  
C     1.4615380   -0.5002730    0.7720320  
C     2.8754280   -0.0762870    0.8633460  
N     3.1378260    0.0920860    2.2103350  
C     3.7310860    0.0937830   -0.1913740  
C     3.1863740   -0.2088050   -1.5253190  
O     3.8740490   -0.2340040   -2.5313900  
C     1.6614430   -0.5640930   -1.6575520  
O     1.1841440   -0.6210760   -2.7746010  
C     0.8520940   -0.7698840   -0.4252100  
H    -0.0267740   -0.8335530    2.4427840  
H     2.0080450   -0.0726680    4.0279780  
H     3.9874560    0.4983350    2.5709740  
C     7.1600600   -1.7354160    1.8872830  
C     8.1204530   -0.8234940    1.5904190  
C     7.4989470    0.2178060    0.7971930  
C     6.0748020   -0.1675970    0.6609740  
N     5.9211350   -1.3408330    1.3850690  
C     5.1352610    0.5163850   -0.0557890  
C     5.5847310    1.7709110   -0.7031280  
O     4.8166140    2.5262550   -1.2706280  
C     7.0995670    2.1801170   -0.5918480  
O     7.4767300    3.1872850   -1.1698830  
C     7.9900540    1.3415940    0.2087760  
H     9.1586570   -0.8646780    1.8863960  
H     9.0319360    1.6373320    0.2842940  
H     7.2403160   -2.6581760    2.4469850  
H     5.1252790   -1.9528450    1.2773710  
C    -6.3154150    3.7633810   -0.8385010  
C    -7.5288940    3.2323490   -0.4849430  
C    -7.2776850    1.9215570    0.0451080  
C    -5.8749120    1.7156880   -0.0060980  
N    -5.3138890    2.8603480   -0.5360670  
C    -5.2359850    0.5264380    0.4099670  
C    -6.0851750   -0.4763390    0.8822150  
O    -5.5662600   -1.6673440    1.3192080  
C    -7.4904580   -0.2895860    0.9385440  
O    -8.1750820   -1.3878870    1.4366660  
C    -8.0955720    0.8859110    0.5381480  
H    -8.4899900    3.7172460   -0.5890870  
H    -4.3409010    2.9440830   -0.7883980  
H    -6.3155020   -2.1899170    1.6547500  
H    -9.1071020   -1.1544550    1.5571490  
H    -9.1767160    0.9982300    0.5920970  
H    -6.0745390    4.7220100   -1.2762650  
