62


C    -1.8571170    2.7260250   -0.5387310  
C    -0.7787180    1.9800190   -0.0840130  
C    -1.2920840    0.6482820    0.1835780  
C    -2.6745240    0.6723790   -0.1265720  
N    -2.9805630    1.9603870   -0.5403630  
C    -3.5488480   -0.4287550    0.0377550  
C    -2.9279520   -1.5957370    0.4982500  
O    -3.6562130   -2.7416020    0.6840800  
C    -1.5500100   -1.6371650    0.8287650  
O    -1.1383280   -2.8638800    1.3049630  
C    -0.7283190   -0.5343430    0.6978760  
H    -3.8114460    2.1609200   -1.0840920  
H    -3.0216560   -3.4471330    0.9076760  
H    -0.1712310   -2.8982360    1.3561060  
H     0.3049330   -0.5921880    1.0303470  
H    -1.8760770    3.7447010   -0.8993930  
C     0.5628830    2.4765060    0.0430180  
C     1.0482030    3.7515080    0.2109260  
C     2.4779260    3.6849750    0.2780990  
C     2.8362090    2.2556180    0.1107290  
N     1.6558990    1.5887630   -0.0225310  
C     4.1210730    1.7465360    0.1124070  
C     5.1862910    2.7050380    0.4555180  
O     6.3431830    2.3728860    0.6909620  
C     4.8389830    4.2330670    0.5445010  
O     5.7610800    5.0229140    0.6847460  
C     3.4432690    4.6319180    0.4680560  
H     0.4503090    4.6415150    0.3420450  
H     3.2139370    5.6881670    0.5675460  
H     1.5771670    0.5939030   -0.1589430  
C     4.4150710    0.3449280   -0.1203680  
C     3.6693950   -0.6345400   -0.7549360  
C     4.4196020   -1.8579110   -0.7190600  
C     5.6858020   -1.5394260   -0.0106040  
N     5.6110780   -0.2072010    0.3303940  
C     6.6763350   -2.4377810    0.2227360  
C     6.4945620   -3.8099640   -0.2429930  
O     7.3299690   -4.6859520   -0.0741590  
C     5.1577860   -4.1709810   -0.9908070  
O     4.9878570   -5.3204530   -1.3745250  
C     4.1706770   -3.1146370   -1.1885320  
H     2.7562960   -0.4912400   -1.3145690  
H     7.5974780   -2.1872340    0.7395160  
H     3.2565020   -3.3727450   -1.7155220  
H     6.3504290    0.3842630    0.6930830  
C    -7.0087780   -1.7211180    2.5187550  
C    -8.0081860   -1.2383890    1.7188530  
C    -7.3760220   -0.6565360    0.5690880  
C    -5.9721550   -0.8144630    0.7375950  
N    -5.7783050   -1.4359330    1.9543740  
C    -5.0163400   -0.3369710   -0.1945470  
C    -5.5591660    0.2841590   -1.3258780  
O    -4.7347030    0.7977800   -2.3047080  
C    -6.9533630    0.4432900   -1.5072080  
O    -7.2871600    1.0983170   -2.6826990  
C    -7.8670470   -0.0074040   -0.5761530  
H    -9.0691760   -1.2782510    1.9232120  
H    -4.9289920   -1.9379770    2.1707120  
H    -5.3175500    1.0588270   -3.0417930  
H    -8.2273270    0.9627870   -2.8721030  
H    -8.9340200    0.1410020   -0.7273120  
H    -7.0644690   -2.2420370    3.4644870  
