62


C    -0.6752740    3.5215280   -1.7204050  
C    -1.0038300    2.3859510   -0.9936180  
C    -2.4039620    2.5153200   -0.6310950  
C    -2.8559670    3.7364970   -1.1807130  
N    -1.7778680    4.3201710   -1.8334050  
C    -4.1656020    4.2041410   -1.0158730  
C    -5.0319290    3.4181920   -0.2720310  
O    -6.3185790    3.8127470   -0.0800400  
C    -4.5925000    2.1977670    0.3202970  
O    -5.5590780    1.5635770    1.0453000  
C    -3.2918530    1.7506480    0.1535480  
H    -1.8115420    5.1878300   -2.3470360  
H    -4.5146270    5.1420940   -1.4353130  
H    -6.7394140    3.1295680    0.4739050  
H    -5.2325550    0.7184890    1.4246560  
H    -2.9744680    0.8505510    0.6649950  
H     0.2583230    3.7832140   -2.1973760  
C    -0.1073340    1.2977170   -0.7042860  
C     1.2504950    1.2602870   -0.5074710  
C     1.6430670   -0.1011910   -0.2607900  
C     0.3980910   -0.9025020   -0.3457210  
N    -0.6153750   -0.0125140   -0.5797690  
C     0.3507160   -2.2712530   -0.2343460  
C     1.6116100   -2.9761910   -0.0132970  
O     1.6920290   -4.1969090    0.0066100  
C     2.9141290   -2.1296760    0.2082610  
O     3.9073040   -2.7279810    0.5805740  
C     2.8707680   -0.6686910   -0.0110820  
H     1.9081200    2.1160690   -0.4974760  
H    -1.5622850   -0.2649630   -0.8189810  
C    -0.9135610   -4.1759100   -1.2408340  
C    -2.1752080   -4.6592830   -1.2902270  
C    -2.9945880   -3.8180140   -0.4444220  
C    -2.0748730   -2.8061540    0.1400570  
N    -0.8300960   -3.0401720   -0.4000210  
C    -2.4646640   -1.8544210    1.0439380  
C    -3.8713500   -1.7178670    1.3262160  
O    -4.3338930   -0.7800400    1.9831240  
C    -4.8634330   -2.7774410    0.7320660  
O    -6.0475050   -2.6970800    1.0147730  
C    -4.3191140   -3.8162600   -0.1486790  
H    -2.5124570   -5.5121280   -1.8610460  
H    -1.7726410   -1.1617350    1.5069280  
H    -5.0115870   -4.5517790   -0.5462290  
H    -0.0153960   -4.5262550   -1.7245170  
C     3.9831110    2.6953410    2.6700100  
C     5.2713770    2.8560830    2.2327310  
C     5.4853030    1.8952230    1.1873090  
C     4.2731060    1.1733690    1.0304050  
N     3.3778510    1.6816710    1.9489070  
C     4.1156760    0.1132100    0.1086670  
C     5.2325910   -0.1863330   -0.6774550  
O     5.1439560   -1.1526630   -1.6324050  
C     6.4470160    0.5312650   -0.5359650  
O     7.4423190    0.1127980   -1.4016710  
C     6.5879010    1.5569480    0.3790260  
H     5.9882630    3.5706240    2.6133090  
H     2.4293650    1.3627600    2.0678930  
H     6.0387720   -1.2838670   -1.9917100  
H     8.2830790    0.5193040   -1.1452220  
H     7.5320010    2.0909180    0.4675100  
H     3.4355540    3.2198330    3.4402980  
