62


C    -6.7037070    1.4091280   -3.0103880  
C    -7.8957490    1.0348730   -2.4468320  
C    -7.5869860    0.3906780   -1.2028590  
C    -6.1724370    0.4136760   -1.0609890  
N    -5.6648320    1.0310080   -2.1840980  
C    -5.4878510   -0.1595570    0.0372320  
C    -6.3074860   -0.7808000    0.9790760  
O    -5.7393470   -1.4079640    2.0750680  
C    -7.7165140   -0.8110260    0.8617710  
O    -8.3432910   -1.4646500    1.9081890  
C    -8.3670220   -0.2298700   -0.2085330  
H    -8.8781240    1.1881480   -2.8715020  
H    -4.6869040    1.2241420   -2.3379290  
H    -6.4735990   -1.7713610    2.6038060  
H    -9.2990810   -1.4869360    1.7536310  
H    -9.4515980   -0.2661040   -0.2849120  
H    -6.5022570    1.9152440   -3.9440070  
C    -2.5067100    3.1799460   -0.3691960  
C    -3.6570540    2.4471930   -0.2447450  
C    -3.2719900    1.0751260   -0.0331050  
C    -1.8540020    1.0481410   -0.0183540  
N    -1.4150960    2.3427720   -0.2189970  
C    -1.0960740   -0.1306440    0.1714910  
C    -1.8428140   -1.2949430    0.3797680  
O    -1.2102010   -2.4613370    0.6474110  
C    -3.2627980   -1.2898720    0.3743100  
O    -3.8142780   -2.5338760    0.5825250  
C    -4.0072470   -0.1322990    0.1424480  
H    -4.6632010    2.8387680   -0.2754920  
H    -0.4540400    2.6058810   -0.3733890  
H    -1.9176500   -3.1279050    0.7509100  
H    -4.5534560   -2.4309150    1.2218440  
H    -2.3669650    4.2389290   -0.5338170  
C     1.7802580    2.0697730    2.6126220  
C     2.9511160    1.6080260    2.0795790  
C     2.6182850    0.6827370    1.0306260  
C     1.1453740    0.6345630    0.9927420  
N     0.6974280    1.5353920    1.9504300  
C     0.3738820   -0.1567570    0.1859670  
C     1.1249720   -1.0287700   -0.7419520  
O     0.5982230   -1.6634170   -1.6348660  
C     2.6872570   -1.1077380   -0.6146720  
O     3.2373090   -2.0232830   -1.2175930  
C     3.4032060   -0.1051850    0.1947000  
H     3.9388920    1.8568560    2.4309950  
H     1.6301640    2.7555520    3.4361060  
H    -0.2674540    1.6084600    2.2380650  
C     4.8480620   -0.0096390    0.1252850  
C     5.6903790    1.0226610    0.4980680  
C     7.0333520    0.6432220    0.1712160  
C     6.9417420   -0.7082470   -0.4375490  
N     5.6084420   -1.0443370   -0.4242330  
C     8.0089110   -1.4133450   -0.8943510  
C     9.3358680   -0.8167490   -0.7840690  
O    10.3530560   -1.3762320   -1.1676600  
C     9.4566670    0.6141660   -0.1401110  
O    10.5635400    1.1259320   -0.0397860  
C     8.2354850    1.2741620    0.3129940  
H     5.3926290    1.9805720    0.8937100  
H     7.9236530   -2.4000980   -1.3386810  
H     8.3301680    2.2622010    0.7538100  
H     5.1668940   -1.8424360   -0.8642960  
