60


C     1.8023650   -2.5837250   -0.1997350  
C     2.8069010   -3.5365330   -0.1184560  
C     3.9816130   -2.8887950    0.3517960  
C     3.6514650   -1.5178600    0.5444190  
N     2.3127350   -1.3602300    0.2464420  
C     4.5870830   -0.5684340    0.9702790  
C     5.8733960   -1.0161320    1.2261540  
O     6.8225690   -0.1413150    1.6446410  
C     6.2178680   -2.3923980    1.0611010  
O     7.5326640   -2.6654600    1.3669040  
C     5.2966490   -3.3238830    0.6340980  
H     2.6820040   -4.5906200   -0.3254920  
H     1.9087060   -0.4593460    0.0228370  
H     4.3448300    0.4799890    1.1066350  
H     7.6493620   -0.6394040    1.7705170  
H     7.7146670   -3.6076380    1.2331420  
H     5.5790530   -4.3667620    0.5093230  
C     0.4338450   -2.7510220   -0.5930520  
C    -0.1541410   -3.7277180   -1.3593100  
C    -1.5601320   -3.4569820   -1.4332270  
C    -1.7876580   -2.2263280   -0.6402700  
N    -0.5448540   -1.8114050   -0.2078060  
C    -3.0211860   -1.6930340   -0.3654010  
C    -4.1867900   -2.3297150   -1.0247310  
O    -5.3046050   -1.8491720   -0.9693700  
C    -3.9567870   -3.6218010   -1.8806340  
O    -4.9295490   -4.1740780   -2.3741440  
C    -2.5943020   -4.1091200   -2.0421160  
H     0.3640920   -4.5344010   -1.8569760  
H    -2.4484530   -5.0152190   -2.6220490  
H    -0.4256170   -1.1759120    0.5694490  
C    -1.2684560    2.4314590    0.0059210  
C    -1.5923590    1.1871220   -0.4778450  
C    -2.5741340    0.6523720    0.4364030  
C    -2.7687950    1.7402010    1.4344600  
N    -2.0046920    2.7673840    1.1900140  
C    -3.7079020    1.6148960    2.5182560  
C    -4.4110000    0.4622920    2.6073000  
O    -5.3200230    0.2108160    3.5598010  
C    -4.1860560   -0.6912390    1.6612970  
O    -4.7510020   -1.7454660    1.9267120  
C    -3.2339000   -0.5407650    0.5124690  
H    -1.2550380    0.7242400   -1.3923790  
H    -3.8399340    2.4290140    3.2218950  
H    -5.6173680   -0.7129130    3.4049370  
C     2.6238880    1.9700770   -2.1508960  
C     1.4133640    1.6796260   -1.5953880  
C     0.8696470    2.9584890   -1.1719700  
C     1.9366200    3.9362630   -1.5576300  
N     2.9606650    3.3449060   -2.1165840  
C     1.8167000    5.3410340   -1.2910560  
C     0.6839830    5.7688890   -0.6863840  
O     0.4234480    7.0513120   -0.4046810  
C    -0.4321950    4.8237620   -0.3045360  
O    -1.4585610    5.3372070    0.1196210  
C    -0.2633030    3.3462130   -0.5077200  
H     0.9264670    0.7169380   -1.5594820  
H     2.6098270    6.0199180   -1.5836150  
H    -0.4814450    7.0573600   -0.0190190  
H     3.3245990    1.2761310   -2.6016420  
