60


C     2.1003520   -1.5627470   -0.0236270  
C     2.5139910   -2.8925150   -0.1264730  
C     3.9281100   -2.9002540   -0.0887950  
C     4.3535720   -1.5373850    0.0395080  
N     3.2303580   -0.7623270    0.0805070  
C     5.7059400   -1.1755960    0.1036260  
C     6.6409360   -2.1938210    0.0382180  
O     7.9659700   -1.9028530    0.0942720  
C     6.2352550   -3.5605710   -0.0886490  
O     7.2959230   -4.4393490   -0.1379870  
C     4.9088570   -3.9200170   -0.1510660  
H     1.8591140   -3.7479180   -0.2208250  
H     3.1582050    0.2445450    0.1361740  
H     6.0359760   -0.1468470    0.1990650  
H     8.4544970   -2.7422250    0.0281570  
H     6.9679310   -5.3444590   -0.2469520  
H     4.6211240   -4.9645120   -0.2484980  
C     0.8137250   -0.9529850   -0.0157080  
C    -0.4482980   -1.5055900   -0.1238270  
C    -1.3585910   -0.4030250   -0.0830580  
C    -0.4731400    0.8025890    0.0458460  
N     0.7855850    0.4704170    0.1065140  
C    -0.9997650    2.1487810    0.1022520  
C    -2.3556920    2.2559570    0.0664050  
O    -3.0087730    3.4171880    0.1125860  
C    -3.2837840    1.0584520   -0.0098150  
O    -4.4848730    1.3123630    0.0829530  
C    -2.7291520   -0.2990490   -0.1238760  
H    -0.6942790   -2.5454160   -0.2846580  
H    -3.9637100    3.1662470    0.1063890  
C    -3.0765020   -3.9804220    2.2802490  
C    -4.1656710   -4.5352620    1.6885970  
C    -4.5765920   -3.6442700    0.6236640  
C    -3.6211030   -2.5105900    0.6442580  
N    -2.7513650   -2.7659040    1.6864750  
C    -3.6634560   -1.4289950   -0.1946700  
C    -4.7114550   -1.4507110   -1.2419320  
O    -4.7579190   -0.6316320   -2.1420850  
C    -5.7725450   -2.6101970   -1.2300830  
O    -6.6909940   -2.5699770   -2.0341310  
C    -5.6082420   -3.6917270   -0.2625880  
H    -4.6465530   -5.4621180    1.9652140  
H    -6.3344510   -4.4987120   -0.2757590  
H    -2.4855750   -4.3446860    3.1104050  
H    -1.9061800   -2.2392910    1.8545870  
C     2.0099030    3.7273080   -2.6882670  
C     2.4918700    4.8019160   -2.0234620  
C     1.7407000    4.8395840   -0.7718800  
C     0.8294450    3.6508280   -0.8578600  
N     0.9851830    3.0152700   -1.9804690  
C    -0.1100080    3.3252880    0.2035350  
C    -0.1424760    4.1764320    1.2648570  
O    -0.9520010    4.0176500    2.3231990  
C     0.7556490    5.3788450    1.3691830  
O     0.6572360    6.0754370    2.3785010  
C     1.7102210    5.6728290    0.2850940  
H     3.2530400    5.5020100   -2.3386520  
H    -0.7517330    4.7751700    2.9167700  
H     2.3330830    6.5552470    0.3965450  
H     2.3022910    3.3616890   -3.6655500  
