62


C     3.1054390   -2.5755830   -0.7455970  
C     3.7497850   -1.3916870   -0.3893500  
C     5.1594140   -1.7238840   -0.2626130  
C     5.2889080   -3.1017860   -0.5503390  
N     4.0169570   -3.5832370   -0.8389570  
C     6.5119650   -3.7792950   -0.5261580  
C     7.6382710   -3.0377180   -0.2013330  
O     8.8599350   -3.6395240   -0.1612290  
C     7.5283840   -1.6521680    0.0901670  
O     8.7331890   -1.0521280    0.3942470  
C     6.3141260   -0.9905360    0.0644560  
H     3.8007480   -4.5369980   -1.0881170  
H     6.6083920   -4.8370800   -0.7478400  
H     9.5098550   -2.9562060    0.0786780  
H     8.5877780   -0.1101330    0.5686800  
H     6.2333450    0.0688080    0.2861920  
H     2.0578540   -2.7564450   -0.9396710  
C     3.1154270   -0.1228210   -0.1987500  
C     1.7791390    0.2177060   -0.3104740  
C     1.6997580    1.6179110   -0.0383990  
C     3.1215660    2.0163560    0.2400760  
N     3.9355560    1.0032310    0.1503340  
C     3.4839610    3.3714470    0.5517550  
C     2.4841370    4.2810590    0.5922260  
O     2.6548030    5.5770790    0.8703980  
C     1.0275560    3.9100270    0.3528850  
O     0.2167410    4.8225940    0.5164340  
C     0.6712420    2.5285740   -0.0033980  
H     0.9603500   -0.4249490   -0.6013140  
H     4.5184350    3.6351800    0.7409690  
H     1.7423830    5.9535340    0.8589260  
C    -1.8912580   -0.4339580    2.0169270  
C    -3.0724950   -0.1853470    1.3422830  
C    -2.7709850    0.8537890    0.3767750  
C    -1.3999460    1.1768960    0.5243220  
N    -0.8978670    0.3855400    1.5404910  
C    -0.7484500    2.1849460   -0.2195380  
C    -1.5366240    2.8580420   -1.1568650  
O    -0.9729710    3.7932700   -1.9671510  
C    -2.9157690    2.5604310   -1.3036630  
O    -3.5467350    3.3301440   -2.2611270  
C    -3.5405130    1.5851640   -0.5493650  
H     0.0809460    0.3195630    1.7785400  
H    -1.6887290    4.1895510   -2.4939640  
H    -4.4908940    3.1150570   -2.2828100  
H    -4.6046300    1.3979440   -0.6691560  
H    -1.6875860   -1.1653770    2.7861130  
C    -4.8697510   -1.2164430    2.8088600  
C    -4.3376490   -0.8475230    1.6094480  
C    -5.3096990   -1.3688030    0.6170830  
C    -6.3710530   -2.0110850    1.4409360  
N    -6.1019400   -1.9234120    2.7140480  
C    -7.5130390   -2.6464970    0.8363810  
C    -7.5836600   -2.6762890   -0.5166770  
O    -8.5914210   -3.2394120   -1.2103600  
C    -6.5130450   -2.0710510   -1.3718040  
O    -6.6434690   -2.1336850   -2.5951400  
C    -5.3523720   -1.4169330   -0.7274880  
H    -8.2774120   -3.0939900    1.4623110  
H    -8.3595470   -3.1055760   -2.1550770  
H    -4.5933910   -0.9992810   -1.3816590  
H    -4.4640260   -1.0127830    3.7926010  
