64


C    -4.6917830   -2.4049000    3.4681160  
C    -4.1015370   -1.4515210    2.6796670  
C    -4.0822290   -1.9715170    1.3413750  
C    -4.6855950   -3.2570450    1.3801290  
N    -5.0423520   -3.4929440    2.6912120  
C    -4.8635470   -4.0526740    0.2423350  
C    -4.4170530   -3.5438020   -0.9677060  
O    -4.5642230   -4.2697080   -2.1086250  
C    -3.7848840   -2.2734530   -1.0413600  
O    -3.3190450   -1.9389660   -2.2956180  
C    -3.6139860   -1.4911280    0.0986460  
H    -3.7344680   -0.4916380    3.0138990  
H    -5.5097160   -4.3211590    3.0254510  
H    -5.3379680   -5.0279290    0.2728820  
H    -4.2018390   -3.7280030   -2.8334550  
H    -3.4212980   -0.9830920   -2.4555430  
H    -4.8971170   -2.3994100    4.5291330  
C    -1.7772270    0.0958860    0.7032050  
C    -1.3132820    1.3368180    0.3798650  
C    -2.2491340    1.8656580   -0.6131160  
C    -3.2926720    0.8269920   -0.8040550  
N    -2.9508730   -0.2332490    0.0135180  
C    -4.3600750    0.9554120   -1.6437170  
C    -4.4941360    2.1862760   -2.4196280  
O    -5.4327340    2.4029040   -3.1698980  
C    -3.3726790    3.2753730   -2.2702100  
O    -3.4356430    4.2901060   -2.9438890  
C    -2.2857440    3.0319950   -1.3111250  
H    -5.1574950    0.2202980   -1.7046380  
H    -1.5290570    3.8028420   -1.2046190  
H    -1.3590370   -0.6252050    1.3919350  
C     2.9224430   -0.1019640    0.6734950  
C     1.5758540   -0.0018800    0.4207820  
C     1.1574260    1.2883270    0.8926490  
C     2.3088580    1.9377700    1.4091920  
N     3.3748020    1.0688840    1.2607710  
C     2.2831460    3.2349310    1.9281810  
C     1.0623070    3.8920160    1.9325420  
O     0.9746180    5.1525430    2.4462310  
C    -0.1028100    3.2659380    1.4221100  
O    -1.2332850    4.0529610    1.5258530  
C    -0.0856470    1.9746450    0.8924240  
H     0.9790930   -0.7436100   -0.0895190  
H     4.2958600    1.1885920    1.6542980  
H     3.1636520    3.7328600    2.3205190  
H     0.0466350    5.4331220    2.3647150  
H    -2.0101030    3.5597380    1.2206860  
C     3.5016900   -2.5042210    0.7397780  
C     4.5605470   -3.2962950    0.3989750  
C     5.5852630   -2.4368470   -0.1269680  
C     5.0813890   -1.1124170   -0.0873040  
N     3.7965250   -1.1695730    0.4581860  
C     5.8100270   -0.0141240   -0.5628370  
C     7.0807020   -0.2571480   -1.0633450  
O     7.8321460    0.7798660   -1.5354770  
C     7.6083680   -1.5742360   -1.0933420  
O     8.8859030   -1.6526080   -1.6145590  
C     6.8782350   -2.6572980   -0.6392820  
H     4.6120710   -4.3699350    0.5180190  
H     5.4172660    0.9962600   -0.5754090  
H     8.6700570    0.4051520   -1.8574030  
H     9.1645780   -2.5795040   -1.6500320  
H     7.2970270   -3.6608790   -0.6826770  
H     2.5498490   -2.7504980    1.1869630  
