62


C    -1.2969310    2.6673020    1.7286990  
C    -0.3071060    2.7425450    0.7665400  
C    -0.3485860    4.0930040    0.2481110  
C    -1.3820370    4.7740480    0.9386020  
N    -1.9371730    3.8808110    1.8345370  
C    -1.7211290    6.1081380    0.6789900  
C    -1.0002020    6.7691660   -0.3017120  
O    -1.2823940    8.0711320   -0.5951690  
C     0.0360180    6.1014640   -1.0086090  
O     0.6607640    6.8920040   -1.9554200  
C     0.3646930    4.7849860   -0.7508400  
H    -2.6790620    4.0907630    2.4838140  
H    -2.5121240    6.6290070    1.2087450  
H    -0.6646690    8.3481870   -1.2937570  
H     1.3869350    6.3952330   -2.3603210  
H     1.1722830    4.3021190   -1.2930970  
H    -1.5613460    1.8468210    2.3813730  
C    -1.3499240   -1.4288780   -0.1437740  
C    -0.0611180   -1.8986250   -0.3980620  
C     0.8201690   -0.7994360   -0.2527380  
C     0.0313720    0.3374720    0.1068850  
N    -1.2678090   -0.0799810    0.1611730  
C     0.5584150    1.6246230    0.3590710  
C     1.9426980    1.7303980    0.2146170  
O     2.5656870    2.9148640    0.4470080  
C     2.7573560    0.6254130   -0.1811450  
O     4.0874960    0.9442780   -0.3363690  
C     2.2193460   -0.6319770   -0.4101420  
H     0.1987930   -2.9186600   -0.6433730  
H    -2.0840030    0.4885660    0.3434590  
H     3.5220030    2.7521880    0.3414580  
H     4.6537200    0.1890150   -0.0899940  
C     2.8840220   -2.4106090   -2.0416190  
C     3.8715350   -3.3190290   -2.2234960  
C     4.7530450   -3.2317110   -1.0771110  
C     4.1757500   -2.1853530   -0.1951530  
N     3.0387530   -1.7150500   -0.8288400  
C     4.7131080   -1.8080940    1.0009890  
C     5.9349870   -2.4705670    1.4549440  
O     6.4724990   -2.2169280    2.5212570  
C     6.5735240   -3.5624570    0.5224550  
O     7.6106710   -4.1047860    0.8665270  
C     5.8882530   -3.8921200   -0.7335380  
H     3.9876730   -3.9810900   -3.0692700  
H     4.2311180   -1.1057550    1.6751050  
H     6.3269580   -4.6665880   -1.3556000  
H     2.0460150   -2.1588300   -2.6771080  
C    -2.6245980   -2.0708860   -0.1452480  
C    -2.9741820   -3.3751460   -0.4060670  
C    -4.3973210   -3.4315090   -0.2559660  
C    -4.7910840   -2.0255640    0.1123620  
N    -3.7557740   -1.2388590    0.1758440  
C    -6.1624050   -1.6646110    0.3516330  
C    -7.0920720   -2.6420830    0.2336640  
O    -8.4027440   -2.4645270    0.4241410  
C    -6.7277870   -4.0710470   -0.1359920  
O    -7.6665260   -4.8692390   -0.2121560  
C    -5.3348800   -4.4121520   -0.3737690  
H    -2.3198540   -4.1946330   -0.6681310  
H    -6.4239220   -0.6456140    0.6140490  
H    -8.8006280   -3.3533400    0.2654080  
H    -5.1070630   -5.4404650   -0.6357740  
