62


C     4.6911040   -2.4392550   -0.0164590  
C     4.4493050   -1.0756730   -0.0001530  
C     5.7481760   -0.4354560   -0.0199470  
C     6.7210050   -1.4651860   -0.0449360  
N     6.0457410   -2.6718370   -0.0445290  
C     8.0987490   -1.2136910   -0.0448420  
C     8.5033840    0.1108020   -0.0184640  
O     9.8314530    0.4179660   -0.0226820  
C     7.5426460    1.1577440    0.0131960  
O     8.1010380    2.4214430    0.0381840  
C     6.1851520    0.9035360    0.0175810  
H     6.4766880   -3.5797940   -0.1247740  
H     8.8424660   -2.0036320   -0.0648850  
H     9.9027510    1.3882440   -0.0152640  
H     7.3972330    3.0857660   -0.0006260  
H     5.4704540    1.7207620    0.0209960  
H     3.9884850   -3.2590490   -0.0751540  
C     1.0438990   -2.0750470    2.5536380  
C     0.1312660   -1.1862560    2.0381230  
C     0.7911050   -0.4621480    0.9935740  
C     2.1162980   -0.9592550    0.9235510  
N     2.2335630   -1.9501570    1.8756740  
C     3.1141750   -0.4686000    0.0537340  
C     2.7193000    0.6024610   -0.7584750  
O     3.6004620    1.1321610   -1.6564630  
C     1.4099580    1.1278190   -0.7118250  
O     1.2047620    2.1488250   -1.6193170  
C     0.4110930    0.6169400    0.1392760  
H    -0.8815270   -1.0561000    2.3876840  
H     3.1030290   -2.4096940    2.1013070  
H     3.0996350    1.7680000   -2.1986660  
H     0.2508950    2.2453720   -1.7936800  
H     0.9361390   -2.7947290    3.3526780  
C    -0.9364690    1.1371570    0.1224750  
C    -2.1335920    0.5150520    0.3978110  
C    -3.1945650    1.4599180    0.2317130  
C    -2.5557910    2.7347810   -0.1467770  
N    -1.1896980    2.4730200   -0.2951560  
C    -3.1968260    3.9179510   -0.2932730  
C    -4.6422740    3.9448210   -0.0965710  
O    -5.3118250    4.9610760   -0.1826900  
C    -5.3722920    2.5955040    0.2393380  
O    -6.5829080    2.6121380    0.4120580  
C    -4.5633060    1.3739580    0.3582290  
H    -2.2477150   -0.5333440    0.6217790  
H    -2.6955960    4.8428730   -0.5605660  
H    -0.5237670    3.1975480   -0.0484890  
C    -6.2390600    0.0087140    1.5941490  
C    -6.7453510   -1.2479640    1.5946830  
C    -6.0767610   -1.9878010    0.5496390  
C    -5.1169620   -1.0416410   -0.0750470  
N    -5.2330400    0.1614430    0.6253470  
C    -4.3415620   -1.3505260   -1.1459170  
C    -4.4177740   -2.7018890   -1.6988050  
O    -3.7540210   -3.0603850   -2.6600490  
C    -5.3910100   -3.7305200   -1.0190010  
O    -5.4414890   -4.8724350   -1.4502860  
C    -6.2044030   -3.2658710    0.1046700  
H    -7.5158450   -1.6251200    2.2514280  
H    -3.6684590   -0.6473080   -1.6212190  
H    -6.9052130   -3.9690300    0.5446030  
H    -6.4971030    0.8533880    2.2141480  
