62


C    -4.7257750    0.3250400   -0.0449550  
C    -3.9744420   -0.7575670    0.3927640  
C    -4.6943150   -1.9482120    0.0682440  
C    -5.8920650   -1.5404000   -0.5780190  
N    -5.8785250   -0.1660210   -0.6412170  
C    -6.8521770   -2.4533630   -1.0336750  
C    -6.5989150   -3.8005140   -0.8319470  
O    -7.5000160   -4.7333080   -1.2547610  
C    -5.4047280   -4.2269360   -0.1865820  
O    -5.3010990   -5.5995630   -0.0633160  
C    -4.4585240   -3.3259060    0.2605860  
H    -3.0626270   -0.7035930    0.9707340  
H    -6.6396760    0.4273560   -0.9353230  
H    -7.7684190   -2.1474140   -1.5278730  
H    -7.1423230   -5.6068210   -1.0194610  
H    -4.4772280   -5.8221230    0.3947820  
H    -3.5526360   -3.6761710    0.7516850  
C    -0.8648570    2.4486060    0.1317810  
C    -1.3833540    3.7332950    0.2340660  
C    -2.8015460    3.6340180    0.2249070  
C    -3.1218810    2.2520650    0.1259300  
N    -1.9331080    1.5514290    0.1094570  
C    -4.4425120    1.7561420    0.0369670  
C    -5.4395830    2.7410040    0.0236790  
O    -6.7539410    2.3817880   -0.0991850  
C    -5.1371140    4.1247890    0.1454290  
O    -6.2600660    4.9259500    0.1378780  
C    -3.8434570    4.5858910    0.2601100  
H    -0.7967810    4.6350920    0.3440320  
H    -1.8747410    0.6076210   -0.2481400  
H    -7.2824100    3.1991540   -0.0583700  
H    -6.0040740    5.8538220    0.2468120  
H    -3.6336870    5.6490860    0.3467210  
C     1.6050890    2.7305600   -0.3240780  
C     0.5029670    2.0185570    0.0650490  
C     1.0488950    0.6880960    0.4383020  
C     2.5030550    0.7980310    0.1785290  
N     2.8020690    1.9974950   -0.2506330  
C     3.4197430   -0.3148320    0.4203560  
C     2.8418290   -1.4509420    0.9402260  
O     3.5212190   -2.5862010    1.2271940  
C     1.3971000   -1.5633360    1.2484140  
O     0.9870520   -2.6339350    1.7138580  
C     0.5110380   -0.4181020    0.9852230  
H     2.8370560   -3.2015850    1.5821630  
H    -0.5327340   -0.5315530    1.2590990  
H     1.6373690    3.7497100   -0.6872490  
C     4.8400100   -0.2042960    0.1300670  
C     5.5429810    0.8577200   -0.3923100  
C     6.9226840    0.4687800   -0.4903370  
C     7.0007320   -0.9242330    0.0169160  
N     5.7201450   -1.2699850    0.3739490  
C     8.1469540   -1.6510740    0.0848020  
C     9.3887580   -1.0345690   -0.3657940  
O    10.4681620   -1.6083050   -0.3432510  
C     9.3301190    0.4424550   -0.9066690  
O    10.3617710    0.9753450   -1.2882060  
C     8.0341300    1.1229260   -0.9313100  
H     5.1127140    1.8067610   -0.6667200  
H     8.1854840   -2.6696470    0.4585210  
H     8.0045050    2.1414930   -1.3064170  
H     5.4264340   -2.1579290    0.7524050  
