60


C    -2.4319110   -5.2260890    1.1080440  
C    -1.9830930   -3.9363830    0.9714960  
C    -0.6682220   -4.0048790    0.4019770  
C    -0.3694050   -5.3822800    0.2251270  
N    -1.4647430   -6.0996350    0.6566860  
C     0.8476700   -5.8404030   -0.2858310  
C     1.7954420   -4.8877220   -0.6296650  
O     2.9912450   -5.2833060   -1.1472220  
C     1.5365140   -3.5043210   -0.4655080  
O     2.6045340   -2.7125140   -0.8490480  
C     0.3169340   -3.0351680    0.0531640  
H    -2.5287420   -3.0515790    1.2633230  
H    -1.5389790   -7.1049030    0.6556730  
H     1.0696890   -6.8930860   -0.4281270  
H     3.4868140   -4.4691360   -1.3488600  
H     2.3541920   -1.8299050   -1.1919200  
H    -3.3712260   -5.5961920    1.4936500  
C     0.0486250   -1.6128370    0.1776040  
C    -1.1301320   -0.9146650    0.0363530  
C    -0.8356110    0.4843000    0.1015900  
C     0.6316290    0.5866560    0.2871260  
N     1.0870720   -0.7024030    0.3917380  
C     1.3614960    1.7432460    0.2976310  
C     0.5951920    2.9887340    0.0756440  
O     1.1226510    4.0686530   -0.1238810  
C    -0.9690150    2.9204500    0.0577630  
O    -1.5895370    3.9674110    0.1444930  
C    -1.6271980    1.6048610   -0.0243260  
H    -2.0934840   -1.3479980   -0.1773690  
H     2.0527190   -0.9543460    0.5301030  
C     4.6336620   -0.3285470   -1.9274540  
C     5.7105690    0.3795550   -1.5257980  
C     5.2017750    1.3224720   -0.5396600  
C     3.7229380    1.0489720   -0.4827910  
N     3.4123860    0.0657960   -1.2880940  
C     2.8315970    1.8196220    0.3747460  
C     3.4443180    2.7237870    1.2017710  
O     2.7876110    3.4425730    2.1119200  
C     4.9264010    2.9921250    1.1814900  
O     5.3628020    3.8318540    1.9646100  
C     5.7840370    2.2482530    0.2445040  
H     6.7375280    0.2790100   -1.8474680  
H     3.4565180    4.0326560    2.5259670  
H     6.8457530    2.4743000    0.2474580  
H     4.5944620   -1.1342360   -2.6503350  
C    -5.0602400   -0.3001210    2.1640360  
C    -3.7990320    0.0607440    1.8195840  
C    -3.9511790    0.8791990    0.6215050  
C    -5.4275220    0.9084990    0.3952080  
N    -6.0687520    0.2159150    1.2964370  
C    -6.0179920    1.6546740   -0.6853270  
C    -5.1866690    2.3378450   -1.5044600  
O    -5.5941850    3.0671330   -2.5557510  
C    -3.6906820    2.2986410   -1.3339880  
O    -3.0166550    2.8340320   -2.2069430  
C    -3.0852830    1.5608390   -0.1766700  
H    -2.8742950   -0.1807210    2.3230180  
H    -7.0940700    1.6579810   -0.8188320  
H    -4.7706830    3.3999750   -2.9760520  
H    -5.3693520   -0.9065530    3.0076550  
