62


C    -2.8223130   -1.1752580   -1.8270730  
C    -4.0636730   -1.7420450   -1.7880340  
C    -4.0182040   -2.8078820   -0.8235080  
C    -2.6996310   -2.8468730   -0.3054090  
N    -1.9696150   -1.8372780   -0.9413720  
C    -2.3149790   -3.7422260    0.6981890  
C    -3.2720740   -4.6296860    1.1683940  
O    -2.9407030   -5.5277780    2.1422680  
C    -4.5913100   -4.6157640    0.6493210  
O    -5.4279100   -5.5588570    1.2161140  
C    -4.9722040   -3.7179660   -0.3322050  
H    -4.9117470   -1.4500850   -2.3931960  
H    -1.3127430   -3.7785920    1.1052880  
H    -3.7332670   -6.0616410    2.3231610  
H    -6.2933040   -5.5254240    0.7826390  
H    -5.9932060   -3.7148030   -0.7094210  
H    -2.4427610   -0.3569460   -2.4189090  
C    -0.3241920    2.0085670    0.0059310  
C     1.0356140    1.6982010    0.0856810  
C     1.1493870    0.3210870   -0.1876620  
C    -0.2704400   -0.1161530   -0.4285240  
N    -1.1137020    0.8688940   -0.3246170  
C    -0.6252170   -1.4879780   -0.7214730  
C     0.4033260   -2.3818100   -0.7417990  
O     0.2465730   -3.6838780   -0.9920830  
C     1.8334890   -1.9881800   -0.4594480  
O     2.6320380   -2.9420140   -0.4636000  
C     2.2054470   -0.5892840   -0.2467240  
H     1.8262700    2.3735410    0.3711450  
H     1.1519730   -4.0669620   -0.9071340  
C    -0.3806150    4.4694030    0.5087430  
C    -0.9925450    3.2427960    0.2116050  
C    -2.4231310    3.5069520    0.1675700  
C    -2.5984260    4.8803780    0.4403130  
N    -1.3297160    5.4258670    0.6402300  
C    -3.8489610    5.5009380    0.4873400  
C    -4.9586240    4.6995150    0.2513220  
O    -6.2043460    5.2428940    0.2844650  
C    -4.8017920    3.3148250   -0.0226270  
O    -5.9884750    2.6506600   -0.2341530  
C    -3.5569920    2.7116110   -0.0678120  
H    -1.1442160    6.3963970    0.8505250  
H    -3.9817810    6.5566310    0.6990250  
H    -6.8395860    4.5270490    0.1069940  
H    -5.8106090    1.7076400   -0.3745720  
H    -3.4451960    1.6528120   -0.2781420  
H     0.6677320    4.7040790    0.6249740  
C     3.6005000   -0.2249060   -0.1185320  
C     4.1960490    1.0229670   -0.1826790  
C     5.6095670    0.8549900   -0.0295950  
C     5.8355910   -0.6031270    0.1309580  
N     4.5933330   -1.1902530    0.0807340  
C     7.0579980   -1.1729240    0.2910340  
C     8.2324390   -0.3073360    0.3123140  
O     9.3708920   -0.7309250    0.4510650  
C     8.0162040    1.2425190    0.1487620  
O     8.9914760    1.9813460    0.1677590  
C     6.6526520    1.7364480   -0.0199690  
H     3.6975020    1.9576110   -0.3793780  
H     7.2059290   -2.2423580    0.4049150  
H     6.5151590    2.8074900   -0.1358430  
H     4.3877630   -2.1794260    0.0419860  
