62


C     3.3489550   -2.4229120   -0.9105380  
C     3.8674920   -1.2100640   -0.4856670  
C     5.2651140   -1.4457450   -0.1767560  
C     5.5181700   -2.8134460   -0.4427150  
N     4.3301570   -3.3743790   -0.8841270  
C     6.7676900   -3.4108660   -0.2459610  
C     7.7894480   -2.6087820    0.2376800  
O     9.0259540   -3.1377730    0.4458730  
C     7.5527690   -1.2384410    0.5305410  
O     8.6591790   -0.5792420    1.0215110  
C     6.3139350   -0.6542770    0.3347480  
H     4.2141950   -4.3320300   -1.1798160  
H     6.9584140   -4.4596010   -0.4484020  
H     9.5920960   -2.4298800    0.7995030  
H     8.4272850    0.3336390    1.2482220  
H     6.1556820    0.3878940    0.6011950  
H     2.3539360   -2.6556560   -1.2616760  
C     3.1235760    0.0219270   -0.4077560  
C     1.7764050    0.2386430   -0.2448240  
C     1.5325160    1.6534460   -0.3014870  
C     2.8559970    2.2849580   -0.5171790  
N     3.7892180    1.2572210   -0.5035610  
C     3.0579560    3.6110140   -0.7075990  
C     1.8990530    4.4961580   -0.6605800  
O     1.9769560    5.7017780   -0.8400580  
C     0.4936360    3.8678900   -0.3403530  
O    -0.4520100    4.6230940   -0.1876170  
C     0.3825890    2.3996000   -0.2100430  
H     1.0340300   -0.5260210   -0.0703140  
H     4.0341320    4.0485820   -0.8942060  
H     4.6825160    1.3385500   -0.9689650  
C    -1.1195260    0.0187010    3.2006870  
C    -2.4046730   -0.1661000    2.7583520  
C    -2.5046980    0.4916680    1.4871700  
C    -1.2357740    1.0594000    1.2043480  
N    -0.4138360    0.7538920    2.2692570  
C    -0.9454290    1.7971060    0.0375750  
C    -1.9963030    1.9496380   -0.8683260  
O    -1.7859430    2.6070600   -2.0395340  
C    -3.2787910    1.4029220   -0.6091110  
O    -4.2091470    1.6392880   -1.5926300  
C    -3.5422450    0.6805060    0.5487600  
H    -3.1829790   -0.7110200    3.2734980  
H     0.5503040    1.0376960    2.3466610  
H    -2.6436540    2.6890130   -2.4911020  
H    -5.0744040    1.3120670   -1.2981940  
H    -0.6415080   -0.3194060    4.1091410  
C    -5.6831630    0.5192020    1.8424980  
C    -6.7782620   -0.2773880    1.9197940  
C    -6.6806690   -1.2513620    0.8535060  
C    -5.4121470   -0.9544730    0.1421110  
N    -4.8538080    0.1608060    0.7699690  
C    -4.9392950   -1.6637180   -0.9137960  
C    -5.7266530   -2.7978940   -1.3933610  
O    -5.3750570   -3.5042670   -2.3259030  
C    -7.0871670   -3.1167270   -0.6702090  
O    -7.7640520   -4.0515840   -1.0695540  
C    -7.4834050   -2.2765740    0.4624740  
H    -7.5809870   -0.1954900    2.6383990  
H    -4.0017260   -1.4359490   -1.4095340  
H    -8.4173230   -2.5137870    0.9631580  
H    -5.3917490    1.3577200    2.4610510  
