62


C     7.2445780    0.9232670   -1.8937390  
C     8.0645880   -0.0927010   -1.4805780  
C     7.2440690   -1.0421650   -0.7826080  
C     5.9180630   -0.5342160   -0.8103610  
N     5.9438510    0.6556140   -1.5034960  
C     4.8418350   -1.2200670   -0.2155040  
C     5.1170130   -2.4373820    0.4060060  
O     4.1055910   -3.1419730    0.9927350  
C     6.4356330   -2.9565350    0.4200830  
O     6.5347460   -4.1757380    1.0625130  
C     7.4929560   -2.2798060   -0.1583700  
H     9.1292290   -0.1620620   -1.6549480  
H     5.1624280    1.2850200   -1.6049500  
H     4.5055250   -3.9430600    1.3753600  
H     7.4648720   -4.4397620    1.1201700  
H     8.4951040   -2.7023080   -0.1359540  
H     7.4731990    1.8260020   -2.4420230  
C     2.4199690   -1.4101900   -0.8025220  
C     1.2774790   -0.6857300   -0.7084600  
C     1.6105650    0.5628620   -0.0539450  
C     3.0658420    0.5008240    0.2270840  
N     3.5117520   -0.7227470   -0.2603730  
C     3.7773680    1.4869770    0.8371210  
C     3.0720950    2.6984450    1.2315550  
O     3.6268520    3.6565990    1.7490210  
C     1.5206460    2.7731180    0.9887230  
O     0.9128640    3.7339350    1.4235900  
C     0.8484250    1.6479170    0.2863830  
H     0.3041750   -0.9741940   -1.0759320  
H     4.8382540    1.4133950    1.0485720  
H     2.5831950   -2.3908270   -1.2263830  
C    -2.4321690   -0.9249340    1.7672920  
C    -3.4737770   -0.2351860    1.1904340  
C    -2.9129510    0.8647170    0.4493370  
C    -1.5103090    0.7834390    0.6177840  
N    -1.2517100   -0.3048740    1.4304760  
C    -0.6101990    1.7160470    0.0581100  
C    -1.1817440    2.7385010   -0.6999880  
O    -0.3788190    3.6435110   -1.3180370  
C    -2.5892200    2.8274080   -0.8787550  
O    -2.9755800    3.8954760   -1.6603780  
C    -3.4580530    1.9140420   -0.3153910  
H    -0.3312450   -0.6056860    1.7119160  
H    -0.9540240    4.3094340   -1.7335750  
H    -3.9409030    3.9117480   -1.7401610  
H    -4.5314040    2.0004590   -0.4649060  
H    -2.4484670   -1.8106500    2.3857590  
C    -5.5830140   -0.4200110    2.5210590  
C    -6.8787480   -0.7856050    2.3480020  
C    -7.0333670   -1.1703350    0.9621170  
C    -5.6963890   -1.0008180    0.3382880  
N    -4.8461110   -0.5403120    1.3385370  
C    -5.4177450   -1.2671820   -0.9633670  
C    -6.4994840   -1.7454550   -1.8193150  
O    -6.3459520   -2.0090360   -3.0029630  
C    -7.9271040   -1.9263090   -1.1816040  
O    -8.8433000   -2.3218370   -1.8865550  
C    -8.0968750   -1.6111050    0.2379880  
H    -7.6524640   -0.7841170    3.1020590  
H    -4.4307920   -1.1397620   -1.3946000  
H    -9.0846070   -1.7446960    0.6690340  
H    -5.0776200   -0.0611720    3.4079770  
