66


C    -3.6065790    1.2114230   -0.0982790  
C    -4.7373120    0.6175680    0.4106660  
C    -4.4299600   -0.7708550    0.5896980  
C    -3.0800450   -0.9598290    0.1876920  
N    -2.6073760    0.2658570   -0.2388380  
C    -2.4205950   -2.2102950    0.2087820  
C    -3.2088310   -3.2767160    0.6422220  
O    -2.6778690   -4.5553470    0.6648400  
C    -4.5510570   -3.1130910    1.0547000  
O    -5.1549390   -4.2914990    1.4600170  
C    -5.1711120   -1.8784910    1.0425540  
H    -5.6613840    1.1234640    0.6513740  
H    -1.6883640    0.4317150   -0.6226090  
H    -3.3765950   -5.1453890    1.0012030  
H    -6.0693190   -4.1122680    1.7235870  
H    -6.2062390   -1.7731760    1.3600730  
C    -4.3186110    3.2976460   -1.2122850  
C    -3.8488670    4.5702840   -1.3718000  
C    -2.5708000    4.6386400   -0.7182860  
C    -2.3148330    3.3578100   -0.1669920  
N    -3.3999540    2.5381210   -0.4877540  
C    -1.1610510    3.0729540    0.5727420  
C    -0.2393720    4.0945990    0.7413320  
O     0.9047480    3.8634490    1.4542300  
C    -0.4710350    5.3788740    0.1861670  
O     0.5384630    6.2902790    0.4376280  
C    -1.6185130    5.6595760   -0.5337190  
H    -4.3485180    5.3669570   -1.9059550  
H    -0.9565830    2.0997010    1.0012690  
H     1.4237650    4.6857630    1.4380130  
H     0.3282680    7.1302320    0.0038150  
H    -1.7812410    6.6547670   -0.9434030  
H    -5.2245530    2.8291930   -1.5681140  
C     1.3279400    0.0391730    1.2416620  
C     0.0577190   -0.4740700    1.2362920  
C     0.0078130   -1.4879360    0.2163070  
C     1.3069090   -1.5611770   -0.3490460  
N     2.0998270   -0.6072330    0.2809610  
C     1.6597140   -2.4964590   -1.3272020  
C     0.6717640   -3.3783320   -1.7315510  
O     0.9426100   -4.3326840   -2.6660390  
C    -0.6456420   -3.3130340   -1.2009880  
O    -1.5145810   -4.2356640   -1.7478790  
C    -1.0160110   -2.3600890   -0.2505720  
H    -0.7469280   -0.1735390    1.8921680  
H     2.6544710   -2.5530170   -1.7525910  
H     0.1109210   -4.8327370   -2.7720780  
H    -2.0373040   -4.6219430   -1.0126530  
H     1.7497810    0.8555020    1.8112590  
C     5.4155350   -1.1316080    3.0479180  
C     6.4171240   -0.7226200    2.2056790  
C     5.8038480   -0.3795490    0.9529880  
C     4.4123000   -0.6046390    1.1067660  
N     4.2017090   -1.0595910    2.3891150  
C     3.4852820   -0.3812130    0.0723750  
C     3.9822820    0.0797020   -1.1448330  
O     3.1324020    0.3249890   -2.1801780  
C     5.3763990    0.2928050   -1.3122100  
O     5.7121230    0.7424020   -2.5765970  
C     6.2827980    0.0777670   -0.2913040  
H     7.4697760   -0.6721720    2.4479220  
H     3.3024440   -1.3183080    2.7654880  
H     3.6759040    0.6225890   -2.9304190  
H     6.6694000    0.8798900   -2.6259300  
H     7.3444860    0.2533080   -0.4528870  
H     5.4615170   -1.4709190    4.0730670  
