64


C     2.0614350    2.0071470   -0.0905380  
C     1.7204570    0.6782480    0.1394490  
C     2.8630960   -0.1314920   -0.1697740  
C     3.8875150    0.7621250   -0.5856280  
N     3.3695840    2.0322010   -0.5540040  
C     5.1835630    0.3482730   -0.9144200  
C     5.4548230   -1.0020330   -0.7849500  
O     6.6973180   -1.4850990   -1.0552980  
C     4.4503730   -1.9237700   -0.3734470  
O     4.8885690   -3.2309700   -0.3309460  
C     3.1415380   -1.5293090   -0.0930790  
H     0.8046640    0.3203490    0.5867960  
H     3.8892030    2.8880240   -0.6779250  
H     5.9619810    1.0365910   -1.2264810  
H     6.6467480   -2.4431080   -0.8711040  
H     4.5540240   -3.6291800    0.5023020  
C    -2.3103970    2.7239040    0.2260700  
C    -2.2394070    4.0961500    0.4501230  
C    -0.8722810    4.4574000    0.4272170  
C    -0.1181070    3.2624870    0.1929620  
N    -1.0174620    2.2394310    0.0782500  
C     1.2999300    3.2409360    0.1019530  
C     1.9074310    4.4991530    0.2170890  
O     3.2688270    4.6251310    0.1250200  
C     1.1652820    5.6929050    0.4447900  
O     1.9641860    6.8151490    0.5378270  
C    -0.2036860    5.6942590    0.5620880  
H    -3.0830140    4.7536080    0.6084670  
H    -0.8338670    1.2742680   -0.1572720  
H     3.4812370    5.5663690    0.2588320  
H     1.4199010    7.5889560    0.7454740  
H    -0.7535350    6.6153270    0.7385040  
C    -0.7879810   -2.1671750   -1.9987070  
C    -1.1658380   -3.2870790   -1.3018860  
C    -0.1284090   -3.5580300   -0.3482900  
C     0.8671460   -2.5592520   -0.5219380  
N     0.4355610   -1.7301280   -1.5365370  
C     2.0834770   -2.5296580    0.1998190  
C     2.2351940   -3.5592170    1.1276670  
O     3.4035190   -3.6506930    1.8664360  
C     1.2482860   -4.5511440    1.3348880  
O     1.5909280   -5.4794530    2.3039130  
C     0.0721060   -4.5675630    0.6122070  
H    -2.0647450   -3.8661210   -1.4642050  
H     0.9321850   -0.9088400   -1.8475940  
H     3.3018020   -4.4174020    2.4595770  
H     0.8696670   -6.1167570    2.4105880  
H    -0.6685930   -5.3479590    0.7732660  
H    -1.2945730   -1.6372780   -2.7927020  
C    -3.4155730    1.8279260    0.1413700  
C    -4.7671320    2.0573560    0.2661180  
C    -5.3917330    0.7803440    0.1058160  
C    -4.2461270   -0.1707410   -0.1224620  
N    -3.0998070    0.4460210   -0.1061660  
C    -4.4609580   -1.5779670   -0.3248100  
C    -5.7409480   -2.0178060   -0.3066950  
O    -6.1047300   -3.2941470   -0.4785120  
C    -6.9204010   -1.0857370   -0.0828590  
O    -8.0383760   -1.6121200   -0.0899510  
C    -6.6784230    0.3316390    0.1218970  
H    -5.2615810    2.9999560    0.4541740  
H    -3.6138990   -2.2361630   -0.4812450  
H    -7.0890970   -3.2805090   -0.4105720  
H    -7.5410500    0.9711190    0.2801710  
