64


C    -6.6115630    0.8719360    3.0594090  
C    -5.4935800    0.7032920    2.2829460  
C    -5.9047520    0.0404970    1.0776520  
C    -7.3089990   -0.1557670    1.1834090  
N    -7.7070670    0.3465750    2.4049520  
C    -8.0776010   -0.7350890    0.1717360  
C    -7.4171290   -1.0982320   -0.9928090  
O    -8.1097830   -1.6551820   -2.0213500  
C    -6.0214630   -0.8956000   -1.1470400  
O    -5.5378930   -1.3386570   -2.3557900  
C    -5.2293330   -0.3637770   -0.1176960  
H    -4.4938850    1.0121810    2.5492720  
H    -8.6568970    0.3701340    2.7410630  
H    -9.1493380   -0.8847260    0.2546420  
H    -7.4568950   -1.7910300   -2.7348460  
H    -4.9039180   -0.6603090   -2.6787980  
H    -6.7172750    1.3235250    4.0356190  
C    -1.8105540   -1.5673770    2.4719700  
C    -3.0581860   -1.4024590    1.9798070  
C    -2.8965770   -0.6020530    0.7703100  
C    -1.4351010   -0.3297490    0.7022670  
N    -0.8101210   -0.9130250    1.6916000  
C    -0.8300710    0.4755090   -0.3566330  
C    -1.6684360    0.7398450   -1.4084120  
O    -1.2603700    1.3173650   -2.5513460  
C    -3.1108500    0.3800960   -1.4112960  
O    -3.7297820    0.6122860   -2.4653040  
C    -3.7651560   -0.2240000   -0.2117410  
H    -3.9870740   -1.7969970    2.3626670  
H    -2.0584680    1.3668110   -3.1194550  
H    -1.4997230   -2.1246970    3.3470460  
C     3.0536170   -1.5045660    0.6422970  
C     3.8965170   -0.4750550    0.2775590  
C     3.0299510    0.6172410   -0.1189880  
C     1.6912250    0.1662740    0.0162050  
N     1.7407980   -1.1383860    0.4565670  
C     0.5657590    0.9570560   -0.3312810  
C     0.8586800    2.2792060   -0.7132350  
O    -0.1447260    3.1684920   -0.9306660  
C     2.1948550    2.7339730   -0.8548080  
O     2.2871180    4.0493360   -1.2730600  
C     3.2778250    1.9214030   -0.5934940  
H     0.9420080   -1.5385010    0.9456510  
H     0.2693080    3.9975770   -1.2292710  
H     3.2198850    4.2983110   -1.3511230  
H     4.2932770    2.2859270   -0.7253960  
H     3.3035320   -2.4786380    1.0387820  
C     6.9194130   -3.3451590   -1.4207210  
C     5.7560640   -2.7111050   -1.0710590  
C     6.1178510   -1.5445440   -0.3140630  
C     7.5360620   -1.5225470   -0.2432020  
N     7.9963920   -2.6330030   -0.9226380  
C     8.2512620   -0.5094050    0.4072500  
C     7.5116850    0.4999160    1.0026800  
O     8.1476600    1.5093300    1.6713880  
C     6.0957530    0.4976350    0.9430760  
O     5.5086910    1.5623030    1.6073230  
C     5.3710280   -0.5014890    0.2946060  
H     4.7561470   -3.0279280   -1.3305310  
H     8.9656790   -2.8809420   -1.0413400  
H     9.3348090   -0.4923140    0.4664090  
H     7.4511410    2.0673530    2.0592340  
H     4.5539410    1.3925080    1.6764000  
H     7.0772340   -4.2510060   -1.9891490  
