60


C    -6.2402250   -1.3674400    3.1995980  
C    -7.2060030   -2.1114310    2.5783100  
C    -7.1001590   -1.8536570    1.1680650  
C    -6.0314510   -0.9388060    0.9936200  
N    -5.4993480   -0.6816540    2.2468700  
C    -5.6477870   -0.4235680   -0.2637120  
C    -6.3865980   -0.8687210   -1.3628700  
O    -6.0461470   -0.4551100   -2.6124020  
C    -7.4561430   -1.7874060   -1.2038220  
O    -8.0659490   -2.1356880   -2.3941630  
C    -7.8151500   -2.2860900    0.0343520  
H    -7.9125890   -2.7697690    3.0649260  
H    -4.8906870    0.0976150    2.4504020  
H    -6.7286120   -0.7847040   -3.2230320  
H    -8.8865140   -2.6161660   -2.2098110  
H    -8.6368110   -2.9933950    0.1261120  
H    -5.9973490   -1.2746190    4.2487700  
C    -1.4324420   -0.8255150    0.7642270  
C    -0.9415850    0.4000260    0.3881530  
C    -2.0869480    1.1518720   -0.1398380  
C    -3.2557050    0.2517660   -0.0300580  
N    -2.7832680   -0.9267070    0.5296670  
C    -4.5318570    0.5317640   -0.4233760  
C    -4.7551390    1.8766300   -1.0013170  
O    -5.8581620    2.2966800   -1.2979410  
C    -3.5114130    2.8147940   -1.2095790  
O    -3.6725770    3.8804760   -1.7817410  
C    -2.2050150    2.3789210   -0.7082760  
H    -1.3750380    3.0677950   -0.8087160  
H    -0.8999260   -1.6463380    1.2266240  
H    -3.3739270   -1.7053260    0.7827040  
C     2.8340560   -1.6759160   -0.5983350  
C     1.5415080   -1.3036980   -0.4746080  
C     1.5074260    0.0010380    0.1556630  
C     2.9153040    0.3788320    0.3960220  
N     3.6958410   -0.6834090   -0.0905510  
C     3.3147390    1.5263400    1.0049480  
C     2.2895630    2.4863050    1.3915350  
O     2.5445010    3.5592610    1.9140670  
C     0.7852250    2.1277920    1.1201760  
O    -0.0667740    2.9302780    1.4543700  
C     0.4550180    0.8115220    0.5057410  
H     0.6881040   -1.8607180   -0.8308060  
H     4.3449140    1.7633520    1.2400880  
H     3.2652630   -2.5560760   -1.0530500  
C     5.0754450   -0.8064720   -0.0969970  
C     5.8265750   -1.9464920   -0.0278860  
C     7.2080480   -1.5585470   -0.1556860  
C     7.2107790   -0.0834130   -0.3046050  
N     5.8817560    0.3298450   -0.2065530  
C     8.3187370    0.6669720   -0.4994860  
C     9.6169200   -0.0132340   -0.5378520  
O    10.6672400    0.5835180   -0.7070790  
C     9.6433340   -1.5722500   -0.3393540  
O    10.7197440   -2.1498210   -0.3592800  
C     8.3705490   -2.2670210   -0.1530990  
H     5.4565280   -2.9444210    0.1557900  
H     8.3014400    1.7464400   -0.6143250  
H     8.3987520   -3.3458440   -0.0349020  
H     5.5489390    1.1895210   -0.6213830  
