60


C     3.0185140    4.9530320    1.4444940  
C     2.3622800    6.0934360    1.0700410  
C     1.1263650    5.6857810    0.4652810  
C     1.0963980    4.2671380    0.4865580  
N     2.2675570    3.8491360    1.0772190  
C     0.0039120    3.5074780   -0.0094810  
C    -1.0870010    4.2585950   -0.4849190  
O    -2.2077400    3.6299560   -0.9552050  
C    -1.0605520    5.6719930   -0.5168520  
O    -2.2104420    6.2270230   -1.0402080  
C     0.0291100    6.3901870   -0.0625250  
H     2.7113950    7.1068040    1.2101200  
H     2.4488240    2.9025540    1.3724790  
H    -2.8314270    4.3219720   -1.2425190  
H    -2.1415380    7.1930880   -1.0470680  
H     0.0270070    7.4773430   -0.0976400  
H     3.9711420    4.8237870    1.9380090  
C     0.0201050    2.0546820   -0.0339420  
C     1.0905240    1.1734060    0.0119660  
C     0.5816730   -0.1592840   -0.0332890  
C    -0.8802440   -0.0302370   -0.1437690  
N    -1.1492400    1.3163700   -0.1215620  
C    -1.7895760   -1.0611740   -0.2805500  
C    -1.1988220   -2.4144970   -0.2735980  
O    -1.8544800   -3.4277740   -0.4542980  
C     0.3402760   -2.5883970   -0.0147250  
O     0.7233680   -3.7100390    0.2605100  
C     1.2175290   -1.3980730   -0.0268520  
H     2.1335050    1.4397350   -0.0360170  
H    -2.0652510    1.7353620   -0.1847080  
C     2.6480470   -1.5643220    0.0334010  
C     3.5962350   -0.7535680    0.6203420  
C     4.8663070   -1.3779740    0.3683090  
C     4.5201130   -2.5933750   -0.4384640  
N     3.2396150   -2.7060610   -0.6236380  
C     5.5414160   -3.4877960   -0.9233120  
C     6.8254910   -3.2082450   -0.6000730  
O     7.8785810   -3.9523520   -0.9696250  
C     7.2025900   -2.0010110    0.2290480  
O     8.4029680   -1.8372520    0.4637250  
C     6.1535220   -1.0968500    0.6960690  
H     3.4269970    0.1177840    1.2358290  
H     5.2674450   -4.3559000   -1.5122560  
H     8.6591910   -3.4936420   -0.5833150  
H     6.4628960   -0.2342390    1.2784820  
C    -3.8040150    0.2027460   -1.1621480  
C    -3.2079550   -0.8485490   -0.5061070  
C    -4.3622750   -1.6683400   -0.0503060  
C    -5.5532820   -0.9130620   -0.5267410  
N    -5.2099100    0.1666150   -1.1838620  
C    -6.8955880   -1.3594110   -0.2762650  
C    -7.0605330   -2.5015180    0.4343230  
O    -8.2515230   -3.0320200    0.7507030  
C    -5.8821070   -3.2814010    0.9425920  
O    -6.1080510   -4.3014470    1.5906890  
C    -4.5095400   -2.8077860    0.6521120  
H    -7.7348760   -0.7815390   -0.6469310  
H    -8.0461600   -3.8462430    1.2615530  
H    -3.6908850   -3.4259080    0.9984330  
H    -3.3093420    1.0062360   -1.6955980  
