62


C     2.1372370   -0.0255370    3.2407670  
C     3.2895450   -0.0143580    2.5005420  
C     2.9023070    0.0875230    1.1221550  
C     1.4844820    0.1426490    1.0909960  
N     1.0469120    0.0686700    2.3945050  
C     0.7377110    0.2112980   -0.1094140  
C     1.4824210    0.2638300   -1.2926870  
O     0.8457080    0.4053140   -2.4848320  
C     2.8983750    0.2313130   -1.2738210  
O     3.4680430    0.2905610   -2.5274600  
C     3.6344960    0.1390510   -0.0919880  
H     4.2976360   -0.0818150    2.8820990  
H     0.0808950    0.0908770    2.6829480  
H     1.5202060    0.3213740   -3.1825550  
H     4.4159360    0.0836880   -2.4486310  
H     1.9937690   -0.0908340    4.3099190  
C    -2.4561190    2.7391070    1.7116980  
C    -1.2454960    2.2264170    1.3899060  
C    -1.5290940    1.0498320    0.5770210  
C    -3.0195250    0.9800680    0.5311880  
N    -3.5431670    1.9885170    1.1847080  
C    -3.7415120   -0.0653310   -0.1793420  
C    -2.9502790   -0.8804480   -0.9464710  
O    -3.4373890   -1.8101100   -1.7719410  
C    -1.4474550   -0.8487110   -0.9169880  
O    -0.8629410   -1.7398790   -1.5226180  
C    -0.7310180    0.2034360   -0.1267150  
H    -0.2682060    2.6150060    1.6371800  
H    -2.6573560   -2.3115710   -2.0989070  
H    -2.6745560    3.6274680    2.2920990  
C    -7.3051010    2.6172840   -0.0609050  
C    -8.2865460    1.6783470   -0.1053600  
C    -7.6387280    0.3861860   -0.1028560  
C    -6.1776370    0.6649370   -0.0825500  
N    -6.0420660    2.0389570   -0.0974770  
C    -5.1957860   -0.2937720   -0.0881110  
C    -5.6761420   -1.6881210    0.1021460  
O    -4.9397040   -2.6032880    0.4254890  
C    -7.2067730   -2.0013640   -0.0582990  
O    -7.5582140   -3.1709850   -0.1030240  
C    -8.1341150   -0.8810030   -0.1260030  
H    -9.3518820    1.8561050   -0.1315010  
H    -9.1959520   -1.0976690   -0.1925210  
H    -7.3946840    3.6954330   -0.0211740  
H    -5.1960510    2.4451540    0.3139600  
C     6.6341810   -2.9997860    1.1368880  
C     5.4759960   -2.3094380    0.8906860  
C     5.8524030   -1.0407520    0.3338620  
C     7.2710760   -1.0227090    0.2619610  
N     7.7188370   -2.2289560    0.7594030  
C     7.9950350    0.0621620   -0.2478970  
C     7.2720760    1.1563390   -0.6939850  
O     7.9236040    2.2492140   -1.1877570  
C     5.8535900    1.1592900   -0.6401420  
O     5.2813480    2.3239290   -1.1110730  
C     5.1212350    0.0817240   -0.1371220  
H     4.4723430   -2.6581380    1.0857250  
H     8.6851030   -2.5060330    0.8314280  
H     9.0790660    0.0782390   -0.2975660  
H     7.2457620    2.9141120   -1.4006970  
H     4.3339010    2.3194300   -0.8928970  
H     6.7817710   -3.9859880    1.5539060  
