64


C     3.7521200   -0.1136550    0.2406170  
C     4.0808670   -1.0174620    1.2195080  
C     5.3164940   -1.6295240    0.8202490  
C     5.6972900   -1.0421930   -0.4148280  
N     4.7313290   -0.1061310   -0.7426710  
C     6.8650330   -1.4015830   -1.0962900  
C     7.6666040   -2.3759400   -0.5206220  
O     8.8132760   -2.7695700   -1.1471190  
C     7.3071320   -2.9692790    0.7184300  
O     8.2095150   -3.9164550    1.1644670  
C     6.1534940   -2.6090340    1.3903330  
H     3.5240010   -1.1897850    2.1296900  
H     4.6307000    0.3482710   -1.6377470  
H     7.1582420   -0.9552820   -2.0409120  
H     9.2261180   -3.4515470   -0.5897760  
H     7.8997450   -4.2890760    2.0030330  
H     5.8998990   -3.0776470    2.3391350  
C     1.3201330    0.2857310    0.3391850  
C     0.4464690    1.3395090    0.1954370  
C     1.2522480    2.4964960   -0.1384960  
C     2.6027710    2.0735010   -0.1641530  
N     2.6229550    0.7053980    0.1184960  
C     3.6640130    2.9467750   -0.4318220  
C     3.3512570    4.2692680   -0.7090780  
O     4.3486270    5.1587310   -0.9790390  
C     2.0004280    4.7042870   -0.7243550  
O     1.8475810    6.0395990   -1.0392860  
C     0.9572290    3.8404490   -0.4420020  
H     4.7013350    2.6323500   -0.4212280  
H     3.9301540    6.0182940   -1.1588410  
H     0.9051900    6.2569960   -1.0932070  
H    -0.0706690    4.1939750   -0.4811920  
H     1.1245880   -0.7473490    0.5857470  
C    -0.9956040    1.2694920    0.3415200  
C    -1.8759940    0.2386740    0.0762320  
C    -3.1908660    0.6726000    0.4366700  
C    -3.0602680    2.0099560    0.9096540  
N    -1.7247900    2.3515420    0.8238050  
C    -4.1434180    2.7809200    1.3248180  
C    -5.4045950    2.2038690    1.2261370  
O    -6.5036000    2.9076390    1.6067990  
C    -5.5778930    0.8912510    0.7250270  
O    -6.8927420    0.4732530    0.7120290  
C    -4.4914870    0.0857680    0.3538260  
H    -1.6000170   -0.7101170   -0.3594960  
H    -1.3058330    3.1499220    1.2761790  
H    -4.0416540    3.7980260    1.6895290  
H    -7.2644650    2.3240900    1.4203940  
H    -7.0541350    0.0706810   -0.1675430  
C    -2.5272260   -3.8029990    1.3815990  
C    -2.9061410   -2.5042290    1.4225610  
C    -3.8947590   -2.3562570    0.3556090  
C    -3.9823290   -3.7179280   -0.2348150  
N    -3.1795510   -4.5591430    0.3553090  
C    -4.8702110   -4.0190180   -1.3296470  
C    -5.6658290   -3.0236340   -1.7789700  
O    -6.5673480   -3.1712400   -2.7694330  
C    -5.6423400   -1.6596810   -1.1599720  
O    -6.4855070   -0.8569520   -1.5868100  
C    -4.6478180   -1.3107260   -0.0980260  
H    -2.5753250   -1.7306420    2.0990410  
H    -4.9008590   -5.0184040   -1.7490080  
H    -7.0173200   -2.3040970   -2.8504970  
H    -1.8185380   -4.3127720    2.0232350  
