60


C    -4.9166650   -0.2159410    0.1590900  
C    -5.6993210   -1.3600130    0.3881540  
C    -7.0542430   -0.9923140    0.2681410  
C    -7.0809030    0.4041610   -0.0434980  
N    -5.7891600    0.8374770   -0.1034200  
C    -8.2764240    1.1085540   -0.2365010  
C    -9.4572350    0.3964760   -0.1163670  
O   -10.6457510    1.0223080   -0.2930830  
C    -9.4504530   -1.0039570    0.1933910  
O   -10.7140970   -1.5443630    0.2731770  
C    -8.2791310   -1.6967260    0.3831480  
H    -5.3238660   -2.3540490    0.5708670  
H    -5.4501010    1.7537130   -0.3679220  
H    -8.3062880    2.1667110   -0.4720080  
H   -11.3506700    0.3623300   -0.1675820  
H   -10.6580550   -2.4867860    0.4914120  
H    -8.2922440   -2.7584840    0.6183780  
C    -1.4028200   -2.7822400    1.2503790  
C    -2.6726940   -2.3079360    1.1713230  
C    -2.5653830   -0.9865880    0.5775490  
C    -1.1168010   -0.7900620    0.3936450  
N    -0.4497380   -1.8639460    0.7630810  
C    -0.5296820    0.4456580   -0.1238170  
C    -1.4386330    1.3600000   -0.5918120  
O    -1.0818150    2.4915830   -1.2213400  
C    -2.9034100    1.2049150   -0.4289620  
O    -3.5997920    2.1598820   -0.8042790  
C    -3.4893660   -0.0568820    0.1464930  
H    -3.5663850   -2.7977010    1.5250150  
H    -1.9096310    3.0019140   -1.3470800  
H    -1.0645520   -3.7342810    1.6403720  
C     3.1750020   -1.9345700   -0.8326570  
C     4.1047460   -0.9325320   -0.8116470  
C     3.3715120    0.2906940   -0.5067010  
C     1.9445680   -0.1039460   -0.3858800  
N     1.8926790   -1.4597440   -0.6311670  
C     0.9068910    0.7604440   -0.1259400  
C     1.3334420    2.1308490    0.2790490  
O     0.6138730    2.8931800    0.8969160  
C     2.7952430    2.5991250   -0.0360150  
O     3.0555250    3.7898160    0.0380050  
C     3.7808130    1.5820210   -0.3837420  
H     4.8081430    1.8943710   -0.5402650  
H     3.3395350   -2.9944300   -0.9813500  
H     1.1076550   -1.9894320   -0.2242520  
C     6.1000470   -1.6754690   -2.1620380  
C     5.5364900   -1.0712680   -1.0765140  
C     6.6467770   -0.6527560   -0.2200440  
C     7.8918440   -1.0675380   -0.9138660  
N     7.4874720   -1.6976720   -2.0741710  
C     9.1460520   -0.8476270   -0.4436350  
C     9.2969720   -0.1761280    0.8432450  
O    10.3832020    0.0655590    1.3472170  
C     7.9911270    0.2411440    1.6140900  
O     8.0939690    0.7793330    2.7042560  
C     6.6914090   -0.0379630    0.9899540  
H    10.0437690   -1.1551140   -0.9713570  
H     5.7993910    0.2636870    1.5292320  
H     5.6056290   -2.1037440   -3.0241470  
H     8.1093450   -2.0293950   -2.7946210  
