60


C     4.4210290   -1.6199720   -2.3477130  
C     4.3795320   -1.0061380   -1.1162650  
C     5.6223530   -1.2801770   -0.4433030  
C     6.3843170   -2.0767680   -1.3331850  
N     5.6247880   -2.2726260   -2.4727380  
C     7.6668500   -2.5425100   -1.0164520  
C     8.1849490   -2.1940080    0.2200830  
O     9.4289090   -2.6150780    0.5767590  
C     7.4297550   -1.3967170    1.1261990  
O     8.0827960   -1.1438080    2.3131070  
C     6.1636550   -0.9412620    0.8133240  
H     5.9179410   -2.7946470   -3.2840320  
H     8.2572950   -3.1500500   -1.6943280  
H     9.6175330   -2.2539250    1.4604710  
H     7.5655810   -0.5244870    2.8494280  
H     5.6036270   -0.3336640    1.5198190  
H     3.6860030   -1.6318060   -3.1394640  
C     2.0166530   -0.7832820   -0.3665880  
C     1.1389020    0.1707330    0.0776920  
C     1.9006180    1.4150050    0.1518200  
C     3.2729180    1.0894590   -0.3066000  
N     3.2838120   -0.2727500   -0.6029040  
C     4.2871430    1.9847340   -0.4006230  
C     4.0327230    3.3667000    0.0030560  
O     4.8828120    4.2416610   -0.0469170  
C     2.6004130    3.7266760    0.5383860  
O     2.3735860    4.8666900    0.9104950  
C     1.5846110    2.6686080    0.5712750  
H     5.2791670    1.7186450   -0.7485360  
H     0.6020310    2.9351160    0.9466080  
H     1.8319610   -1.8325990   -0.5553410  
C    -0.7688230   -1.1408100    1.1008610  
C    -0.2482200   -0.0685190    0.4392030  
C    -1.4337800    0.7416730    0.0758360  
C    -2.5797160   -0.0270130    0.6278290  
N    -2.1831090   -1.1187000    1.2180360  
C    -3.9514970    0.4325510    0.4766880  
C    -4.1463740    1.6070590   -0.1956030  
O    -5.3519280    2.1749970   -0.3729630  
C    -3.0146820    2.3598920   -0.8014170  
O    -3.2744550    3.4056530   -1.3985080  
C    -1.6284310    1.8655190   -0.6369430  
H    -5.1778200    2.9899740   -0.8955810  
H    -0.8382740    2.4564200   -1.0885880  
H    -0.2248430   -1.9669570    1.5425490  
C    -4.9983650   -0.9202960    2.2789010  
C    -6.1315400   -1.6244870    2.5078380  
C    -6.9407240   -1.5537560    1.3124090  
C    -6.1776580   -0.7277180    0.3444780  
N    -5.0005300   -0.3427500    0.9977270  
C    -6.5816310   -0.4877260   -0.9266360  
C    -7.8647030   -1.0388640   -1.3662410  
O    -8.2994550   -0.8715530   -2.4950520  
C    -8.7066710   -1.8795700   -0.3420090  
O    -9.7859990   -2.3321430   -0.6907560  
C    -8.1447450   -2.0959330    0.9918500  
H    -6.3819350   -2.1508050    3.4175970  
H    -6.0173740    0.1022390   -1.6365450  
H    -8.7127810   -2.7076690    1.6861470  
H    -4.1461080   -0.7578490    2.9207270  
