64


C     4.8175110   -0.6218430   -2.1011620  
C     5.5170670   -1.7962080   -2.1485080  
C     6.2295070   -1.9156710   -0.9074980  
C     5.9190180   -0.7664660   -0.1363380  
N     5.0499260    0.0214250   -0.8859390  
C     6.4269280   -0.5618790    1.1517370  
C     7.2727830   -1.5311330    1.6667870  
O     7.8013960   -1.3794310    2.9189780  
C     7.6007990   -2.6847910    0.9076210  
O     8.4564100   -3.5589690    1.5565070  
C     7.0923260   -2.8866950   -0.3618380  
H     5.5317160   -2.4920910   -2.9764990  
H     6.1913310    0.3166360    1.7407280  
H     8.3643610   -2.1546070    3.0856500  
H     8.6497790   -4.3077630    0.9737180  
H     7.3530010   -3.7818270   -0.9238620  
H     4.1806820   -0.1530040   -2.8380940  
C     0.8177560    0.9252130   -0.3144220  
C     0.9904920    2.2605170    0.0461880  
C     2.3822460    2.5364480    0.0228100  
C     3.0361670    1.3308240   -0.3609590  
N     2.0769130    0.3782170   -0.5603740  
C     4.4351090    1.2333800   -0.4841100  
C     5.1786150    2.3805440   -0.2122110  
O     6.5309430    2.3574740   -0.3281740  
C     4.5318400    3.5859370    0.1910100  
O     5.4173170    4.6187670    0.4304820  
C     3.1623080    3.6811760    0.3047980  
H     0.1850020    2.9349520    0.2886610  
H     2.2311650   -0.5874490   -0.8162680  
H     6.8559730    3.2423580   -0.0848520  
H     4.9261880    5.4164410    0.6767170  
H     2.6945540    4.6142150    0.6109770  
C    -3.3832820    2.0659670    0.2548870  
C    -4.0376550    0.8819330    0.0565970  
C    -2.9536570   -0.0768680   -0.2660280  
C    -1.7094330    0.7265640   -0.1855800  
N    -1.9859250    1.9715880    0.1036960  
C    -0.3908710    0.1406870   -0.4393000  
C    -0.4013160   -1.1891450   -0.8015010  
O     0.7315720   -1.8950380   -1.0730570  
C    -1.6214870   -1.9899670   -0.9344540  
O    -1.5197770   -3.1816030   -1.2664270  
C    -2.9312300   -1.3625840   -0.6609660  
H     0.4098540   -2.7983640   -1.2947880  
H    -3.8110660   -1.9816570   -0.8082560  
H    -3.8169360    3.0202420    0.5262400  
C    -5.4492750    0.6132850    0.1139170  
C    -6.5260050    1.4666840   -0.0782370  
C    -7.7207210    0.7141820    0.1087290  
C    -7.3288000   -0.6178320    0.4232630  
N    -5.9497240   -0.6621940    0.3839240  
C    -8.2517980   -1.6325030    0.6948350  
C    -9.5977500   -1.3026840    0.6371930  
O   -10.5399050   -2.2510910    0.8935920  
C   -10.0104890    0.0200380    0.3070170  
O   -11.3814240    0.1797180    0.2845400  
C    -9.0976950    1.0203350    0.0417390  
H    -6.4500920    2.5044550   -0.3727730  
H    -5.3961420   -1.4026170    0.7881010  
H    -7.9589990   -2.6483380    0.9391560  
H   -11.4112340   -1.8285360    0.7978250  
H   -11.5989030    1.0956720    0.0564070  
H    -9.4348820    2.0247550   -0.2055650  
