62


C     3.9452820   -1.2787810   -2.4932820  
C     3.8705540   -0.7514140   -1.2251750  
C     5.0652780   -1.1315740   -0.5182780  
C     5.8350610   -1.8993980   -1.4272500  
N     5.1258160   -1.9772300   -2.6116980  
C     7.0766160   -2.4495970   -1.0833490  
C     7.5440210   -2.2188130    0.2002360  
O     8.7478690   -2.7268820    0.5859030  
C     6.7793630   -1.4544220    1.1252520  
O     7.3788510   -1.3206410    2.3605610  
C     5.5542650   -0.9141000    0.7856000  
H     5.4338490   -2.4551170   -3.4440950  
H     7.6727120   -3.0364940   -1.7744670  
H     8.8986370   -2.4490100    1.5060840  
H     6.8400610   -0.7462980    2.9248500  
H     4.9851510   -0.3314570    1.5056720  
H     3.2495610   -1.1981420   -3.3157100  
C     1.4924340   -0.4485360   -0.6337650  
C     0.6523180    0.5512890   -0.1521280  
C     1.5075830    1.7043410    0.0869640  
C     2.8245690    1.3158710   -0.2571220  
N     2.7832580   -0.0075440   -0.7101510  
C     3.9323120    2.1617900   -0.1450740  
C     3.7104690    3.4368980    0.3523620  
O     4.7500200    4.3078260    0.4850840  
C     2.4030260    3.8423670    0.7239970  
O     2.3356800    5.1348100    1.2045530  
C     1.3124940    3.0016940    0.5985620  
H     4.9314600    1.8544370   -0.4308600  
H     4.3833010    5.1448220    0.8195470  
H     1.4090640    5.3782330    1.3489750  
H     0.3201590    3.3519590    0.8590610  
H     1.2418510   -1.4433520   -0.9705210  
C    -1.8337810   -2.9533940    1.0429890  
C    -0.7673140   -2.1344310    0.8594080  
C    -1.3265360   -0.8629890    0.4106280  
C    -2.7829840   -1.1056660    0.3986640  
N    -3.0766070   -2.3294950    0.7541820  
C    -3.7428600   -0.0758530    0.0229240  
C    -3.2224800    1.1462280   -0.2700170  
O    -3.9753260    2.2242320   -0.5507770  
C    -1.7498180    1.4280720   -0.2566000  
O    -1.4160660    2.5831060   -0.5231440  
C    -0.7689330    0.3348370    0.0410690  
H     0.2742390   -2.3510580    1.0477770  
H    -3.3336560    2.9427320   -0.7432380  
H    -1.8368000   -3.9811910    1.3854470  
C    -6.8829220   -1.5639920    2.8683330  
C    -5.6806280   -1.2178700    2.3554120  
C    -5.9508880   -0.8318310    0.9734240  
C    -7.4297630   -1.0172260    0.8329930  
N    -7.9690610   -1.4373880    1.9406210  
C    -8.1213930   -0.7228690   -0.3957480  
C    -7.3856860   -0.2681580   -1.4341230  
O    -7.8889530    0.0330750   -2.6440020  
C    -5.8957760   -0.0758570   -1.3324580  
O    -5.3091050    0.2728410   -2.3530770  
C    -5.1927010   -0.3398780   -0.0385490  
H    -4.7135160   -1.2447310    2.8332920  
H    -9.1932250   -0.8716060   -0.4652740  
H    -7.1137450    0.3056810   -3.1827710  
H    -7.1038070   -1.9151680    3.8693550  
