60


C    -4.5481440   -0.1074530   -0.1509000  
C    -4.6284120   -1.5035420   -0.0733370  
C    -5.9948400   -1.8456110   -0.0082270  
C    -6.7404800   -0.6190930   -0.0493320  
N    -5.8407620    0.4023050   -0.1360650  
C    -8.1400940   -0.5897870   -0.0023250  
C    -8.7972750   -1.8044470    0.0881100  
O   -10.1500060   -1.8391820    0.1382870  
C    -8.0697870   -3.0404270    0.1307580  
O    -8.8878550   -4.1428780    0.2202480  
C    -6.6971830   -3.0737860    0.0836470  
H    -3.7842840   -2.1792330   -0.0625330  
H    -6.0176390    1.3969710   -0.1733910  
H    -8.7118690    0.3312110   -0.0315960  
H   -10.4217300   -2.7719520    0.2056580  
H    -8.3538020   -4.9500340    0.2695840  
H    -6.1616780   -4.0196200    0.1174610  
C    -3.4456120    0.7801090   -0.2299480  
C    -2.0825550    0.5255900   -0.2522640  
C    -1.4611540    1.7990220   -0.3111430  
C    -2.5990480    2.7826490   -0.3306180  
N    -3.7538530    2.1784170   -0.2830130  
C    -2.3762160    4.2001760   -0.3757080  
C    -1.0910780    4.6263850   -0.4067810  
O    -0.7254250    5.9095810   -0.4391010  
C     0.0918390    3.6722210   -0.4250930  
O     1.2095350    4.1896290   -0.5173050  
C    -0.1580760    2.2391710   -0.3492880  
H    -1.5948880   -0.4370560   -0.1998800  
H    -3.2138090    4.8882400   -0.3751510  
H     0.2600740    5.8920160   -0.4832670  
C     1.1155530    0.3862800   -1.4154800  
C     2.2590050   -0.3208290   -1.2307660  
C     2.8922950    0.1866490   -0.0314920  
C     2.0065570    1.2601870    0.4755410  
N     0.9401240    1.3526450   -0.4218950  
C     2.2056640    1.9414930    1.6306440  
C     3.3886210    1.6254360    2.4224460  
O     3.6366130    2.1587470    3.4926080  
C     4.3943860    0.5582990    1.8629140  
O     5.4582820    0.4009460    2.4329920  
C     4.0379420   -0.1805460    0.6232210  
H     2.6189560   -1.1264470   -1.8530280  
H     1.5276150    2.7012710    2.0013780  
H     0.3706920    0.3019070   -2.1954490  
C     6.3500390   -0.6236350   -3.1053250  
C     6.9757260   -1.8009050   -2.8469100  
C     6.5316450   -2.2479310   -1.5428300  
C     5.5775090   -1.2205070   -1.0592060  
N     5.4995160   -0.2728310   -2.0627620  
C     4.9499560   -1.2365700    0.1537210  
C     5.2158930   -2.4052200    1.0209720  
O     4.6304800   -2.5869490    2.0737020  
C     6.2459290   -3.4897150    0.5351940  
O     6.4982070   -4.4288210    1.2738130  
C     6.8500520   -3.3328550   -0.7863550  
H     7.6792100   -2.3094640   -3.4898100  
H     7.5557290   -4.0903010   -1.1135540  
H     6.4296920    0.0204800   -3.9712150  
H     4.9919620    0.5948480   -1.9840380  
