60


C    -4.3686680   -1.3311410    2.4489780  
C    -4.2836630   -0.7590370    1.1997470  
C    -5.4469500   -1.1551380    0.4499480  
C    -6.2078090   -1.9807730    1.3141290  
N    -5.5225550   -2.0755510    2.5122470  
C    -7.4221140   -2.5605710    0.9252870  
C    -7.8732040   -2.2971250   -0.3577160  
O    -9.0500130   -2.8293810   -0.7847760  
C    -7.1182820   -1.4713900   -1.2385520  
O    -7.6994530   -1.3126160   -2.4776910  
C    -5.9182800   -0.9046250   -0.8549140  
H    -5.8394370   -2.5821980    3.3244710  
H    -8.0119860   -3.1899930    1.5833740  
H    -9.2053310   -2.5075080   -1.6900060  
H    -7.2154980   -0.6458170   -2.9876110  
H    -5.3586960   -0.2756720   -1.5427150  
H    -3.6987450   -1.2514390    3.2928410  
C    -1.9000370   -0.3714320    0.6368790  
C    -1.0538260    0.6341510    0.2298530  
C    -1.9055320    1.8161920    0.0372220  
C    -3.2845420    1.3869360    0.3704780  
N    -3.2106010    0.0408990    0.7391740  
C    -4.3834560    2.1790710    0.3231960  
C    -4.2205930    3.5603570   -0.1251140  
O    -5.1504200    4.3469070   -0.2112360  
C    -2.7792130    4.0313260   -0.5261940  
O    -2.6199720    5.1673760   -0.9407600  
C    -1.6658030    3.0803980   -0.3927670  
H    -5.3748850    1.8301780    0.5896110  
H    -0.6743660    3.4463010   -0.6284430  
H    -1.6539280   -1.3901600    0.9039270  
C     1.3627260   -2.6954100   -1.4351900  
C     0.3502280   -1.8652670   -1.0821660  
C     0.9416320   -0.6881720   -0.4767100  
C     2.3948910   -0.9075540   -0.5019120  
N     2.5874330   -2.1480460   -1.0507930  
C     3.3682290   -0.0086340   -0.0872370  
C     2.8696120    1.3137040    0.2797210  
O     3.5787760    2.2988770    0.4604770  
C     1.3231280    1.5239100    0.4664060  
O     0.9626400    2.5615810    0.9896660  
C     0.3756280    0.4651190    0.0311020  
H    -0.7003180   -2.0335250   -1.2621370  
H     1.3341610   -3.6531570   -1.9361430  
H     3.4910800   -2.4684340   -1.3709020  
C     4.7847440   -0.3098500   -0.0805960  
C     5.4413980   -1.5294730   -0.0864030  
C     6.8537290   -1.2734620   -0.0452260  
C     7.0014490    0.2036300   -0.0164630  
N     5.7241520    0.7179800   -0.0505210  
C     8.1932930    0.8513370    0.0327660  
C     9.4168240    0.0546340    0.0598740  
O    10.5330170    0.5502390    0.1037940  
C     9.2838700   -1.5128230    0.0314220  
O    10.3003160   -2.1928880    0.0524520  
C     7.9442130   -2.0924160   -0.0212190  
H     4.9893220   -2.5063490    0.0025150  
H     8.2827140    1.9329300    0.0547730  
H     7.8647950   -3.1754390   -0.0384540  
H     5.4412670    1.6837290    0.0669580  
