62


C     4.3495220   -0.3799640    0.0038500  
C     3.6074130    0.8039300    0.0449060  
C     4.5212370    1.8827930   -0.0192160  
C     5.8327400    1.3220920   -0.0998770  
N     5.6984020   -0.0402780   -0.0842010  
C     6.9853140    2.1127480   -0.1769610  
C     6.8143270    3.4881950   -0.1723170  
O     7.8974480    4.3064990   -0.2447510  
C     5.5108990    4.0678460   -0.0920800  
O     5.5252730    5.4484930   -0.0994420  
C     4.3773250    3.2908280   -0.0164660  
H     2.5325700    0.8472080    0.1228090  
H     6.4393700   -0.7258410   -0.1082240  
H     7.9849340    1.6957890   -0.2381910  
H     7.5707970    5.2233190   -0.2272970  
H     4.6180470    5.7829680   -0.0403190  
H     3.3924500    3.7488180    0.0441040  
C     0.2870180   -2.0780750    0.0945320  
C     0.5726200   -3.4137810    0.1678600  
C     2.0159670   -3.5084280    0.1686140  
C     2.4819180   -2.0940320    0.0878600  
N     1.4785860   -1.2726560    0.0445460  
C     3.9129770   -1.7524110    0.0517040  
C     4.7674990   -2.8321750    0.0764190  
O     6.1227180   -2.7071860    0.0444230  
C     4.3286810   -4.2327690    0.1579550  
O     5.1972290   -5.1195810    0.1837740  
C     2.8887870   -4.5370500    0.2048420  
H    -0.1235430   -4.2349820    0.2607610  
H     6.4498120   -3.6362490    0.0836380  
H     2.6020830   -5.5833760    0.2550630  
C    -3.6859690   -3.1873530   -1.5802700  
C    -2.3610440   -3.1966910   -1.2914350  
C    -2.1208830   -1.9687740   -0.5549170  
C    -3.4555450   -1.2856190   -0.5329810  
N    -4.3636010   -2.0285420   -1.1141200  
C    -3.6636180    0.0262080    0.0547770  
C    -2.5782460    0.5286810    0.7237970  
O    -2.6063120    1.6613560    1.4340760  
C    -1.2342020   -0.1439130    0.7626470  
O    -0.3672340    0.3978980    1.4437680  
C    -1.0190760   -1.4411820    0.0516310  
H    -1.6292120   -3.9433200   -1.5603470  
H    -1.6998480    1.7528140    1.8059260  
H    -4.2552480   -3.9368500   -2.1175630  
C    -7.9183570   -1.1587020    0.7445510  
C    -8.4720530    0.0869870    0.6186780  
C    -7.4033870    0.9855650    0.2815590  
C    -6.2118550    0.2144910    0.2398740  
N    -6.5481620   -1.0853460    0.5609630  
C    -4.9396410    0.7704970   -0.0401740  
C    -4.9372880    2.1309810   -0.3848730  
O    -3.7851240    2.7365490   -0.7881570  
C    -6.1241060    2.9054120   -0.3508670  
O    -5.9279880    4.2338560   -0.6935050  
C    -7.3436220    2.3626860   -0.0006950  
H    -9.5146240    0.3420650    0.7521230  
H    -5.9742060   -1.8523800    0.2252160  
H    -4.0025490    3.6699340   -0.9570630  
H    -6.7836820    4.6857810   -0.7250110  
H    -8.2372650    2.9832350    0.0313500  
H    -8.3866430   -2.1083900    0.9636790  
