62


C    -4.5246300    1.6223470   -0.5675750  
C    -4.6381390    0.2439900   -0.4532420  
C    -5.7677660    0.0110270    0.4325090  
C    -6.2706220    1.2809360    0.8096860  
N    -5.4973550    2.2378920    0.1788280  
C    -7.3507770    1.4528710    1.6844260  
C    -7.9428960    0.3096760    2.1943920  
O    -9.0051500    0.4086240    3.0424990  
C    -7.4519230   -0.9738900    1.8344670  
O    -8.1428120   -2.0177240    2.4200800  
C    -6.3831400   -1.1351540    0.9755540  
H    -5.6513550    3.2332570    0.2238630  
H    -7.7324420    2.4296190    1.9634680  
H    -9.2892380   -0.4988550    3.2499460  
H    -7.8745710   -2.8518830    2.0062330  
H    -6.0519740   -2.1289330    0.6960000  
H    -3.8528430    2.2097580   -1.1760600  
C    -0.2853110    0.3550090   -1.1033110  
C    -0.1445990   -0.8617180   -1.7119100  
C    -1.4448380   -1.4631540   -1.8560350  
C    -2.4023260   -0.5109330   -1.2703720  
N    -1.6670560    0.6320760   -0.9071070  
C    -3.7398590   -0.7257280   -1.0852490  
C    -4.2432610   -2.0197490   -1.6207050  
O    -5.4199230   -2.3363140   -1.5805730  
C    -3.2389760   -3.0304870   -2.2966520  
O    -3.6884160   -4.0970240   -2.6944660  
C    -1.8402920   -2.6595270   -2.3808230  
H     0.7833700   -1.2733480   -2.0820580  
H    -1.1456620   -3.3662740   -2.8234930  
H    -1.9602150    1.1209740   -0.0631340  
C     3.9410190    0.0317360    0.4119200  
C     2.6607060   -0.2479580   -0.0273830  
C     2.0118680    0.9956160   -0.3002370  
C     2.9469110    2.0213740   -0.0034680  
N     4.1164350    1.4100090    0.3995000  
C     2.6508000    3.3823800   -0.1210190  
C     1.3773550    3.7248970   -0.5506060  
O     1.0427120    5.0371510   -0.6953910  
C     0.4192820    2.7265230   -0.8565060  
O    -0.7796430    3.2327510   -1.3054940  
C     0.7079630    1.3576340   -0.7462790  
H     2.2529150   -1.2389030   -0.1616980  
H     4.8999120    1.8862550    0.8202480  
H     3.3705820    4.1640600    0.0987560  
H     0.1388490    5.0661790   -1.0550080  
H    -1.3345860    2.4939830   -1.6230390  
C     4.8214280   -2.0615390    1.4899090  
C     4.9952820   -0.8667570    0.8480810  
C     6.4381950   -0.6973810    0.6798700  
C     7.0726550   -1.8944410    1.2880030  
N     6.0342230   -2.6865420    1.7379590  
C     8.4107150   -2.1094960    1.3501020  
C     9.3040150   -1.1078230    0.7737130  
O    10.5205100   -1.2090970    0.7926790  
C     8.6556680    0.1520590    0.0939930  
O     9.3801900    0.9953990   -0.4086050  
C     7.1924260    0.2687320    0.0929970  
H     8.8528240   -2.9931980    1.7999050  
H     6.7650010    1.1333470   -0.4046250  
H     3.8971120   -2.5255870    1.8070090  
H     6.1472560   -3.5510440    2.2440790  
