62


C     4.3940830   -0.4401870   -0.0707020  
C     5.0070030   -1.6269430   -0.4425020  
C     6.4130090   -1.4647280   -0.2775630  
C     6.6254530   -0.1439150    0.2081500  
N     5.3907950    0.4698520    0.2892480  
C     7.8966210    0.3557860    0.5068060  
C     8.9781900   -0.4880530    0.3012980  
O    10.2383980   -0.0539140    0.5764890  
C     8.7880130   -1.8072500   -0.2009850  
O     9.9643140   -2.5123480   -0.3556900  
C     7.5319040   -2.2987070   -0.4928760  
H     4.4940090   -2.4920530   -0.8399220  
H     5.2123360    1.3071400    0.8233700  
H     8.0645060    1.3604060    0.8808490  
H    10.8496540   -0.7801500    0.3621610  
H     9.7714910   -3.3967010   -0.7007760  
H     7.4090700   -3.3106960   -0.8729410  
C     1.9146750   -0.9137350    0.1146630  
C     2.9970410   -0.0946370   -0.0376690  
C     2.4034830    1.2528870   -0.2029230  
C     0.9348910    1.0332070   -0.1012790  
N     0.6770810   -0.2355970    0.0803330  
C    -0.0318940    2.1254150   -0.1986300  
C     0.5060790    3.3756340   -0.4327470  
O    -0.2002290    4.4977420   -0.5944630  
C     1.9785430    3.6004170   -0.5798310  
O     2.3668300    4.7507170   -0.7995320  
C     2.9144110    2.4692040   -0.4608070  
H     0.4738330    5.1974260   -0.7572920  
H     3.9688300    2.6847860   -0.6026120  
H     1.9180870   -1.9849760    0.2728980  
C    -1.4556170    1.8719490   -0.0576780  
C    -2.1148960    0.6707730   -0.1594180  
C    -3.5094320    0.9624170    0.0842220  
C    -3.5338370    2.4341650    0.3204830  
N    -2.3479910    2.9614140    0.2341610  
C    -4.7581370    3.1426640    0.5949650  
C    -5.8968990    2.4174030    0.6448800  
O    -7.1103790    2.9328920    0.9013810  
C    -5.9055620    0.9188550    0.4590210  
O    -6.9741150    0.3505780    0.6642290  
C    -4.6424730    0.1991420    0.1086380  
H    -1.6761870   -0.2863690   -0.3884560  
H    -4.7436230    4.2150230    0.7543180  
H    -7.7140120    2.1568220    0.9281910  
C    -2.3903550   -3.0951880    2.0629110  
C    -3.0268160   -4.1380060    1.4438290  
C    -3.9776120   -3.5670790    0.5324390  
C    -3.8710260   -2.1557280    0.6482800  
N    -2.9100120   -1.8991980    1.6029300  
C    -4.6925200   -1.2596530   -0.0780250  
C    -5.5945980   -1.8420220   -0.9770280  
O    -6.3508890   -1.0473610   -1.7829100  
C    -5.6995240   -3.2485670   -1.1079690  
O    -6.6383010   -3.6491240   -2.0415680  
C    -4.9183750   -4.1107680   -0.3628320  
H    -2.8467840   -5.1899440    1.6178530  
H    -2.5184550   -0.9887300    1.7928740  
H    -6.9551490   -1.6289040   -2.2763670  
H    -6.6980150   -4.6156330   -2.0452100  
H    -5.0231660   -5.1879600   -0.4776920  
H    -1.6035130   -3.0967540    2.8038040  
