64


C    -0.8246650    0.9667790    0.5633300  
C    -1.8570420    0.1152100    0.2566830  
C    -3.0756800    0.8751530    0.3644990  
C    -2.7059420    2.1987180    0.7216830  
N    -1.3279150    2.2278750    0.8411300  
C    -3.6281090    3.2396200    0.8648370  
C    -4.9559450    2.9320850    0.6156870  
O    -5.9132330    3.8937300    0.7162400  
C    -5.3569030    1.6174300    0.2519380  
O    -6.7165200    1.4852230    0.0634900  
C    -4.4476700    0.5627790    0.1446050  
H    -1.7484090   -0.9089330   -0.0681480  
H    -0.7810670    2.9965840    1.1976910  
H    -3.3429150    4.2518770    1.1317100  
H    -6.7491000    3.4526980    0.4696550  
H    -6.8535500    0.9611030   -0.7557700  
C     1.1158900   -0.3820040    1.2921550  
C     2.4764430   -0.3438840    1.1711510  
C     2.8036670    0.8297020    0.4084180  
C     1.5798740    1.4725960    0.0910730  
N     0.5495350    0.7152110    0.6487240  
C     1.5122410    2.6514640   -0.6609270  
C     2.7117240    3.2050060   -1.0814280  
O     2.7065270    4.3479010   -1.8261040  
C     3.9479560    2.5950430   -0.7544660  
O     5.0513020    3.2693990   -1.2415640  
C     4.0246860    1.4094760   -0.0230400  
H     3.1664780   -1.0638380    1.5864080  
H     0.5763960    3.1211960   -0.9411770  
H     3.6302740    4.5344040   -2.0686350  
H     5.8142120    2.6671230   -1.2085510  
H     0.4729390   -1.0883170    1.7964200  
C    -3.5604280   -3.2174210    2.2571940  
C    -4.2775480   -4.0656280    1.4536620  
C    -4.8762450   -3.2634810    0.4256530  
C    -4.4732270   -1.9204380    0.6572630  
N    -3.6824830   -1.9255210    1.7869990  
C    -4.8857110   -0.8274540   -0.1412410  
C    -5.7531770   -1.1599160   -1.1807090  
O    -6.2476710   -0.1646090   -2.0059310  
C    -6.1687620   -2.4889590   -1.4314410  
O    -7.0270330   -2.6052890   -2.5118300  
C    -5.7394040   -3.5438680   -0.6511060  
H    -4.3771260   -5.1344830    1.5830430  
H    -3.2152150   -1.1115300    2.1557410  
H    -6.8071920   -0.6023200   -2.6732550  
H    -7.2254660   -3.5399870   -2.6691080  
H    -6.0735820   -4.5586300   -0.8564970  
H    -2.9697450   -3.4255060    3.1383630  
C     6.4011530    1.3922880    0.8874290  
C     5.3359660    0.7968150    0.2705860  
C     5.7627080   -0.5703250   -0.0392030  
C     7.1533340   -0.7042380    0.4604610  
N     7.4788310    0.5223440    1.0055830  
C     7.9029120   -1.8318950    0.3632590  
C     7.3146680   -3.0013260   -0.2822320  
O     7.9075810   -4.0612110   -0.4132130  
C     5.8477560   -2.8774580   -0.8361700  
O     5.3406810   -3.8399590   -1.3885240  
C     5.1402420   -1.6011640   -0.6661020  
H     8.9195150   -1.9077210    0.7369450  
H     4.1267710   -1.5278670   -1.0463090  
H     6.4705540    2.3955270    1.2883350  
H     8.3588220    0.7435420    1.4445660  
