62


C    -1.4212800   -3.7563920   -1.7198080  
C    -2.4871680   -4.5985420   -1.6435110  
C    -3.4593160   -3.9930970   -0.7697340  
C    -2.9247240   -2.7567010   -0.3369890  
N    -1.6630110   -2.6142770   -0.9417910  
C    -3.5912070   -1.9330230    0.5771380  
C    -4.8327350   -2.3528330    1.0341210  
O    -5.5128460   -1.5796900    1.9286390  
C    -5.3947140   -3.5760630    0.5899750  
O    -6.6321440   -3.8503610    1.1304620  
C    -4.7207060   -4.3970450   -0.2978950  
H    -2.5829370   -5.5427520   -2.1617650  
H    -3.1822840   -1.0029980    0.9505240  
H    -6.3519290   -2.0317070    2.1250300  
H    -6.9603610   -4.6964060    0.7912070  
H    -5.1564160   -5.3422920   -0.6141660  
H    -0.5070790   -3.8243890   -2.2899260  
C    -0.7565650   -1.5850240   -0.7857420  
C     0.6105070   -1.6186590   -0.8353200  
C     1.0798750   -0.2707470   -0.6553790  
C    -0.1189000    0.5712450   -0.4885870  
N    -1.2137970   -0.2890480   -0.5289360  
C    -0.1364590    1.9265270   -0.3258980  
C     1.1853490    2.5806570   -0.2288510  
O     1.3216540    3.7458450    0.0941720  
C     2.4824740    1.7270450   -0.4727710  
O     3.5509550    2.3084270   -0.5358440  
C     2.3441420    0.2661790   -0.6280410  
H     1.2246690   -2.5019790   -0.9171820  
H    -2.1320480    0.0289600   -0.8109140  
C    -3.5943910    1.7660370    2.4406490  
C    -4.3137360    2.8065730    1.9516820  
C    -3.5767050    3.3580940    0.8333320  
C    -2.3492740    2.5362710    0.7050140  
N    -2.4352230    1.5646840    1.6892990  
C    -1.3570870    2.7402120   -0.2129190  
C    -1.5709020    3.8438560   -1.1800300  
O    -0.8275410    4.0370170   -2.1246830  
C    -2.8436710    4.7526860   -1.0257350  
O    -2.9783370    5.7028350   -1.7804270  
C    -3.8185180    4.4115680    0.0078310  
H    -5.2667110    3.1570400    2.3203070  
H    -4.7034930    5.0343530    0.0950500  
H    -3.8188840    1.1020230    3.2646570  
H    -1.6520940    0.9992270    1.9817340  
C     3.6300480   -1.3770180   -1.9731530  
C     4.8401750   -2.0049040   -1.9139440  
C     5.5058100   -1.5379240   -0.7283070  
C     4.6434680   -0.6028580   -0.1041280  
N     3.4848410   -0.5143580   -0.8818520  
C     4.9642440    0.0201160    1.1068540  
C     6.1859410   -0.2903240    1.6839030  
O     6.5482860    0.2968880    2.8622620  
C     7.0668880   -1.2146980    1.0652330  
O     8.2432530   -1.4224080    1.7616080  
C     6.7412220   -1.8386790   -0.1250540  
H     5.2262190   -2.7061900   -2.6414870  
H     4.3194400    0.7459230    1.5863750  
H     7.4439440   -0.0163820    3.0754130  
H     8.8334340   -1.9819440    1.2357360  
H     7.4247840   -2.5542220   -0.5781210  
H     2.8533350   -1.4189100   -2.7226370  
