66


C     0.0584040    2.1522510   -0.0724220  
C    -1.1980230    1.5865630   -0.2443880  
C    -1.0237110    0.1770420   -0.4087700  
C     0.3692520   -0.0791750   -0.3095560  
N     0.9908220    1.1296220   -0.1135800  
C     0.9420030   -1.3716070   -0.3952780  
C     0.0245400   -2.3976330   -0.6543410  
O     0.4616250   -3.6925440   -0.8171510  
C    -1.3646450   -2.1592870   -0.7581050  
O    -2.0983720   -3.3050850   -1.0146350  
C    -1.9298900   -0.8930270   -0.6275700  
H    -2.1465700    2.0956140   -0.1560430  
H     1.9850350    1.2771010   -0.0340130  
H    -0.3283770   -4.2283950   -1.0103200  
H    -3.0257130   -3.0558860   -1.1660440  
C    -2.0068370    5.8786780   -1.2046790  
C    -1.1081360    6.7629360   -0.6696160  
C    -0.0483080    5.9870660   -0.0893640  
C    -0.3726340    4.6213380   -0.2931590  
N    -1.5805650    4.5862550   -0.9599620  
C     0.4517250    3.5467080    0.1213920  
C     1.6606670    3.9250630    0.7200900  
O     2.5628180    2.9698880    1.1259650  
C     1.9945700    5.2838140    0.9356180  
O     3.2194870    5.4574410    1.5583440  
C     1.1594910    6.3160250    0.5552820  
H    -1.1872410    7.8412850   -0.6861040  
H    -1.9602760    3.7512960   -1.3783230  
H     3.3147430    3.4440190    1.5225620  
H     3.3817720    6.4025500    1.6921400  
H     1.4408250    7.3519240    0.7325680  
H    -2.9319130    6.0582850   -1.7343350  
C    -4.0228310    0.2053110   -1.5781990  
C    -3.3853860   -0.6978200   -0.7535000  
C    -4.4383500   -1.4135150   -0.0572980  
C    -5.6773470   -0.8942110   -0.5135240  
N    -5.3903740    0.0914540   -1.4360590  
C    -6.9122270   -1.3491800   -0.0342660  
C    -6.8967960   -2.3460250    0.9284540  
O    -8.0710990   -2.8283080    1.4273880  
C    -5.6658390   -2.8698550    1.4082240  
O    -5.8164530   -3.8482080    2.3718490  
C    -4.4484720   -2.4190860    0.9341530  
H    -6.0746630    0.6330430   -1.9404340  
H    -7.8613460   -0.9523480   -0.3799840  
H    -7.8459280   -3.4992000    2.0949950  
H    -4.9444330   -4.1314800    2.6846730  
H    -3.5187210   -2.8260020    1.3241880  
H    -3.5954570    0.9070170   -2.2800960  
C     2.3742250   -1.6032840   -0.2218590  
C     3.3294310   -0.8555010    0.4530080  
C     4.5827070   -1.5300990    0.3209820  
C     4.3426050   -2.7000890   -0.4503490  
N     3.0063710   -2.7103660   -0.7738660  
C     5.3548910   -3.6139900   -0.7702020  
C     6.6324020   -3.3446280   -0.3046400  
O     7.6579230   -4.2041470   -0.5872040  
C     6.8913520   -2.1800680    0.4659410  
O     8.2145390   -2.0497570    0.8553290  
C     5.8921490   -1.2783840    0.7802580  
H     3.1462200    0.0322830    1.0418230  
H     2.4954560   -3.4680800   -1.2022440  
H     5.1755200   -4.5082450   -1.3583190  
H     8.4576800   -3.8377650   -0.1726480  
H     8.3127520   -1.2446210    1.3842110  
H     6.1172280   -0.3933840    1.3730410  
