64


C     4.8467190   -1.9184610   -1.5470860  
C     5.9788690   -2.6532730   -1.3359610  
C     6.8420370   -1.8752060   -0.4911490  
C     6.1764610   -0.6534230   -0.2221790  
N     4.9436670   -0.6929560   -0.8772880  
C     6.7213430    0.3332420    0.6072700  
C     7.9693190    0.0875900    1.1578460  
O     8.5487730    1.0205100    1.9671170  
C     8.6557010   -1.1268050    0.8903730  
O     9.8857010   -1.2228320    1.5127830  
C     8.1091480   -2.1036020    0.0796800  
H     6.1867220   -3.6292800   -1.7535890  
H     6.2273500    1.2764180    0.8053360  
H     9.4245950    0.6804060    2.2186110  
H    10.3345360   -2.0291740    1.2188510  
H     8.6465510   -3.0315140   -0.1061000  
H     3.9840710   -2.1201160   -2.1665010  
C     0.8121990   -1.1294690    0.2809920  
C     0.3563010    0.1341810    0.0255550  
C     1.5039250    0.8941900   -0.4681780  
C     2.6478750   -0.0432960   -0.4665430  
N     2.1574860   -1.2576030   -0.0376400  
C     3.9233190    0.2773400   -0.8379930  
C     4.1724720    1.6553890   -1.2988760  
O     5.2594140    2.0416180   -1.6894640  
C     2.9613200    2.6642030   -1.2977840  
O     3.1722520    3.8175790   -1.6362490  
C     1.6450240    2.1827560   -0.8831640  
H     0.8172530    2.8820610   -0.9324890  
H     0.2654340   -1.9728280    0.6804550  
H     2.7353470   -2.0636980    0.1489900  
C    -1.0092330    0.6011160    0.1933450  
C    -2.2014570   -0.0746790    0.0341390  
C    -3.2605790    0.8279620    0.3672210  
C    -2.6574620    2.0636960    0.7208460  
N    -1.2920390    1.9088640    0.5830840  
C    -3.3957290    3.1896470    1.1031550  
C    -4.7756660    3.0641340    1.1279630  
O    -5.5496600    4.1198070    1.5094310  
C    -5.4012270    1.8424670    0.7613350  
O    -6.7767810    1.8743290    0.8412550  
C    -4.6758800    0.7154570    0.3732400  
H    -2.3080360   -1.0901950   -0.3196610  
H    -0.6026620    2.5563360    0.9340260  
H    -2.9358400    4.1330540    1.3787830  
H    -6.4744950    3.8169470    1.4931570  
H    -7.1152640    0.9700850    0.7182100  
C    -4.7693950   -3.4103560    2.2104560  
C    -4.5034070   -2.0921720    1.9448850  
C    -5.2359430   -1.7442220    0.7596360  
C    -5.9385610   -2.9081310    0.3490750  
N    -5.6328080   -3.9075330    1.2504630  
C    -6.7756290   -2.9371630   -0.7737640  
C    -6.9037540   -1.7650770   -1.5007150  
O    -7.6939830   -1.7340480   -2.6130380  
C    -6.2159010   -0.5872890   -1.1057630  
O    -6.4367020    0.4927980   -1.9352200  
C    -5.3826410   -0.5454700    0.0132290  
H    -3.8619820   -1.4411570    2.5210900  
H    -5.9963390   -4.8469900    1.2225110  
H    -7.3096630   -3.8273650   -1.0903780  
H    -7.6113410   -0.8432050   -2.9961540  
H    -5.8139180    1.2009400   -1.6952310  
H    -4.4160120   -4.0458760    3.0103190  
