60


C    -6.4758420    0.6631950    2.9442010  
C    -7.5471800    0.1972010    2.2310590  
C    -7.0527700   -0.2274010    0.9502240  
C    -5.6533230    0.0017210    0.9490880  
N    -5.3213620    0.5202500    2.1890390  
C    -4.8230160   -0.2638280   -0.1622610  
C    -5.4593700   -0.7803040   -1.2942880  
O    -4.7217670   -1.1053280   -2.3892810  
C    -6.8578510   -1.0189850   -1.3059190  
O    -7.3181110   -1.5483240   -2.4973580  
C    -7.6547260   -0.7574710   -0.2074420  
H    -8.5717230    0.1587260    2.5750040  
H    -4.4368960    0.9564250    2.4019780  
H    -5.3447190   -1.3499900   -3.0958070  
H    -8.2862430   -1.5233780   -2.5095730  
H    -8.7243080   -0.9540350   -0.2432490  
H    -6.4272370    1.0762210    3.9419030  
C    -1.6930820   -1.7705990    2.4969320  
C    -0.6039400   -1.1489450    1.9689170  
C    -1.0543310   -0.3641030    0.8393460  
C    -2.5164760   -0.5730540    0.7606930  
N    -2.8369190   -1.4427430    1.7885770  
C    -3.3675950   -0.0119530   -0.1506690  
C    -2.7521490    0.9222580   -1.1086190  
O    -3.3943000    1.6005010   -1.8899180  
C    -1.1866040    1.0988910   -1.1035820  
O    -0.6927740    1.7786670   -1.9877680  
C    -0.3798620    0.4356250   -0.0553350  
H     0.4068690   -1.2136100    2.3410750  
H    -1.7569190   -2.4354230    3.3482620  
H    -3.7704890   -1.7775030    1.9724060  
C     1.9581900   -0.4641910    0.0860930  
C     1.0783900    0.5685450   -0.0607750  
C     1.8870600    1.7821200   -0.1884260  
C     3.3028100    1.3551030   -0.0916640  
N     3.2871090   -0.0339700    0.0945720  
C     4.3632000    2.1883700   -0.2235350  
C     4.1081760    3.6160430   -0.4123000  
O     5.0051080    4.4353760   -0.5379210  
C     2.6183800    4.1000340   -0.4416410  
O     2.3830290    5.2931990   -0.5447290  
C     1.5599390    3.0885170   -0.3489380  
H     5.3932980    1.8625550   -0.1740720  
H     0.5362310    3.4275090   -0.4502060  
H     1.7505100   -1.5204740    0.1574730  
C     4.0252150   -3.7715190   -1.9556800  
C     5.2662310   -4.0817150   -1.5177870  
C     5.6276930   -3.0105840   -0.5935040  
C     4.4364080   -2.1095110   -0.6062630  
N     3.5057350   -2.5582840   -1.3936790  
C     4.3972370   -0.8903170    0.1913960  
C     5.4692680   -0.6425130    1.0018040  
O     5.5462240    0.4048520    1.8402390  
C     6.6676870   -1.5320800    1.0211590  
O     7.5864740   -1.2305080    1.7849000  
C     6.7011850   -2.7404210    0.1724060  
H     5.8789490   -4.9308760   -1.7863220  
H     6.4284520    0.3243280    2.2689980  
H     7.5931900   -3.3570760    0.2249830  
H     3.4043140   -4.3164250   -2.6558700  
