62


C     4.1229400   -0.4287860    0.0242140  
C     4.5246010   -1.6573630    0.5130640  
C     5.8472000   -1.9083620    0.0321940  
C     6.2192840   -0.7894030   -0.7613930  
N     5.1718670    0.1115740   -0.7207430  
C     7.4544720   -0.7017760   -1.4121560  
C     8.3375110   -1.7594020   -1.2530700  
O     9.5540590   -1.7268650   -1.8678920  
C     7.9900590   -2.8801040   -0.4497510  
O     8.9788440   -3.8429380   -0.3847770  
C     6.7689850   -2.9643810    0.1908650  
H     3.9481390   -2.2804720    1.1833980  
H     5.0492980    0.8724310   -1.3724310  
H     7.7409180    0.1471240   -2.0245570  
H    10.0162870   -2.5511990   -1.6369060  
H     8.6723830   -4.5864920    0.1549690  
H     6.5242700   -3.8334330    0.7983290  
C     1.6349950   -0.2901520    0.3185990  
C     2.8729230    0.2834710    0.1854170  
C     2.6665190    1.7214980    0.2129630  
C     1.2783640    1.9533440    0.3303620  
N     0.6437600    0.6912770    0.3901260  
C     0.7531840    3.2385580    0.4840840  
C     1.6401180    4.3062400    0.4764410  
O     1.1628360    5.5750900    0.6078370  
C     3.0339060    4.0891290    0.3474010  
O     3.7877600    5.2417750    0.3734880  
C     3.5535810    2.8116920    0.2233370  
H    -0.3045430    3.4383310    0.5840130  
H     1.9256830    6.1783860    0.5919980  
H     4.7297950    5.0199500    0.3290910  
H     4.6288820    2.6566950    0.1814820  
H     1.3515490   -1.3303080    0.2758350  
C    -1.5051390   -2.2148520    2.9167560  
C    -0.4959660   -1.4914110    2.3683910  
C    -1.1400490   -0.6095360    1.4057870  
C    -2.5730480   -0.9511690    1.4954530  
N    -2.7773580   -1.8926820    2.3833020  
C    -3.6080240   -0.2862670    0.6954600  
C    -3.1619590    0.7356050   -0.0970360  
O    -3.9794960    1.5167080   -0.8403330  
C    -1.7330650    1.1064580   -0.2286270  
O    -1.4436860    1.9890080   -1.0399850  
C    -0.6998070    0.3939440    0.5910020  
H     0.5565340   -1.5302800    2.6086760  
H    -3.3791160    2.1162720   -1.3358040  
H    -1.4401310   -2.9717210    3.6890320  
C    -5.5600270   -1.2506960    1.9343850  
C    -5.0015250   -0.7087850    0.8014420  
C    -6.0596730   -0.7180860   -0.2155590  
C    -7.2658220   -1.2776760    0.4476960  
N    -6.8885190   -1.5617120    1.7465000  
C    -8.4704130   -1.4708640   -0.1448920  
C    -8.6112410   -1.1281650   -1.5556460  
O    -9.6544940   -1.2630400   -2.1769300  
C    -7.3431180   -0.5752210   -2.2967720  
O    -7.4256130   -0.3018470   -3.4841790  
C    -6.0987440   -0.4047600   -1.5372790  
H    -9.3294780   -1.8842720    0.3748830  
H    -5.2471420   -0.0021860   -2.0685600  
H    -5.0732790   -1.4523080    2.8759970  
H    -7.4861170   -1.9851710    2.4396360  
