62


C    -3.7769250    0.2224310   -1.6488310  
C    -5.1386290    0.2094810   -1.6417310  
C    -5.5555850   -0.8131430   -0.7185180  
C    -4.3847020   -1.4149360   -0.1986380  
N    -3.2841360   -0.7650600   -0.7818600  
C    -4.4308370   -2.4144630    0.7781580  
C    -5.6806900   -2.8338540    1.2099830  
O    -5.7737410   -3.8131790    2.1536040  
C    -6.8634540   -2.2544130    0.6832410  
O    -8.0265950   -2.7750790    1.2116890  
C    -6.8132200   -1.2513540   -0.2686290  
H    -5.7801300    0.8401650   -2.2424010  
H    -3.5473900   -2.8893900    1.1846200  
H    -6.7193780   -3.9859770    2.3015590  
H    -8.7914650   -2.3836200    0.7644880  
H    -7.7292980   -0.8046730   -0.6496550  
H    -3.0829220    0.8017910   -2.2390440  
C     0.0224670    2.0209280   -0.0191700  
C    -1.2111360    1.4490620   -0.2031470  
C    -1.0277960    0.0338300   -0.3720250  
C     0.4209350   -0.2119190   -0.2906380  
N     0.9971210    1.0068900   -0.1011810  
C     1.0444950   -1.4528190   -0.3453880  
C     0.1417910   -2.6005140   -0.3745990  
O     0.4892940   -3.7661840   -0.2060090  
C    -1.3889500   -2.3700360   -0.6401420  
O    -2.0678770   -3.3356660   -0.9334420  
C    -1.9270870   -0.9944240   -0.5509430  
H    -2.1607560    1.9551350   -0.1521270  
H     1.9628040    1.1612640    0.1573300  
C     2.4820440   -1.6274670   -0.2959350  
C     3.5073630   -0.7305680   -0.5424650  
C     4.7534240   -1.4217360   -0.3718790  
C     4.4014410   -2.8160370   -0.0010650  
N     3.0268910   -2.8672390    0.0370640  
C     5.3108670   -3.7948110    0.2412450  
C     6.7293040   -3.4674600    0.1353710  
O     7.6178930   -4.2824850    0.3375070  
C     7.1254330   -1.9953670   -0.2553600  
O     8.3115270   -1.7070230   -0.3428290  
C     6.0554000   -1.0320480   -0.4940050  
H     3.4107880    0.2790190   -0.9126020  
H     5.0352250   -4.8099640    0.5094320  
H     6.3403080   -0.0199380   -0.7660780  
H     2.4376490   -3.6840050    0.1491640  
C    -1.9514480    5.9103830   -1.0868080  
C    -1.6604630    4.5779500   -0.9475990  
C    -0.4289570    4.4849780   -0.2158970  
C    -0.0127940    5.8225620    0.0497560  
N    -0.9663980    6.6622840   -0.4812350  
C     1.1782740    6.1459370    0.6998670  
C     1.9815710    5.0883830    1.1096730  
O     3.1534320    5.3440720    1.7485620  
C     1.5851520    3.7526180    0.8834910  
O     2.4962010    2.7846270    1.3413780  
C     0.3968430    3.4097520    0.2186080  
H    -2.2512170    3.7690490   -1.3475700  
H    -0.9284120    7.6696300   -0.4616540  
H     1.4938170    7.1676500    0.8834530  
H     3.6027950    4.4861800    1.8600340  
H     2.1759830    2.4213060    2.1856350  
H    -2.7886250    6.3900470   -1.5736590  
