62


C    -4.1611720   -0.3663300   -0.2020260  
C    -4.9064490   -1.3158570   -0.8571860  
C    -6.2747640   -1.0896390   -0.4922330  
C    -6.2976810    0.0246710    0.3875500  
N    -4.9924960    0.4610600    0.5374810  
C    -7.4791820    0.5276830    0.9423260  
C    -8.6643480   -0.1065570    0.6016140  
O    -9.8445510    0.3385560    1.1182970  
C    -8.6633040   -1.2174680   -0.2850270  
O    -9.9209640   -1.7327420   -0.5292360  
C    -7.4937290   -1.7100840   -0.8324350  
H    -4.5218430   -2.0508690   -1.5500380  
H    -4.6679480    1.1252810    1.2240240  
H    -7.5003470    1.3788060    1.6149320  
H   -10.5498940   -0.2259600    0.7573760  
H    -9.8541040   -2.4766880   -1.1458840  
H    -7.5176370   -2.5616200   -1.5092420  
C    -1.8581740   -1.1978100   -0.0759400  
C    -0.5651600   -0.6913240   -0.1173290  
C    -0.7012810    0.7494830   -0.2554880  
C    -2.0823760    1.0375990   -0.3013870  
N    -2.7740220   -0.1812770   -0.1792830  
C    -2.5860420    2.3309780   -0.4778780  
C    -1.6616850    3.3611800   -0.5862380  
O    -2.0930220    4.6419830   -0.7582240  
C    -0.2706040    3.0907090   -0.5247040  
O     0.5241230    4.2127800   -0.6403420  
C     0.2180960    1.8063830   -0.3676750  
H    -3.6443680    2.5494740   -0.5592140  
H    -1.3026310    5.2012320   -0.8558560  
H     1.4515810    3.9406590   -0.7127520  
H     1.2823610    1.5981970   -0.3311060  
H    -2.2016980   -2.2133250    0.0546440  
C     0.6377490   -1.4612650   -0.0226280  
C     0.8073470   -2.8286370    0.0432010  
C     2.2135320   -3.0526480    0.1240830  
C     2.8132370   -1.6692040    0.1000020  
N     1.8927090   -0.7547820    0.0143570  
C     4.2466730   -1.4486530    0.1589700  
C     5.0125170   -2.5756470    0.2417810  
O     6.3391510   -2.5620940    0.3507130  
C     4.4343690   -3.9818590    0.2654790  
O     5.2585150   -4.8990870    0.3502860  
C     3.0003390   -4.1629030    0.1989580  
H     0.0404650   -3.5905580    0.0207670  
H     6.5960460   -3.5160770    0.3737760  
H     2.6161420   -5.1777390    0.2128140  
C     3.7883220    2.2651720    2.5858480  
C     3.6808430    1.0093330    2.0868360  
C     4.5482010    0.9247890    0.9282100  
C     5.1838540    2.2594430    0.7968680  
N     4.6548890    3.0372050    1.8096010  
C     6.1107410    2.5953860   -0.1379180  
C     6.5058650    1.5816370   -1.1020790  
O     7.3471790    1.7684000   -1.9685550  
C     5.8034450    0.1755150   -1.0302200  
O     6.0480470   -0.6346920   -1.9053670  
C     4.8446200   -0.1019930    0.0741230  
H     3.0444810    0.2232420    2.4607270  
H     6.5797440    3.5732070   -0.1917800  
H     3.2978540    2.7083590    3.4424550  
H     5.0136370    3.9416170    2.0739410  
