62


C     4.1889920   -1.4007680    2.5467940  
C     2.9993450   -1.3174580    1.8645920  
C     3.0359990   -2.2988030    0.8121850  
C     4.2854690   -2.9606760    0.9253630  
N     4.9746300   -2.3788000    1.9718630  
C     4.6607460   -4.0325950    0.1086330  
C     3.7312790   -4.4683870   -0.8206670  
O     4.0176660   -5.5204640   -1.6314780  
C     2.4598850   -3.8435950   -0.9522910  
O     1.6842520   -4.3998590   -1.9332780  
C     2.1004690   -2.7253530   -0.1858620  
H     2.1790790   -0.6595040    2.1109980  
H     5.8696570   -2.6878570    2.3172610  
H     5.6163420   -4.5390770    0.1984410  
H     3.2121900   -5.6698550   -2.1635170  
H     0.7496340   -4.3874670   -1.6076220  
H     4.5340450   -0.8557440    3.4144270  
C     1.1465500    1.6136260   -0.3941470  
C     1.8112330    0.4154240   -0.4583330  
C     0.7968850   -0.6081560   -0.4424370  
C    -0.4801170    0.1409790   -0.3936280  
N    -0.2743660    1.4221740   -0.3211650  
C    -1.7955720   -0.5211030   -0.3931070  
C    -1.7295680   -1.8939020   -0.4582500  
O    -2.8321910   -2.6820130   -0.5752900  
C    -0.4742800   -2.6480440   -0.5161870  
O    -0.5778180   -3.8882450   -0.6857850  
C     0.8470170   -1.9735100   -0.3916540  
H     2.8686320    0.2430010   -0.5898990  
H    -2.4702390   -3.5894320   -0.6785930  
C     4.8992100    3.0851940    1.3067520  
C     4.7781580    4.4076060    1.0231910  
C     3.5184720    4.5820360    0.3323410  
C     2.9168790    3.2355830    0.2236760  
N     3.8118470    2.3704040    0.8148090  
C     1.6896860    2.9541030   -0.3371080  
C     0.9518770    4.1086550   -0.9049430  
O    -0.0858350    4.0037220   -1.5346410  
C     1.5603880    5.5520130   -0.7423990  
O     0.9014800    6.5057180   -1.1277570  
C     2.8822960    5.6897890   -0.1409620  
H     5.4837090    5.1877080    1.2690650  
H     3.3026640    6.6875620   -0.0609410  
H     5.6926660    2.5608190    1.8224750  
H     3.6146550    1.3988870    1.0224540  
C    -3.0499950    1.5961770   -0.8529810  
C    -3.0050890    0.2764240   -0.3893750  
C    -4.3590580   -0.0354940    0.0530460  
C    -5.1435770    1.1222040   -0.1748590  
N    -4.3127610    2.0811810   -0.7378610  
C    -6.4955590    1.2211710    0.1601200  
C    -7.0863380    0.1169650    0.7578490  
O    -8.4040500    0.1520850    1.1064860  
C    -6.3207060   -1.0470030    1.0125440  
O    -7.0352460   -2.0637460    1.6187410  
C    -4.9806670   -1.1341630    0.6786290  
H    -4.5934390    3.0129510   -1.0051530  
H    -7.0826300    2.1156670   -0.0210610  
H    -8.6189000   -0.7118310    1.4990990  
H    -6.4650860   -2.8407470    1.7160870  
H    -4.4270290   -2.0454620    0.8720360  
H    -2.2493240    2.2044480   -1.2442030  
