62


C    -3.3501860    0.6054590   -1.9811540  
C    -4.6619860    0.9666660   -1.8512500  
C    -5.1932910    0.2446970   -0.7289570  
C    -4.1438840   -0.5554140   -0.2111280  
N    -3.0117430   -0.3206290   -0.9904990  
C    -4.3040150   -1.3728130    0.9135680  
C    -5.5516870   -1.3931850    1.5163160  
O    -5.7641920   -2.1784000    2.6129750  
C    -6.6171400   -0.6046690    1.0067020  
O    -7.7972290   -0.7311880    1.7170270  
C    -6.4527070    0.2080560   -0.0990440  
H    -5.1959050    1.6542490   -2.4933670  
H    -3.5104200   -1.9977860    1.3049740  
H    -6.6999870   -2.0802480    2.8588870  
H    -8.4991480   -0.2419650    1.2633110  
H    -7.2804040    0.8103120   -0.4690130  
H    -2.6145960    0.8857920   -2.7220740  
C     0.7522530    1.6973970   -0.3097220  
C     1.5683660    0.5849900   -0.2447590  
C     0.7557320   -0.5794820   -0.4172910  
C    -0.6245640   -0.0832850   -0.6023960  
N    -0.5694820    1.2819070   -0.5174490  
C    -1.7240870   -0.8693930   -0.8118090  
C    -1.4988740   -2.3084060   -0.9093840  
O    -2.3841290   -3.1256200   -1.0949880  
C    -0.0160840   -2.8360960   -0.8146090  
O     0.1418680   -4.0275910   -1.0783590  
C     1.0794000   -1.9282440   -0.4422190  
H     2.6345670    0.6130530   -0.0995370  
H    -1.3614870    1.9052390   -0.5873990  
C     4.6579560    3.6738940    0.2044670  
C     4.3039730    4.9778690    0.2355060  
C     2.8546930    4.9837290    0.0809100  
C     2.4895670    3.5352190   -0.0322310  
N     3.5464970    2.7847950    0.0402810  
C     1.0978150    3.0997940   -0.2048370  
C     0.1723900    4.1146650   -0.2601440  
O    -1.1513990    3.9180820   -0.4187300  
C     0.5221740    5.5621990   -0.1478860  
O    -0.4073600    6.3721410   -0.2107310  
C     1.9252870    5.9574020    0.0278480  
H     4.9404250    5.8445640    0.3464700  
H    -1.5452220    4.8232270   -0.4141930  
H     2.1401480    7.0189110    0.1042940  
H     5.6481060    3.2429500    0.2853340  
C     3.7714970   -1.1545710    3.0673500  
C     2.7149030   -1.1753000    2.1926170  
C     3.0946900   -1.9962060    1.0777510  
C     4.4093730   -2.4628290    1.3504240  
N     4.8016050   -1.9179290    2.5568040  
C     5.0956460   -3.3472810    0.5153310  
C     4.4213810   -3.7970440   -0.6109490  
O     5.0208620   -4.6733030   -1.4597690  
C     3.1018470   -3.3672800   -0.9074850  
O     2.6020810   -3.9002570   -2.0725250  
C     2.4244310   -2.4354340   -0.1083950  
H     1.7776190   -0.6577980    2.3316690  
H     5.6692680   -2.1195690    3.0280240  
H     6.0975340   -3.7065820    0.7274760  
H     4.3483720   -4.8751940   -2.1396200  
H     1.6718370   -4.1675890   -1.8845400  
H     3.8779110   -0.6501170    4.0173020  
