62


C     5.5101880    1.4716650   -2.2580560  
C     4.8734240    0.6271890   -1.3776020  
C     5.8768670   -0.1993510   -0.7584430  
C     7.1173730    0.1987280   -1.3151340  
N     6.8598120    1.2058350   -2.2277750  
C     8.3324410   -0.3921870   -0.9454290  
C     8.2890930   -1.4001500    0.0040320  
O     9.4418030   -2.0055360    0.4041070  
C     7.0502310   -1.8121620    0.5702820  
O     7.1762510   -2.8282090    1.4948040  
C     5.8526400   -1.2302130    0.2019660  
H     7.5570910    1.6895000   -2.7720710  
H     9.2865640   -0.0900120   -1.3646460  
H     9.2051160   -2.6611260    1.0830270  
H     6.3196450   -2.9977240    1.9143370  
H     4.9163630   -1.5591020    0.6464270  
H     5.0992550    2.2401340   -2.8967600  
C     2.5233700    0.1749540   -2.0991770  
C     1.2614220    0.2569080   -1.6007890  
C     1.3637570    0.7377250   -0.2449710  
C     2.8131750    0.9416670    0.0031210  
N     3.4774320    0.5693470   -1.1598840  
C     3.3468110    1.3971220    1.1657210  
C     2.4247510    1.7336730    2.2357980  
O     2.7767210    2.0979170    3.3472980  
C     0.8811910    1.6524170    1.9396930  
O     0.1360230    2.1635770    2.7763130  
C     0.4019480    1.0167860    0.7039210  
H     0.3490480    0.0126620   -2.1214200  
H     4.4126780    1.4987450    1.3347160  
H     2.8601760   -0.1390270   -3.0782270  
C    -1.6975830   -2.7372730   -0.5797540  
C    -0.7619170   -1.8184820   -0.1824050  
C    -1.4512060   -0.5805130    0.0660460  
C    -2.8259120   -0.8261840   -0.1857150  
N    -2.9473760   -2.1468730   -0.5723950  
C    -3.8375880    0.1443510   -0.0345000  
C    -3.4077320    1.3922230    0.4203590  
O    -4.3127190    2.3727010    0.6569580  
C    -2.0409150    1.6628280    0.6957650  
O    -1.8157160    2.9478270    1.1308200  
C    -1.0339480    0.7146150    0.4940290  
H     0.2965710   -2.0042100   -0.0766830  
H    -3.7998650   -2.5688450   -0.9062680  
H    -3.7936970    3.1367860    0.9764540  
H    -1.1832330    2.8853240    1.8843610  
H    -1.5818470   -3.7747970   -0.8598480  
C    -6.6017480   -2.7252000    1.7961850  
C    -7.7275570   -2.4618410    1.0824350  
C    -7.4024190   -1.4183110    0.1320470  
C    -5.9728760   -1.0957860    0.3523150  
N    -5.5369880   -1.9483580    1.3546520  
C    -5.2627390   -0.1341450   -0.3066700  
C    -5.9907280    0.6131520   -1.3576520  
O    -5.4519870    1.4329170   -2.0789210  
C    -7.5175810    0.3009840   -1.5892990  
O    -8.1251320    0.9531090   -2.4248850  
C    -8.1418860   -0.7577700   -0.7999250  
H    -8.6895660   -2.9386530    1.2018580  
H    -9.1932190   -0.9666430   -0.9727860  
H    -6.4514560   -3.4313110    2.6024930  
H    -4.6477880   -1.8503080    1.8217170  
