64


C    -2.1581910   -2.6818460   -1.9502090  
C    -3.1520110   -3.6161740   -1.8700130  
C    -2.8169180   -4.5041840   -0.7915510  
C    -1.5855770   -4.0589560   -0.2486030  
N    -1.1887040   -2.9338230   -0.9745550  
C    -0.9822650   -4.6752050    0.8534380  
C    -1.6244520   -5.7748520    1.4010830  
O    -1.0729130   -6.4186960    2.4711120  
C    -2.8518390   -6.2429060    0.8623830  
O    -3.3660540   -7.3462080    1.5171500  
C    -3.4514740   -5.6227820   -0.2178410  
H    -4.0154700   -3.6794310   -2.5185870  
H    -0.0396440   -4.3422260    1.2690280  
H    -1.6607410   -7.1604480    2.6950110  
H    -4.1801780   -7.6321830    1.0773810  
H    -4.3980730   -5.9900200   -0.6096990  
H    -2.0081470   -1.8731700   -2.6511770  
C    -1.1119620    1.3084430   -0.1565310  
C     0.2668600    1.4407740   -0.0746830  
C     0.8520320    0.1626170   -0.3138720  
C    -0.2245670   -0.7271500   -0.5388000  
N    -1.4012760   -0.0088720   -0.4740920  
C    -0.0669560   -2.1100660   -0.7429440  
C     1.2359010   -2.6068360   -0.7153630  
O     1.4689730   -3.9290520   -0.9171930  
C     2.3440030   -1.7489790   -0.4982120  
O     3.5236830   -2.4054530   -0.5230230  
C     2.1996560   -0.3424350   -0.3262910  
H     0.7671660    2.3730670    0.1297360  
H    -2.3087330   -0.4392470   -0.3627980  
H     2.4367470   -4.0441740   -0.8596720  
H     4.2492940   -1.7250090   -0.3391170  
C    -2.1528960    2.2921890    0.0120630  
C    -2.1563570    3.4711320    0.7306260  
C    -3.4449000    4.0710100    0.5747710  
C    -4.2071310    3.2096100   -0.2586460  
N    -3.4168160    2.1124590   -0.5565640  
C    -5.5202940    3.4977830   -0.6436090  
C    -6.0820690    4.6737490   -0.1684470  
O    -7.3585960    5.0044550   -0.5143960  
C    -5.3417530    5.5394080    0.6823040  
O    -6.0435450    6.6620830    1.0764750  
C    -4.0435360    5.2530110    1.0584910  
H    -1.3407100    3.8317350    1.3422830  
H    -3.5842370    1.5063400   -1.3467560  
H    -6.1051790    2.8454030   -1.2838560  
H    -7.5649250    5.8510280   -0.0816420  
H    -5.4853240    7.2097070    1.6480110  
H    -3.4951450    5.9318230    1.7084500  
C     3.3549780    0.4958050   -0.1809830  
C     3.4967070    1.8719670   -0.1278060  
C     4.8871490    2.1376440    0.0158300  
C     5.5358220    0.7832820    0.0388000  
N     4.6400230   -0.1553740   -0.0811450  
C     6.9520530    0.6159560    0.1731680  
C     7.6932890    1.7473560    0.2748080  
O     9.0184450    1.7695150    0.4040210  
C     7.0740150    3.1414440    0.2511300  
O     7.8738100    4.0801640    0.3529480  
C     5.6424630    3.2737580    0.1167750  
H     2.7267560    2.6195850   -0.2195230  
H     7.3970200   -0.3726220    0.1904090  
H     9.2427860    2.7319720    0.4505140  
H     5.2250270    4.2752540    0.1021520  
