60


C    -5.8536460    2.7723100    1.5961790  
C    -6.3115280    1.5166010    1.2954860  
C    -5.2723700    0.8563170    0.5593280  
C    -4.2005770    1.7740990    0.4325310  
N    -4.5863490    2.9337740    1.0640430  
C    -2.9618080    1.4551450   -0.1890950  
C    -2.8662660    0.1356490   -0.7008130  
O    -1.7654900   -0.2755320   -1.3581960  
C    -3.9519230   -0.7800670   -0.6047700  
O    -3.7290710   -1.9802390   -1.2518320  
C    -5.1417020   -0.4338200    0.0064670  
H    -7.2742520    1.1062930    1.5666710  
H    -3.9733380    3.7159560    1.2379750  
H    -1.9494660   -1.2016560   -1.6202650  
H    -3.9278950   -2.7569360   -0.6872770  
H    -5.9573060   -1.1505710    0.0468440  
H    -6.3257490    3.5792590    2.1380510  
C    -1.8856310    2.4133380   -0.2785090  
C    -1.9449510    3.7894350   -0.3575010  
C    -0.5891260    4.2522870   -0.3799960  
C     0.2290600    2.9997720   -0.2686110  
N    -0.5219750    1.9466290   -0.2228210  
C     1.6968350    3.0334960   -0.2167760  
C     2.2494170    4.2832590   -0.3274830  
O     3.5677960    4.5245690   -0.3147210  
C     1.4426920    5.5501410   -0.4732240  
O     2.1019590    6.5944900   -0.5593300  
C    -0.0038330    5.4765670   -0.4877870  
H    -2.8236240    4.4026940   -0.5026660  
H     3.6318020    5.5104980   -0.4124710  
H    -0.5551190    6.4070150   -0.5782830  
C     2.4695290    1.8217800   -0.0494600  
C     1.9982580    0.5238690    0.0551230  
C     3.1071810   -0.3408520    0.2415920  
C     4.3096070    0.5176660    0.1983760  
N     3.8591950    1.8139460    0.0535770  
C     5.5841040    0.0545190    0.2638450  
C     5.7915950   -1.3882830    0.3664060  
O     6.9026380   -1.8934270    0.3640480  
C     4.5363390   -2.3280180    0.5062360  
O     4.7329100   -3.5023050    0.7545730  
C     3.1838600   -1.7238690    0.4035550  
H     0.9600650    0.2595150   -0.0335610  
H     6.4586560    0.6958290    0.2108730  
H     4.4349970    2.6366800   -0.0490280  
C     1.9871480   -2.5189080    0.4844910  
C     0.7623590   -2.1189630    0.9754780  
C    -0.1587940   -3.1495630    0.6262540  
C     0.6849390   -4.1922580   -0.0487130  
N     1.9349430   -3.8451690   -0.1050360  
C     0.0839650   -5.3936070   -0.5788730  
C    -1.2647360   -5.5052200   -0.5132480  
O    -1.9577730   -6.5469730   -1.0010270  
C    -2.1312810   -4.4154550    0.0718220  
O    -3.3627500   -4.5368660   -0.0706310  
C    -1.5110180   -3.2740300    0.7094850  
H     0.5276990   -1.2045560    1.4979650  
H     0.7018730   -6.1550360   -1.0414510  
H    -2.9034920   -6.3114520   -0.8775070  
H    -2.1534820   -2.5275470    1.1659630  
