62


C    -3.8712470    0.2673110   -1.7099470  
C    -3.3158870   -0.6330110   -0.8208690  
C    -4.4306230   -1.2856360   -0.1581720  
C    -5.6193150   -0.7353320   -0.7028120  
N    -5.2424800    0.2043360   -1.6425240  
C    -6.8974770   -1.1160960   -0.2778610  
C    -6.9811300   -2.0701920    0.7238020  
O    -8.1998420   -2.4782420    1.1714150  
C    -5.8024780   -2.6217130    1.2969630  
O    -6.0510730   -3.5458000    2.2894320  
C    -4.5412280   -2.2428740    0.8759170  
H    -5.8764320    0.7526780   -2.2033790  
H    -7.8064680   -0.6924160   -0.6921030  
H    -8.0490650   -3.1246650    1.8828980  
H    -5.2161210   -3.8380920    2.6844880  
H    -3.6570040   -2.6672490    1.3447450  
H    -3.3790310    0.9244850   -2.4124660  
C     0.1732900    2.1373500   -0.1498420  
C    -1.0914120    1.5840610   -0.3501480  
C    -0.9375120    0.1822620   -0.4800230  
C     0.4540630   -0.0977990   -0.3498350  
N     1.0944010    1.0936570   -0.1616890  
C     0.9898720   -1.4118810   -0.3765340  
C     0.0306310   -2.4302460   -0.4926630  
O     0.4163170   -3.7387360   -0.5278060  
C    -1.3562950   -2.1619630   -0.6241090  
O    -2.1099310   -3.3066700   -0.7783660  
C    -1.8790570   -0.8750430   -0.6352370  
H    -2.0263490    2.1203980   -0.3343830  
H     2.0544000    1.2285290    0.1284160  
H    -0.3884750   -4.2705150   -0.6740890  
H    -3.0281320   -3.0630090   -0.9888500  
C    -1.7933830    6.1468350   -0.6516780  
C    -1.5605050    4.8117680   -0.7437010  
C    -0.2396480    4.6076600   -0.1626820  
C     0.1846060    5.9724080    0.2240240  
N    -0.7274900    6.8689440   -0.0500020  
C     1.4677870    6.2415850    0.8222890  
C     2.3121790    5.2020170    1.0008650  
O     3.5524590    5.3201910    1.5147650  
C     1.9307000    3.8106100    0.6122470  
O     2.7957100    2.9411390    0.7650880  
C     0.5576240    3.5128490    0.0679750  
H    -2.1978820    4.0684510   -1.1975960  
H     1.7372830    7.2564890    1.0927110  
H     3.9346750    4.4180550    1.5076330  
H    -2.6667500    6.6937320   -0.9866900  
C     2.4206930   -1.6716100   -0.2931340  
C     3.4812290   -0.8366790   -0.5687790  
C     4.6990630   -1.5643350   -0.3354720  
C     4.2870030   -2.9194420    0.1069000  
N     2.9103900   -2.9115360    0.1332670  
C     5.1508360   -3.9220820    0.4106140  
C     6.5825650   -3.6610110    0.3040940  
O     7.4336460   -4.5018670    0.5553020  
C     7.0430580   -2.2277490   -0.1549410  
O     8.2400920   -1.9938890   -0.2444380  
C     6.0155910   -1.2334200   -0.4565300  
H     3.4259810    0.1652850   -0.9656470  
H     4.8306030   -4.9088670    0.7308270  
H     6.3452300   -0.2492150   -0.7757260  
H     2.3192070   -3.7225030    0.2383710  
