60


C     7.0606000   -3.0536940    0.3435110  
C     6.2706510   -1.9291960    0.4124890  
C     4.9380500   -2.3149740    0.0548110  
C     4.9884860   -3.6998710   -0.2326920  
N     6.2867280   -4.1236500   -0.0393290  
C     3.8795720   -4.4435890   -0.6614610  
C     2.6826550   -3.7718220   -0.8178540  
O     1.5727070   -4.4361820   -1.2397980  
C     2.5752230   -2.3798960   -0.5409770  
O     1.3316930   -1.8964460   -0.7385630  
C     3.6870790   -1.6185730   -0.0804530  
H     6.6325820   -0.9440540    0.6591610  
H     6.6175090   -5.0649980   -0.1830360  
H     3.9339710   -5.5055730   -0.8797630  
H     0.8594920   -3.7728760   -1.2920880  
H     1.3627540   -0.9018560   -0.5662170  
H     8.1171290   -3.1739130    0.5358340  
C     3.5250810   -0.2295830    0.2482400  
C     4.3632150    0.6742870    0.8731010  
C     3.6589320    1.9099880    0.9386860  
C     2.3282170    1.6289010    0.2977280  
N     2.2691960    0.3935780   -0.1001370  
C     1.3055100    2.6400680    0.1513220  
C     1.6326340    3.8755640    0.6262040  
O     0.8178880    4.9266220    0.5855030  
C     2.9682180    4.1936690    1.2863920  
O     3.1035700    5.3608720    1.6735330  
C     3.9589310    3.1526440    1.4184900  
H     5.3439560    0.4939970    1.2806760  
H     1.3407880    5.6544720    1.0055560  
H     4.9042930    3.4055620    1.8870350  
C    -1.8655860   -0.1278140    1.3007560  
C    -2.8203180    0.0374710    0.3312240  
C    -2.2264180    1.0578020   -0.5691020  
C    -0.9092140    1.3720310    0.0558660  
N    -0.7151870    0.6688310    1.1405890  
C     0.0050980    2.3549610   -0.4932460  
C    -0.4209390    3.0202720   -1.6037680  
O     0.2976950    3.9594970   -2.2334680  
C    -1.7505200    2.7435080   -2.2408860  
O    -2.0490920    3.3961880   -3.2398110  
C    -2.6409010    1.7125130   -1.6687480  
H    -0.2624730    4.2503640   -2.9876050  
H    -3.5744380    1.5227600   -2.1829300  
H    -1.8974690   -0.8238990    2.1298780  
C    -5.6825490   -1.2155900    3.4809670  
C    -4.6494600   -0.6562040    2.7967280  
C    -4.8428620   -0.9510700    1.3937590  
C    -6.0982480   -1.7308470    1.3149240  
N    -6.5423590   -1.8770900    2.6135460  
C    -6.6736800   -2.1879210    0.1696160  
C    -6.0225380   -1.8732390   -1.0856960  
O    -6.4535520   -2.2071480   -2.1794810  
C    -4.6849630   -1.0403570   -1.0429860  
O    -4.1564170   -0.7729530   -2.1089140  
C    -4.1137140   -0.6245540    0.2671640  
H    -3.8486640   -0.0748110    3.2257720  
H    -7.5951480   -2.7611560    0.1500840  
H    -5.8919910   -1.1998910    4.5421520  
H    -7.4043110   -2.3287090    2.8761660  
