64


C     2.1080250   -0.6798610    0.5011240  
C     3.3734120   -0.1802250    0.3021400  
C     3.2005780    1.2176420   -0.0481820  
C     1.8109630    1.4915530   -0.0321900  
N     1.1524950    0.3114820    0.3038030  
C     1.2841060    2.7560390   -0.3198720  
C     2.1795400    3.7625940   -0.6479430  
O     1.7195370    5.0137100   -0.9347660  
C     3.5753230    3.5029360   -0.6909150  
O     4.3355230    4.6005200   -1.0427590  
C     4.0921840    2.2542790   -0.3986460  
H     0.2207010    2.9663310   -0.3047630  
H     2.4910890    5.5583280   -1.1684730  
H     5.2658990    4.3404520   -1.1160090  
H     5.1636980    2.0760580   -0.4420030  
H     1.7964250   -1.6787090    0.7704050  
C    -0.8996730   -0.1771510    1.5908970  
C    -0.2373060    0.1411180    0.4415960  
C    -1.2237470    0.2122130   -0.6273150  
C    -2.5231960   -0.0877990    0.0103820  
N    -2.2557110   -0.3088880    1.3537090  
C    -3.7267230   -0.1480120   -0.6305300  
C    -3.7082670    0.1485420   -2.0827030  
O    -4.7210560    0.2349600   -2.7521490  
C    -2.3222540    0.4055010   -2.7864520  
O    -2.3044690    0.5628890   -3.9968040  
C    -1.1149710    0.4489040   -1.9612150  
H    -0.1660620    0.6517980   -2.4467110  
H    -0.4946590   -0.3232400    2.5833880  
H    -2.9488780   -0.6050500    2.0241920  
C    -5.7842270    1.9202420    2.7108920  
C    -6.8617570    1.0815550    2.8093810  
C    -6.6957310    0.0584190    1.8141840  
C    -5.4780380    0.3299590    1.1394950  
N    -4.9287340    1.4576670    1.7229430  
C    -4.9941100   -0.4505070    0.0662910  
C    -5.7873410   -1.5373530   -0.3104880  
O    -5.3638300   -2.3658780   -1.3020160  
C    -7.0058830   -1.8230310    0.3578520  
O    -7.6546190   -2.9416970   -0.1309190  
C    -7.4637950   -1.0500770    1.4080330  
H    -7.6806500    1.1779620    3.5090550  
H    -4.1582240    1.9805270    1.3351880  
H    -6.0849980   -2.9937170   -1.4830810  
H    -8.5440190   -2.9917700    0.2492290  
H    -8.4003810   -1.2950090    1.9048490  
H    -5.5381350    2.8103220    3.2726180  
C     4.7357870   -4.1158240   -1.4020840  
C     4.0096850   -2.9973230   -1.0865260  
C     4.8231240   -2.1930830   -0.2166520  
C     6.0510850   -2.8852940   -0.0448510  
N     5.9667440   -4.0547260   -0.7737600  
C     7.1052950   -2.3862910    0.7300610  
C     6.9094440   -1.1611040    1.3461300  
O     7.8948390   -0.6255570    2.1283150  
C     5.6908440   -0.4532250    1.1901010  
O     5.6511500    0.7394660    1.8924690  
C     4.6348340   -0.9372570    0.4191770  
H     3.0167720   -2.7642680   -1.4433220  
H     6.6955770   -4.7463750   -0.8488670  
H     8.0439990   -2.9141300    0.8643960  
H     7.5411610    0.2030670    2.4956350  
H     4.7560380    1.1119170    1.8282030  
H     4.4812410   -4.9589850   -2.0287770  
