64


C    -3.4150000   -0.0299000   -0.0259370  
C    -3.7361680    1.1090090   -0.7246280  
C    -5.1081080    1.4323330   -0.4475450  
C    -5.5953170    0.4456270    0.4413000  
N    -4.5749000   -0.4876560    0.6460690  
C    -6.8941640    0.4639890    0.9534650  
C    -7.7269640    1.4986710    0.5476800  
O    -9.0034280    1.5658650    1.0201410  
C    -7.2631450    2.4847440   -0.3623990  
O    -8.2102250    3.4373700   -0.6793830  
C    -5.9738170    2.4620240   -0.8639340  
H    -3.0804040    1.6213650   -1.4149700  
H    -4.4822770   -0.9551260    1.5413640  
H    -7.2706010   -0.2882950    1.6390440  
H    -9.4200740    2.3486760    0.6199190  
H    -7.8303140    4.0834710   -1.2929880  
H    -5.6384170    3.2305320   -1.5572700  
C     0.9394980    1.1239150   -0.0705510  
C    -0.4559270    1.1363030   -0.0386060  
C    -0.8909050   -0.2088000   -0.0111570  
C     0.2828180   -1.0298690   -0.0102240  
N     1.3616430   -0.1947680   -0.0619090  
C     0.2550840   -2.4453810    0.0190790  
C    -1.0268130   -2.9896210    0.0271830  
O    -1.1876710   -4.3567300    0.0045450  
C    -2.2098570   -2.2036290    0.0329890  
O    -3.3623390   -2.9605570    0.0312900  
C    -2.1832370   -0.8126220    0.0169560  
H    -1.0760490    2.0202870   -0.0253160  
H     2.3386270   -0.4564920   -0.0313660  
H    -2.1487520   -4.5272470   -0.0029850  
H    -4.1294620   -2.3704530   -0.1033270  
C     4.0037480   -2.3161500    2.5075810  
C     2.7414970   -2.1094850    2.0150080  
C     2.5689140   -2.9967400    0.8942770  
C     3.7773620   -3.7339280    0.7698530  
N     4.6326130   -3.2911800    1.7577660  
C     3.9698620   -4.7330670   -0.1907970  
C     2.9035010   -5.0063540   -1.0308190  
O     3.0060360   -5.9803580   -1.9772060  
C     1.6830260   -4.2845940   -0.9341860  
O     0.7379020   -4.6597010   -1.8688940  
C     1.4957930   -3.2591010   -0.0045520  
H     2.0159140   -1.4171270    2.4163890  
H     5.5637260   -3.6416460    1.9182190  
H     4.8922700   -5.2976770   -0.2808600  
H     2.1383380   -5.9996420   -2.4242410  
H    -0.1187990   -4.7535670   -1.4020890  
H     4.5117590   -1.8481080    3.3388010  
C     1.8996180    2.1771160   -0.1029390  
C     1.7303740    3.5437480   -0.1156740  
C     3.0487390    4.0969560   -0.1460190  
C     3.9580870    2.8959320   -0.1485570  
N     3.2844230    1.7829260   -0.1232890  
C     5.3896790    3.0346830   -0.1758930  
C     5.8913810    4.2919070   -0.1989650  
O     7.1957250    4.5857700   -0.2252420  
C     5.0014560    5.5246360   -0.1969370  
O     5.5843940    6.6142460   -0.2192680  
C     3.5596800    5.3606520   -0.1694780  
H     0.7992210    4.0925850   -0.1048750  
H     6.0251320    2.1561440   -0.1787510  
H     7.2250860    5.5722700   -0.2377530  
H     2.9513090    6.2595330   -0.1686910  
