66


C     2.1859500   -0.3158560   -0.0578540  
C     0.9495870   -0.7718400    0.3542400  
C     0.6146520   -1.9162630   -0.4440950  
C     1.6993600   -2.1299530   -1.3340250  
N     2.6513470   -1.1643420   -1.0612190  
C     1.7241280   -3.1695840   -2.2696600  
C     0.6237300   -4.0122790   -2.3117320  
O     0.5782430   -5.0310690   -3.2199060  
C    -0.4678270   -3.8242600   -1.4258970  
O    -1.4940040   -4.7311600   -1.6046080  
C    -0.5006600   -2.7959630   -0.4802510  
H     0.3756200   -0.3701960    1.1766910  
H     3.4227430   -0.9325190   -1.6687940  
H     2.5498120   -3.3285080   -2.9558870  
H    -0.2913850   -5.4572240   -3.1223140  
H    -2.2743660   -4.4173950   -1.1152100  
C     2.4765650    2.0321360    0.8236680  
C     2.9750510    0.8226790    0.3841460  
C     4.4176920    0.9266290    0.4585290  
C     4.7191350    2.2242440    0.9449350  
N     3.5176250    2.8690840    1.1631690  
C     6.0300630    2.6710910    1.1520190  
C     7.0598760    1.7876300    0.8700850  
O     8.3561360    2.1717540    1.0541280  
C     6.7783430    0.4772380    0.3999640  
O     7.9070800   -0.2898860    0.1798090  
C     5.4825500    0.0405290    0.1946660  
H     3.4149860    3.8123640    1.5031860  
H     6.2619490    3.6629830    1.5263810  
H     8.9165020    1.4082660    0.8318770  
H     7.6453760   -1.1967150   -0.0377310  
H     5.2948130   -0.9779270   -0.1382160  
H     1.4516220    2.3656800    0.9045170  
C    -3.2470330    0.7114340    0.1581530  
C    -2.2805650   -0.1644910   -0.3093100  
C    -2.4095060   -1.3850690    0.4174630  
C    -3.5017690   -1.2211720    1.3103190  
N    -3.9824800    0.0565360    1.1382090  
C    -3.9265850   -2.2387740    2.1739330  
C    -3.2199680   -3.4311180    2.1466200  
O    -3.5738690   -4.4521130    2.9817790  
C    -2.1139710   -3.6065640    1.2723240  
O    -1.4955470   -4.8358780    1.3943350  
C    -1.6874330   -2.6066690    0.3968860  
H    -1.5950660    0.0113480   -1.1236390  
H    -4.8177520    0.4492010    1.5467260  
H    -4.7591570   -2.1226670    2.8600230  
H    -2.9231360   -5.1637250    2.8504940  
H    -0.6521670   -4.8091980    0.9106870  
C    -0.4832330    3.7338280   -1.4702910  
C    -1.3787270    4.7650990   -1.5822320  
C    -2.6437320    4.2764990   -1.1111460  
C    -2.4531910    2.9214510   -0.7337610  
N    -1.1269970    2.6185740   -0.9686000  
C    -3.4829020    2.1081920   -0.1972390  
C    -4.7145950    2.7469110   -0.0152750  
O    -5.7707300    2.0587030    0.5355780  
C    -4.9191970    4.0962000   -0.3897100  
O    -6.2062880    4.5464480   -0.1475410  
C    -3.9126380    4.8644180   -0.9419340  
H    -1.1657460    5.7576320   -1.9549840  
H    -0.6813460    1.7503010   -0.7104730  
H    -6.5305580    2.6670430    0.5435020  
H    -6.3001020    5.4499650   -0.4828370  
H    -4.0950390    5.9003960   -1.2198640  
H     0.5688680    3.6894220   -1.7148760  
