62


C     6.3679610    0.6268360   -0.8356740  
C     6.9817460   -0.5476470   -0.5130910  
C     6.1317910   -1.2348910    0.4211760  
C     4.9957480   -0.4131210    0.6308490  
N     5.1442990    0.7237570   -0.1661480  
C     3.9866120   -0.7483660    1.5464760  
C     4.1088100   -1.9542440    2.2276630  
O     3.1538750   -2.3188700    3.1306540  
C     5.2222840   -2.8011550    2.0027690  
O     5.1985090   -3.9651850    2.7457790  
C     6.2316460   -2.4496170    1.1225770  
H     7.9382170   -0.8846630   -0.8883720  
H     3.1662220   -0.0834180    1.7960430  
H     3.4333750   -3.1664380    3.5182670  
H     6.0225230   -4.4555690    2.6086860  
H     7.0915510   -3.1022400    0.9847960  
H     6.6813500    1.4268580   -1.4875150  
C     0.8540690    0.5624100   -0.9801350  
C     0.6214200    1.9106480   -0.9257310  
C     1.8695280    2.5918720   -0.7112920  
C     2.8911000    1.5321320   -0.6133090  
N     2.2527220    0.3101230   -0.8594580  
C     4.2059550    1.7575200   -0.3379060  
C     4.6498670    3.1685240   -0.2438000  
O     5.8166990    3.4756120   -0.0779020  
C     3.5709800    4.3041270   -0.3950400  
O     3.9490600    5.4636590   -0.3081220  
C     2.1902020    3.9157420   -0.6279430  
H    -0.3304910    2.3881130   -1.1067290  
H     1.4492160    4.7035480   -0.7176840  
H     2.5560120   -0.5039390   -0.3254560  
C    -3.4420920   -0.1086350    0.1685240  
C    -2.1709020    0.4145830    0.0191290  
C    -1.4081940   -0.5075160   -0.7610100  
C    -2.2659170   -1.5960860   -1.0642010  
N    -3.5000820   -1.3164790   -0.5142030  
C    -1.8504840   -2.7172450   -1.7881320  
C    -0.5334690   -2.7482600   -2.2206310  
O    -0.0833770   -3.8133840   -2.9383200  
C     0.3525030   -1.6769320   -1.9403170  
O     1.6033980   -1.8560460   -2.4762470  
C    -0.0571800   -0.5432370   -1.2182240  
H    -1.8429570    1.3657100    0.4114150  
H    -4.2585800   -1.9769820   -0.4357950  
H    -2.5108350   -3.5455970   -2.0231160  
H     0.8440960   -3.6327570   -3.1726280  
H     2.1406090   -1.0507930   -2.3455700  
C    -4.5396760    1.1510730    2.0465690  
C    -4.5853160    0.4111740    0.8975420  
C    -6.0001930    0.2716060    0.5549940  
C    -6.7580860    0.9889440    1.6115440  
N    -5.8098460    1.5149620    2.4674460  
C    -8.1107910    1.0782720    1.6633240  
C    -8.8913140    0.4383520    0.6074140  
O   -10.1116400    0.4558310    0.5761790  
C    -8.1111020   -0.2982880   -0.5407570  
O    -8.7401520   -0.8270760   -1.4426690  
C    -6.6446710   -0.3252680   -0.4818260  
H    -8.6442730    1.6086580    2.4461420  
H    -6.1250770   -0.8169730   -1.2980110  
H    -3.6720310    1.4481530    2.6203310  
H    -6.0165680    2.0156090    3.3177100  
