62


C    -5.4670020   -0.4058650    2.6860460  
C    -4.7995850   -0.5449900    1.4906070  
C    -5.7372800   -1.0468300    0.5198070  
C    -6.9714740   -1.1933450    1.1996890  
N    -6.7719730   -0.8067540    2.5127960  
C    -8.1287820   -1.6635730    0.5657260  
C    -8.0332640   -1.9881660   -0.7776660  
O    -9.1290630   -2.4450810   -1.4449000  
C    -6.7994330   -1.8483700   -1.4732470  
O    -6.8693410   -2.2172190   -2.8002670  
C    -5.6585490   -1.3874290   -0.8453860  
H    -7.4805310   -0.7967380    3.2298310  
H    -9.0782770   -1.7750540    1.0789810  
H    -8.8649650   -2.5943710   -2.3694660  
H    -6.0314690   -2.0141950   -3.2422860  
H    -4.7256730   -1.2865200   -1.3946070  
H    -5.1073160   -0.0484210    3.6400790  
C    -2.3682400   -0.9529700    1.8881470  
C    -1.1665610   -0.4505300    1.5001350  
C    -1.4259480    0.6279310    0.5736170  
C    -2.9007640    0.7229480    0.4717170  
N    -3.4269600   -0.2781730    1.2810700  
C    -3.5772610    1.6425380   -0.2665500  
C    -2.7999670    2.6145290   -1.0121290  
O    -3.2960770    3.5089810   -1.6819260  
C    -1.2280090    2.5224970   -0.9529970  
O    -0.5919680    3.3254370   -1.6163370  
C    -0.5873920    1.4745750   -0.1198640  
H    -0.1989310   -0.7825920    1.8426960  
H    -4.6596710    1.6894490   -0.3068590  
H    -2.5917250   -1.7636110    2.5687540  
C     1.5226720    0.1270280   -0.1200010  
C     0.8688940    1.3326050   -0.0999660  
C     1.9053330    2.3574370   -0.0274590  
C     3.1557250    1.7013030    0.0115300  
N     2.9032650    0.3055650   -0.0615380  
C     4.3638950    2.3932360    0.1242730  
C     4.3024120    3.7796610    0.1938880  
O     5.4548780    4.4989260    0.2939710  
C     3.0580650    4.4512080    0.1566360  
O     3.1519370    5.8243460    0.2310100  
C     1.8650110    3.7566990    0.0532560  
H     5.3151350    1.8823960    0.1488140  
H     5.2083720    5.4401670    0.2981830  
H     2.2823190    6.2178960    0.0632280  
H     0.9222060    4.2892010   -0.0015380  
H     1.1119650   -0.8634050   -0.2287050  
C     3.7944830   -0.7358620   -0.0854330  
C     3.5098150   -2.0900720   -0.1367490  
C     4.7779690   -2.7336130   -0.1448560  
C     5.7736170   -1.6012750   -0.0906210  
N     5.1801210   -0.4389740   -0.0557600  
C     7.1875930   -1.8348230   -0.0807090  
C     7.5968290   -3.1266250   -0.1218350  
O     8.8718000   -3.5142340   -0.1188990  
C     6.6189190   -4.2976610   -0.1766240  
O     7.1356750   -5.4208470   -0.2094850  
C     5.1987830   -4.0330810   -0.1861250  
H     2.5454160   -2.5737890   -0.1653910  
H     7.8833260   -1.0042430   -0.0422980  
H     8.8269360   -4.5014560   -0.1553470  
H     4.5259660   -4.8835300   -0.2264950  
