60


C    -7.7575800   -1.3530720    1.0648410  
C    -6.4049670   -1.2734830    0.8638780  
C    -6.1208640    0.0451930    0.3738510  
C    -7.3637470    0.7310610    0.3110040  
N    -8.3420390   -0.1473320    0.7260330  
C    -7.4868320    2.0660080   -0.0873230  
C    -6.3184270    2.7388910   -0.4047590  
O    -6.3620600    4.0444870   -0.7876170  
C    -5.0566680    2.0935270   -0.3321540  
O    -3.9987620    2.8954010   -0.7115510  
C    -4.9290360    0.7424170    0.0219490  
H    -5.6983340   -2.0724500    1.0275980  
H    -9.3223360    0.0715610    0.8057410  
H    -8.4404870    2.5817080   -0.1378460  
H    -5.4338290    4.3017690   -0.9457200  
H    -3.3050820    2.8315890   -0.0227180  
H    -8.3618970   -2.1766500    1.4180020  
C    -3.5287430   -2.9951870   -1.8383400  
C    -2.2357090   -3.0572860   -1.4358590  
C    -2.0333520   -1.8705860   -0.6206930  
C    -3.3681970   -1.1858560   -0.6375060  
N    -4.2273190   -1.8510080   -1.3520760  
C    -3.6066790    0.0888600    0.0361150  
C    -2.4965240    0.6353900    0.6122390  
O    -2.5192590    1.8317460    1.2621820  
C    -1.1582340   -0.0110100    0.6650460  
O    -0.2826230    0.5710850    1.3062350  
C    -0.9461600   -1.3368840    0.0048710  
H    -1.4931730   -3.7956380   -1.6991150  
H    -1.6063410    1.9425740    1.6176560  
H    -4.0621910   -3.6896090   -2.4764040  
C     0.3582250   -1.9775760    0.0680540  
C     0.6343710   -3.3130560    0.1610650  
C     2.0766360   -3.4176100    0.1780830  
C     2.5522500   -2.0021250    0.0858880  
N     1.5554700   -1.1773130    0.0191640  
C     3.9808710   -1.6640190    0.0651270  
C     4.8321230   -2.7397440    0.1115940  
O     6.1761250   -2.6403240    0.0974200  
C     4.3722280   -4.1603930    0.2020760  
O     5.2464410   -5.0309390    0.2436530  
C     2.9373650   -4.4565830    0.2360110  
H    -0.0681100   -4.1286530    0.2547360  
H     6.4983250   -3.5725880    0.1463940  
H     2.6408900   -5.4992490    0.2941810  
C     4.4263230   -0.2837690    0.0144030  
C     3.6800400    0.8729820    0.0694020  
C     4.5878250    1.9844940    0.0015190  
C     5.9512620    1.4073920   -0.1002750  
N     5.7862290    0.0426960   -0.0927570  
C     7.0903480    2.1431540   -0.1806430  
C     6.9807670    3.5975870   -0.1690360  
O     7.9475600    4.3420650   -0.2377720  
C     5.5447630    4.2321550   -0.0635620  
O     5.4326700    5.4487730   -0.0522620  
C     4.3911820    3.3330840    0.0176690  
H     2.6064090    0.9140340    0.1580470  
H     8.0803880    1.7038060   -0.2538010  
H     3.4046360    3.7806330    0.0904660  
H     6.5248480   -0.6442170   -0.1092730  
