60


C     5.1474510   -2.1654010   -1.2201580  
C     4.8846800   -1.0430420   -0.4319370  
C     6.1850420   -0.5415840   -0.0061560  
C     7.1577580   -1.4140270   -0.5519600  
N     6.4866880   -2.3797730   -1.2917060  
C     8.5307760   -1.2814510   -0.3285930  
C     8.9438550   -0.2322390    0.4782410  
O    10.2675520   -0.0455140    0.7273040  
C     7.9882890    0.6501570    1.0466990  
O     8.5458430    1.6418260    1.8253310  
C     6.6317750    0.5083740    0.8199370  
H     6.9303570   -3.0875560   -1.8583470  
H     9.2652790   -1.9571620   -0.7541080  
H    10.3485950    0.7407770    1.2951880  
H     7.8542890    2.2534550    2.1195780  
H     5.9294270    1.2154930    1.2453520  
H     4.4518320   -2.7745680   -1.7782970  
C     0.9999330   -3.1227020    0.1932760  
C     2.3279050   -2.8774860    0.0727170  
C     2.4489810   -1.4348890   -0.0840230  
C     1.0577140   -0.9442590   -0.0503430  
N     0.2201500   -1.9437850    0.1179210  
C     0.7103180    0.4706660   -0.1769150  
C     1.7807880    1.3223900   -0.0908950  
O     1.6562430    2.6522170    0.0127350  
C     3.2046810    0.8621850   -0.0856380  
O     4.0653790    1.7401880   -0.0147220  
C     3.5311060   -0.5964190   -0.1865170  
H     3.1388410   -3.5873010    0.1457030  
H     2.5713470    3.0077410   -0.0181590  
H     0.5007990   -4.0705870    0.3511160  
C    -3.3333680   -0.6820320    1.3063060  
C    -4.0553480    0.3544410    0.7823250  
C    -3.1408420    1.1712300    0.0063640  
C    -1.8142740    0.5278240    0.1622300  
N    -2.0013880   -0.5759460    0.9743420  
C    -0.6469730    0.9987130   -0.3872050  
C    -0.8290460    2.1018470   -1.3772210  
O     0.0191690    2.3971640   -2.1976510  
C    -2.1934340    2.8758920   -1.4278760  
O    -2.2490540    3.9160340   -2.0652650  
C    -3.3328770    2.3021760   -0.7246860  
H    -4.2943940    2.7991680   -0.8066610  
H    -3.6840200   -1.5081480    1.9110270  
H    -1.3212650   -1.3503710    0.9018740  
C    -5.9977470    1.7237240    1.5364380  
C    -7.3524430    1.6785290    1.5227620  
C    -7.7362710    0.4407060    0.8779380  
C    -6.4709100   -0.2396680    0.5052320  
N    -5.4354200    0.5887270    0.9351600  
C    -6.4046850   -1.4361860   -0.1306700  
C    -7.6540060   -2.1120320   -0.4718760  
O    -7.6911440   -3.1915280   -1.0428130  
C    -9.0070000   -1.4135250   -0.0782980  
O   -10.0605680   -1.9691640   -0.3475620  
C    -8.9444570   -0.1166740    0.6004250  
H    -8.0228390    2.4255650    1.9224180  
H    -5.4698860   -1.9141550   -0.4030340  
H    -9.8839370    0.3612140    0.8613000  
H    -5.3362240    2.4806650    1.9366580  
