60


C     5.8226660   -2.9376960   -2.5153170  
C     4.9314850   -2.0954860   -1.8983230  
C     5.6372900   -1.4207520   -0.8479370  
C     6.9786610   -1.8964640   -0.8918480  
N     7.0541700   -2.8281500   -1.9060730  
C     7.9833460   -1.4290130   -0.0452580  
C     7.6387990   -0.4261010    0.8525000  
O     8.5759020    0.0772960    1.6950440  
C     6.3219580    0.0945620    0.9076530  
O     6.1525190    1.0624010    1.8731710  
C     5.2893450   -0.4077740    0.1012170  
H     3.8905590   -1.9855770   -2.1628620  
H     7.8908610   -3.3163730   -2.1851060  
H     9.0041180   -1.7958500   -0.0788890  
H     8.1255150    0.7760080    2.2077410  
H     5.6658430    1.8047270    1.4555960  
H     5.6755540   -3.6165080   -3.3433030  
C     1.3247190   -2.4339360    0.4000020  
C     2.6582430   -2.2046730    0.3743820  
C     2.8045380   -0.7600620    0.2500050  
C     1.4084740   -0.2609960    0.2132110  
N     0.5515380   -1.2395110    0.2963410  
C     1.0934190    1.1684920    0.1091550  
C     2.1871560    1.9998790    0.1237720  
O     2.1013220    3.3470170    0.0756500  
C     3.5870950    1.5147060    0.2225680  
O     4.4535070    2.4078340    0.2958590  
C     3.8981530    0.0634670    0.2062130  
H     3.4613400   -2.9219790    0.4480580  
H     3.0340410    3.6629960    0.1317060  
H     0.8047470   -3.3785480    0.4971390  
C    -0.2647340    1.6478090    0.0181400  
C    -1.4442700    0.9133610   -0.0376780  
C    -2.5309840    1.8183500   -0.1371220  
C    -1.9324560    3.1722720   -0.1635530  
N    -0.5729160    3.0021530   -0.0414750  
C    -2.6260030    4.3338290   -0.2842330  
C    -4.0677680    4.2550610   -0.4374290  
O    -4.7910580    5.2329000   -0.5409000  
C    -4.7333830    2.8340250   -0.4861250  
O    -5.9293250    2.7947770   -0.7563160  
C    -3.9144810    1.6318570   -0.2155940  
H    -1.4656600   -0.1616380   -0.0398280  
H    -2.1584330    5.3131510   -0.2763500  
H     0.1220250    3.7344030   -0.0526370  
C    -4.5563730    0.3484110   -0.0530500  
C    -4.0669650   -0.8297740    0.4974180  
C    -5.1144540   -1.8018990    0.4713100  
C    -6.2911220   -1.1281840   -0.1318000  
N    -5.8858450    0.1508520   -0.4303270  
C    -7.4969950   -1.7234940   -0.3199070  
C    -7.6582530   -3.1158680    0.0876200  
O    -8.7046030   -3.7332340   -0.0444610  
C    -6.4231430   -3.8511520    0.7259740  
O    -6.5399170   -5.0188460    1.0708210  
C    -5.1770820   -3.1036160    0.8829780  
H    -3.0911030   -0.9781620    0.9307250  
H    -8.3493050   -1.2147940   -0.7592090  
H    -4.3307350   -3.6185400    1.3276820  
H    -6.4560470    0.9232830   -0.7543400  
