60


C     5.2183770   -0.2748700    0.0150470  
C     6.1024830   -1.3401300   -0.2019350  
C     7.4178370   -0.8615700    0.0238120  
C     7.3024590    0.5162950    0.3790130  
N     5.9708460    0.8367590    0.3632490  
C     8.4144730    1.3135490    0.6757380  
C     9.6608220    0.7121700    0.6185270  
O    10.7747300    1.4350740    0.8979800  
C     9.7961900   -0.6679280    0.2689340  
O    11.1037970   -1.1011570    0.2610270  
C     8.7027790   -1.4517250   -0.0250570  
H     5.8269120   -2.3673400   -0.3952490  
H     5.5339720    1.7083800    0.6368080  
H     8.3332230    2.3606120    0.9465160  
H    11.5419400    0.8422240    0.8113100  
H    11.1385300   -2.0434150    0.0383400  
H     8.8278100   -2.4997240   -0.2886610  
C     2.2905420   -2.8675760   -1.9890530  
C     1.1417580   -2.2903220   -1.5318570  
C     1.5252530   -1.1728520   -0.7099350  
C     2.9906210   -1.1519050   -0.6969110  
N     3.4013290   -2.2330270   -1.4643950  
C     3.7789060   -0.2219900   -0.0524980  
C     3.0289800    0.9003000    0.5666840  
O     3.5651690    1.9173250    0.9812450  
C     1.4617670    0.8149180    0.7078110  
O     0.9053990    1.6501300    1.4041920  
C     0.7773150   -0.2449980   -0.0148890  
H     0.1336770   -2.6012780   -1.7617610  
H     2.4143720   -3.7080290   -2.6590630  
H     4.3357880   -2.3081640   -1.8404690  
C    -1.3120930   -1.3768940    0.7333420  
C    -2.6592720   -1.1653350    0.7326210  
C    -2.9020410    0.0801510    0.0592380  
C    -1.5688500    0.5929190   -0.3274680  
N    -0.6317870   -0.3558550    0.0850180  
C    -1.3428490    1.7523240   -0.9925020  
C    -2.4897550    2.5899710   -1.3066290  
O    -2.4097110    3.6339930   -1.9327100  
C    -3.9056960    2.1287590   -0.8111970  
O    -4.8237500    2.9308790   -0.9315120  
C    -4.0662670    0.7758730   -0.2309160  
H    -3.3907450   -1.7951200    1.2121260  
H    -0.3571400    2.0896440   -1.2902230  
H    -0.7473410   -2.1893480    1.1710330  
C    -5.3965220    0.2471800    0.0138350  
C    -5.8152630   -1.0601560    0.1779490  
C    -7.2403970   -1.0557000    0.3377160  
C    -7.6585630    0.3664290    0.2521160  
N    -6.5053870    1.0944650    0.0727590  
C    -8.9457630    0.7900000    0.3422580  
C    -9.9937270   -0.2061810    0.5391930  
O   -11.1784920    0.0806090    0.6313950  
C    -9.5723870   -1.7194190    0.6370430  
O   -10.4397870   -2.5657130    0.8038010  
C    -8.1544030   -2.0517590    0.5230410  
H    -5.1978950   -1.9422120    0.1203070  
H    -9.2345020    1.8342570    0.2753900  
H    -7.8749850   -3.0991530    0.5890320  
H    -6.4277410    2.0759870   -0.1636140  
