60


C     5.9913710   -1.7455750   -1.5218930  
C     5.4649190   -0.8941540   -0.5518670  
C     6.6037220   -0.1937240    0.0257870  
C     7.7605310   -0.6866990   -0.6256330  
N     7.3453280   -1.6188030   -1.5668140  
C     9.0598410   -0.2784690   -0.3099930  
C     9.2027690    0.6574390    0.7023730  
O    10.4412920    1.0989630    1.0518390  
C     8.0595430    1.1587910    1.3786760  
O     8.3577170    2.0810560    2.3597920  
C     6.7790560    0.7479820    1.0588540  
H     7.9491660   -2.0831330   -2.2287670  
H     9.9383510   -0.6643290   -0.8165020  
H    10.3270480    1.7469480    1.7688820  
H     7.5376450    2.4148670    2.7532090  
H     5.9243780    1.1705990    1.5745230  
H     5.4662600   -2.3847270   -2.2162390  
C     2.1657570   -3.8826450   -0.5809530  
C     3.4052160   -3.3329770   -0.5476500  
C     3.1906770   -1.9027130   -0.3646380  
C     1.7224390   -1.7667570   -0.2907580  
N     1.1305800   -2.9241160   -0.4350550  
C     1.0473420   -0.4766080   -0.0870820  
C     1.8959170    0.5826060    0.0912370  
O     1.4843290    1.8390870    0.3762890  
C     3.3812770    0.4717040    0.0374720  
O     4.0139050    1.5097400    0.2551970  
C     4.0420660   -0.8326860   -0.2799540  
H     4.3574720   -3.8410650   -0.5931760  
H     2.3184660    2.3554830    0.4639320  
H     1.8961520   -4.9264140   -0.6855390  
C    -1.2565160   -1.4278390    0.2955540  
C    -0.4065760   -0.4046230   -0.0306330  
C    -1.3161270    0.7227270   -0.3471440  
C    -2.6842450    0.1688850   -0.1172240  
N    -2.6237760   -1.0752900    0.2617700  
C    -3.9030950    0.9582000   -0.3187540  
C    -3.6996320    2.2327970   -0.7843850  
O    -4.6841830    3.1178620   -1.0454440  
C    -2.3458780    2.7898630   -1.0649170  
O    -2.2917930    3.9465850   -1.4923050  
C    -1.1495290    1.9707040   -0.8240920  
H    -4.2144680    3.9252850   -1.3655090  
H    -0.1882230    2.4276710   -1.0160290  
H    -0.9809520   -2.4390350    0.5518320  
C    -5.2198560    0.4043700   -0.0487920  
C    -5.5662180   -0.8453160    0.4120590  
C    -6.9986920   -0.8963850    0.5157270  
C    -7.4970280    0.4316930    0.0783200  
N    -6.3827100    1.1661160   -0.2468060  
C    -8.8096820    0.7806680    0.0343290  
C    -9.8046510   -0.2043210    0.4403710  
O   -11.0071500    0.0166660    0.4350370  
C    -9.2991940   -1.6197430    0.9082140  
O   -10.1195250   -2.4578530    1.2523290  
C    -7.8579310   -1.8771350    0.9121230  
H    -4.8678830   -1.6325230    0.6431640  
H    -9.1563050    1.7575690   -0.2884440  
H    -7.5196890   -2.8567010    1.2362480  
H    -6.3756610    2.1169410   -0.5835440  
