62


C     3.5414940   -1.3688100   -1.9907450  
C     4.7445500   -2.0122710   -1.9936990  
C     5.4418310   -1.6185970   -0.7994880  
C     4.6050040   -0.7096530   -0.1054750  
N     3.4302810   -0.5652130   -0.8514720  
C     4.9606010   -0.1596060    1.1309040  
C     6.1906840   -0.5163700    1.6619060  
O     6.5862160   -0.0002860    2.8629240  
C     7.0459520   -1.4143560    0.9730620  
O     8.2356110   -1.6735290    1.6285340  
C     6.6861170   -1.9668160   -0.2426890  
H     5.1048760   -2.6786780   -2.7659120  
H     4.3350580    0.5436060    1.6658670  
H     7.4767390   -0.3459250    3.0446610  
H     8.7900990   -2.2419490    1.0741650  
H     7.3502540   -2.6637070   -0.7506030  
H     2.7452720   -1.3657370   -2.7204440  
C    -0.8159540   -1.5813000   -0.7553990  
C     0.5530700   -1.6270620   -0.8117560  
C     1.0289380   -0.2916400   -0.6012850  
C    -0.1722130    0.5616200   -0.4475690  
N    -1.2607310   -0.2740450   -0.5862430  
C    -0.1628760    1.9227710   -0.2468780  
C     1.1729590    2.4759070    0.0813070  
O     1.3311650    3.5425480    0.6475480  
C     2.4616780    1.6483390   -0.2547710  
O     3.5313120    2.2336450   -0.2714030  
C     2.3060160    0.2162160   -0.5372780  
H     1.1591070   -2.5127840   -0.9204510  
H    -2.1720680    0.0264720   -0.2271150  
C    -4.3796580    1.5957880    1.2703380  
C    -4.7880050    2.8780350    1.1580950  
C    -3.6822430    3.5856070    0.5267360  
C    -2.6162170    2.5412350    0.3503830  
N    -3.0523520    1.3847730    0.7719750  
C    -1.3138940    2.8408300   -0.2303150  
C    -1.2034920    4.1032420   -0.7648090  
O    -0.1447680    4.5130690   -1.4685320  
C    -2.2614770    5.1571200   -0.6262400  
O    -2.0399480    6.2597770   -1.1266060  
C    -3.5180030    4.8412860    0.0735270  
H    -5.7375270    3.3045490    1.4494490  
H    -0.3144120    5.4587130   -1.6789200  
H    -4.2596300    5.6297410    0.1557620  
H    -4.9182690    0.7449050    1.6709000  
C    -1.4805060   -3.7309060   -1.7352040  
C    -2.5418090   -4.5815420   -1.6785650  
C    -3.4970740   -4.0214740   -0.7584960  
C    -2.9534560   -2.8062640   -0.2765130  
N    -1.7096550   -2.6279520   -0.9007890  
C    -3.5924330   -2.0362090    0.7005110  
C    -4.8317270   -2.4711970    1.1473220  
O    -5.5037430   -1.7344670    2.0828950  
C    -5.4074700   -3.6669160    0.6521010  
O    -6.6408450   -3.9617170    1.1948010  
C    -4.7496620   -4.4477500   -0.2830120  
H    -2.6442820   -5.5007930   -2.2387910  
H    -3.1656610   -1.1386930    1.1304030  
H    -6.3333930   -2.2024420    2.2816610  
H    -6.9604580   -4.8057680    0.8428620  
H    -5.1930840   -5.3764660   -0.6358870  
H    -0.5797520   -3.7658390   -2.3292160  
