62


C     4.3355260    3.3544030    0.3284380  
C     3.2630180    2.5130090    0.0475960  
C     2.0572630    3.3256570    0.1688250  
C     2.4941520    4.6262800    0.5236210  
N     3.8781090    4.6032810    0.6075150  
C     1.6318720    5.7079480    0.7248830  
C     0.2803650    5.4718060    0.5599560  
O    -0.6191910    6.4734770    0.7415680  
C    -0.1998090    4.1808660    0.1858950  
O    -1.5567920    4.1650270    0.0569670  
C     0.6686010    3.1143450   -0.0142540  
H     4.4536850    5.3852620    0.8813740  
H     1.9830710    6.6985510    0.9948510  
H    -1.4970690    6.0847480    0.5664010  
H    -1.9266390    3.2936740   -0.2013780  
H     0.2685740    2.1549350   -0.3305080  
H     5.3877110    3.1174790    0.3854490  
C     3.4856120    1.1218310   -0.2498930  
C     4.6509450    0.5182740   -0.6766300  
C     4.4554710   -0.8937240   -0.6943300  
C     3.0498400   -1.1196260   -0.2683820  
N     2.5092930    0.1296930   -0.0633330  
C     2.4628690   -2.3525820   -0.0961900  
C     3.3646930   -3.4948160   -0.2388150  
O     3.0703940   -4.6350620    0.1323080  
C     4.7903940   -3.2944270   -0.8623820  
O     5.4325630   -4.2954070   -1.1553130  
C     5.2750160   -1.9400490   -1.0172690  
H     5.5563520    1.0331000   -0.9628330  
H     6.2871840   -1.7984370   -1.3824180  
H     1.6098420    0.2851960    0.3677410  
C    -1.1602610   -0.5419530   -1.9164730  
C     0.0979640   -1.0039240   -1.6735000  
C     0.0390950   -1.8186700   -0.4859930  
C    -1.3118370   -1.8501740   -0.0703540  
N    -2.0483870   -1.0508400   -0.9659440  
C    -1.7406770   -2.5699290    1.0471520  
C    -0.7764860   -3.3050960    1.7247930  
O    -1.1281220   -4.0625990    2.7980210  
C     0.5872190   -3.2901710    1.3311870  
O     1.4040420   -4.0549380    2.1203100  
C     1.0315680   -2.5109210    0.2576610  
H     0.9666320   -0.8141010   -2.2866110  
H    -2.7711900   -2.5996170    1.3799090  
H    -0.3075780   -4.5132440    3.0784440  
H     2.0728180   -4.4709290    1.5182890  
H    -1.5279460    0.0971110   -2.7047130  
C    -6.0216670   -2.8796790   -0.3679900  
C    -4.7025240   -2.6885380   -0.6396700  
C    -4.4535870   -1.2708690   -0.5541220  
C    -5.7461380   -0.6355950   -0.2044420  
N    -6.6534020   -1.6693340   -0.1036750  
C    -5.9498050    0.7011520   -0.0422420  
C    -4.8155600    1.5858470   -0.2149200  
O    -4.8627290    2.8040370   -0.1250400  
C    -3.4247130    0.9407540   -0.5582120  
O    -2.4428990    1.6694470   -0.6504300  
C    -3.3225440   -0.5149380   -0.7343780  
H    -3.9763620   -3.4508230   -0.8767490  
H    -6.9123720    1.1340810    0.2085790  
H    -6.5895840   -3.8000370   -0.3429870  
H    -7.6298010   -1.5573430    0.1206960  
