62


C     1.8113680   -4.9030260   -0.1761160  
C     0.7534330   -5.6055150   -0.6625740  
C    -0.4321890   -4.8021130   -0.4835030  
C    -0.0317750   -3.6014920    0.1421310  
N     1.3674830   -3.6599540    0.3098010  
C    -0.9511470   -2.6227780    0.5325950  
C    -2.2899220   -2.8229450    0.2186180  
O    -3.1921410   -1.8903900    0.6146770  
C    -2.7033440   -3.9998400   -0.4580420  
O    -4.0483420   -4.0632620   -0.7202900  
C    -1.7908740   -4.9906750   -0.7913980  
H     0.8059620   -6.5864550   -1.1150650  
H    -0.6820640   -1.7229840    1.0709020  
H    -3.9917380   -1.9196920    0.0555600  
H    -4.2340150   -4.8312610   -1.2813270  
H    -2.1285210   -5.9037350   -1.2771470  
H     2.8666390   -5.1302800   -0.1682150  
C     2.1975530   -2.6340460    0.6947490  
C     3.4564530   -2.6556520    1.2423770  
C     3.8844630   -1.2895070    1.3931200  
C     2.7691950   -0.4590890    0.8864860  
N     1.7607810   -1.3168930    0.5153810  
C     2.7618900    0.8999830    0.8085390  
C     3.9434110    1.6259300    1.2844860  
O     4.0351040    2.8413120    1.2676280  
C     5.1342520    0.7628470    1.8576770  
O     6.1243290    1.3524420    2.2647320  
C     5.0146490   -0.6942600    1.8712910  
H     3.9983320   -3.5353060    1.5558510  
H     5.8574810   -1.2595100    2.2563840  
H     1.0126260   -1.0570970   -0.1139110  
C     0.3783300    1.5421980    0.9244780  
C    -0.6357480    1.8041200    0.0250010  
C     0.0042860    1.9977580   -1.2607180  
C     1.3963330    1.8461790   -1.0606810  
N     1.6129790    1.5636280    0.2921490  
C     2.3310480    1.9650590   -2.0949920  
C     1.8436320    2.2493650   -3.3610670  
O     2.7041680    2.3715430   -4.4103320  
C     0.4484310    2.4108170   -3.5797190  
O     0.1193770    2.6856060   -4.8923390  
C    -0.4682710    2.2942260   -2.5533590  
H     3.3979590    1.8572950   -1.9356380  
H     2.1697790    2.5635460   -5.2004100  
H    -0.8447170    2.6970810   -4.9874110  
H    -1.5324220    2.3890440   -2.7468530  
H     0.3181580    1.2864420    1.9735330  
C    -2.8005470    3.9791650    3.1486810  
C    -4.0513110    3.4722120    2.9647080  
C    -3.9796950    2.5348920    1.8686360  
C    -2.5674310    2.5383020    1.4215370  
N    -1.8991630    3.4129740    2.2628730  
C    -2.0616900    1.8256520    0.3708730  
C    -3.0445400    1.0121140   -0.3765860  
O    -2.7877950    0.4575050   -1.4330920  
C    -4.4985320    0.8471100    0.2087250  
O    -5.2151820   -0.0262060   -0.2713160  
C    -4.9132020    1.7269110    1.2841100  
H    -4.9332400    3.7188300    3.5377020  
H    -5.9379440    1.6631920    1.6360730  
H    -2.4588450    4.7129300    3.8671070  
H    -0.9451720    3.7078690    2.1137050  
