62


C    -2.2729960   -1.6750960   -0.4148570  
C    -2.5872210   -2.9592480   -0.8309170  
C    -3.9540030   -3.1931290   -0.5123860  
C    -4.4450680   -2.0116970    0.1131690  
N    -3.4196010   -1.0905880    0.1292490  
C    -5.7564730   -1.8994790    0.5884870  
C    -6.5913400   -2.9919640    0.4164400  
O    -7.8751320   -2.9383420    0.8572900  
C    -6.1229270   -4.1778770   -0.2247040  
O    -7.0824810   -5.1622540   -0.3203570  
C    -4.8296430   -4.2884580   -0.6885250  
H    -1.9142940   -3.6296960   -1.3476830  
H    -3.4035060   -0.2706560    0.7228090  
H    -6.1358370   -1.0043420    1.0697010  
H    -8.2958320   -3.7893850    0.6424060  
H    -6.7117600   -5.9430820   -0.7579390  
H    -4.4906580   -5.2023320   -1.1712740  
C    -1.0426980   -0.9440070   -0.4970120  
C     0.2617840   -1.3693790   -0.6131280  
C     1.1154060   -0.2177590   -0.5494950  
C     0.2194570    0.9484630   -0.3842370  
N    -1.0550950    0.4475510   -0.3773100  
C     0.5832430    2.2717210   -0.2587870  
C     2.0126980    2.5089100   -0.3867970  
O     2.5237120    3.6291910   -0.4635600  
C     3.0123110    1.2928640   -0.4457820  
O     4.2044270    1.5571010   -0.4291960  
C     2.4884340   -0.0762700   -0.5669750  
H     0.5822510   -2.3994840   -0.6448900  
H    -1.8751560    1.0354820   -0.3828360  
C     3.2325830   -2.1989450   -1.6847780  
C     3.4040560   -1.2011200   -0.7649600  
C     4.6399020   -1.5280930   -0.0406970  
C     5.1448080   -2.7950770   -0.6266860  
N     4.2421410   -3.1459740   -1.6116570  
C     6.2718860   -3.4418290   -0.2338920  
C     7.0477620   -2.8761780    0.8629160  
O     8.0730350   -3.3846990    1.2913390  
C     6.5180600   -1.5531510    1.5243980  
O     7.1310790   -1.0764900    2.4657090  
C     5.2962500   -0.9365600    0.9884460  
H     6.6180270   -4.3650700   -0.6886600  
H     4.9745490   -0.0018990    1.4311820  
H     2.4505630   -2.3002670   -2.4253170  
H     4.3587050   -3.9198440   -2.2470970  
C    -2.9515210    2.6188770    2.5304690  
C    -1.7957400    2.2139140    1.9067960  
C    -1.4815890    3.1955540    0.8971650  
C    -2.4944220    4.1875120    0.9773030  
N    -3.3822210    3.7994790    1.9624590  
C    -2.4991310    5.3451520    0.1915160  
C    -1.4339240    5.5113440   -0.6765650  
O    -1.3496880    6.6217640   -1.4543260  
C    -0.4048310    4.5334220   -0.7906730  
O     0.5463540    4.8526640   -1.7251080  
C    -0.4186020    3.3468630   -0.0502440  
H    -1.2067390    1.3509170    2.1815900  
H    -4.1735720    4.3415600    2.2724270  
H    -3.2688270    6.1066990    0.2626300  
H    -0.5073220    6.5351060   -1.9422300  
H     1.4232170    4.5811540   -1.3544290  
H    -3.4898920    2.1746960    3.3560610  
