64


C     2.0975640   -0.6963020    0.4777490  
C     3.3635120   -0.1950700    0.2889410  
C     3.1927480    1.2064260   -0.0482420  
C     1.8034900    1.4815690   -0.0353020  
N     1.1429110    0.2978470    0.2853960  
C     1.2791400    2.7503430   -0.3091370  
C     2.1772840    3.7592370   -0.6229980  
O     1.7199920    5.0138080   -0.8965160  
C     3.5729510    3.4980100   -0.6644540  
O     4.3353690    4.5980870   -1.0017870  
C     4.0870220    2.2455880   -0.3836710  
H     0.2164000    2.9640250   -0.2904310  
H     2.4931360    5.5621490   -1.1158620  
H     5.2675680    4.3411110   -1.0618800  
H     5.1584460    2.0663790   -0.4241160  
H     1.7844230   -1.6977340    0.7353600  
C    -0.9178060   -0.2390960    1.5386950  
C    -0.2467750    0.1254790    0.4108320  
C    -1.2254260    0.2181100   -0.6642480  
C    -2.5306840   -0.1130750   -0.0493870  
N    -2.2660880   -0.4147610    1.2697750  
C    -3.7475750   -0.1277540   -0.6938840  
C    -3.6723770    0.0911320   -2.1404470  
O    -4.6230960   -0.0704730   -2.9067640  
C    -2.3099440    0.5232530   -2.8037750  
O    -2.3160960    0.8195280   -3.9864890  
C    -1.1041130    0.5258130   -1.9810630  
H    -0.1614310    0.7988820   -2.4426030  
H    -0.5268400   -0.4136650    2.5320430  
H    -2.9904430   -0.5198100    1.9668120  
C    -5.4480470    1.5781880    3.1049690  
C    -4.6791730    1.3380880    1.9930730  
C    -5.3137620    0.2780320    1.2513070  
C    -6.4842360   -0.0730660    1.9749360  
N    -6.5288650    0.7222460    3.1028840  
C    -7.3971240   -1.0366160    1.5336990  
C    -7.1294100   -1.6380290    0.3154860  
O    -7.9821810   -2.5662120   -0.1920650  
C    -5.9654890   -1.3124610   -0.4361640  
O    -5.8506840   -2.0296460   -1.6005000  
C    -5.0193530   -0.3891000    0.0216440  
H    -3.7924630    1.8904070    1.7166350  
H    -7.2722630    0.7191580    3.7837040  
H    -8.2954900   -1.2973960    2.0836780  
H    -7.6123790   -2.8132330   -1.0620910  
H    -5.5228070   -1.4076550   -2.2939390  
H    -5.3174720    2.3005110    3.8982950  
C     4.7300320   -4.1141480   -1.4496560  
C     4.0031640   -2.9985880   -1.1253480  
C     4.8139590   -2.2032030   -0.2449830  
C     6.0411870   -2.8974690   -0.0762200  
N     5.9589930   -4.0594000   -0.8171960  
C     7.0929280   -2.4067430    0.7072080  
C     6.8955320   -1.1879590    1.3353410  
O     7.8784630   -0.6611990    2.1262350  
C     5.6776950   -0.4779720    1.1824590  
O     5.6363230    0.7074820    1.8967420  
C     4.6242570   -0.9537750    0.4029340  
H     3.0113580   -2.7620190   -1.4828990  
H     6.6872260   -4.7513760   -0.8954280  
H     8.0309100   -2.9363800    0.8393980  
H     7.5239830    0.1632130    2.5021500  
H     4.7405440    1.0790250    1.8377080  
H     4.4771580   -4.9511800   -2.0851670  
