66


C    -4.7476980   -0.2181820    0.0086970  
C    -5.3411180   -1.4636960   -0.1503570  
C    -6.7548950   -1.2671630   -0.2212210  
C    -6.9823020    0.1306270   -0.0983860  
N    -5.7559800    0.7350250    0.0510200  
C    -8.2650450    0.6925460   -0.1344770  
C    -9.3374240   -0.1698550   -0.2979460  
O   -10.6099960    0.3246290   -0.3410600  
C    -9.1291540   -1.5704850   -0.4214290  
O   -10.2975010   -2.2958400   -0.5761650  
C    -7.8636670   -2.1237720   -0.3843820  
H    -4.8212390   -2.4004650   -0.2947900  
H    -5.5679390    1.7265160    0.0299060  
H    -8.4430570    1.7589710   -0.0418920  
H   -11.2071340   -0.4330050   -0.4651170  
H   -10.0814950   -3.2344550   -0.6769970  
H    -7.7309430   -3.1998210   -0.4818220  
C    -1.3185750   -2.5721970    1.4618150  
C    -0.3374080   -1.6449390    1.2300670  
C    -0.9786870   -0.4825610    0.6832120  
C    -2.3637430   -0.7746170    0.5938040  
N    -2.5385030   -2.0615060    1.0594330  
C    -3.3378970    0.1437160    0.1317760  
C    -2.8408930    1.4117370   -0.1926860  
O    -3.6932750    2.3974870   -0.6299300  
C    -1.4633960    1.7221110   -0.1090660  
O    -1.1636730    3.0099120   -0.5076720  
C    -0.5034630    0.8015390    0.3122810  
H     0.7186390   -1.7677160    1.4215140  
H    -3.4410240   -2.4606460    1.2681100  
H    -3.1392520    3.1627920   -0.8670940  
H    -0.1973800    3.0950000   -0.5830420  
H    -1.2522360   -3.5697510    1.8728010  
C     3.1299940   -0.7472070   -1.8650260  
C     1.8589310   -0.5393210   -1.4093310  
C     1.9168690    0.5183250   -0.4351940  
C     3.2682860    0.9288200   -0.3352660  
N     3.9917890    0.1402590   -1.2227580  
C     3.7066430    1.9526000    0.5093340  
C     2.7433290    2.5783110    1.2849700  
O     3.1010970    3.5743310    2.1447250  
C     1.3794270    2.1917610    1.2020720  
O     0.5463280    2.8986170    2.0443330  
C     0.9363430    1.1747490    0.3535240  
H     0.9754760   -1.0779440   -1.7201380  
H     4.7466350    2.2504720    0.5804870  
H     2.2979340    3.8366330    2.6278610  
H    -0.3200460    2.4559410    2.0658050  
H     3.5274150   -1.4440180   -2.5883940  
C     5.9692040    1.0363380   -2.3606500  
C     7.3197690    0.8463530   -2.2838860  
C     7.5622440   -0.1372510   -1.2612690  
C     6.3042600   -0.5207440   -0.7360800  
N     5.3436040    0.2113750   -1.4267750  
C     6.1517470   -1.4669870    0.2812920  
C     7.3081130   -2.0436360    0.7846340  
O     7.2265330   -2.9743680    1.7791780  
C     8.5823420   -1.6761700    0.2750720  
O     9.6351860   -2.3390690    0.8780050  
C     8.7212060   -0.7389850   -0.7320930  
H     8.0636890    1.3489530   -2.8869140  
H     5.1834820   -1.7511820    0.6778080  
H     8.1354820   -3.2457760    1.9943160  
H    10.4712150   -2.0284090    0.5005130  
H     9.7083820   -0.4743290   -1.1062280  
H     5.3693830    1.6799930   -2.9872750  
