62


C    -5.5700080    1.3867840   -1.5880060  
C    -6.9210510    1.4706490   -1.4029450  
C    -7.2858820    0.4584600   -0.4510360  
C    -6.0994890   -0.2278710   -0.0915630  
N    -5.0453560    0.3558780   -0.7982760  
C    -6.0842690   -1.2604320    0.8528920  
C    -7.2937860   -1.6181960    1.4273520  
O    -7.3355380   -2.6240370    2.3467710  
C    -8.4950640   -0.9487800    1.0702560  
O    -9.6136130   -1.4190850    1.7300390  
C    -8.5036690    0.0785860    0.1460910  
H    -7.5872150    2.1577440   -1.9072700  
H    -5.1853240   -1.8005550    1.1230140  
H    -8.2661900   -2.7443530    2.6026330  
H   -10.4035100   -0.9783570    1.3837410  
H    -9.4324560    0.5856160   -0.1078190  
H    -4.9204390    1.9206590   -2.2677010  
C    -1.7673530    2.9744900    0.1256440  
C    -0.7063690    2.1107320   -0.0161460  
C    -1.2858830    0.8055870   -0.3574680  
C    -2.7478290    1.0104380   -0.4063770  
N    -2.9667400    2.3428190   -0.1062930  
C    -3.6747670    0.0507230   -0.6962440  
C    -3.1726500   -1.3047960   -0.9919060  
O    -3.8993420   -2.2299230   -1.3059780  
C    -1.6180490   -1.5448740   -0.9045850  
O    -1.1990080   -2.6715410   -1.1170160  
C    -0.7409190   -0.4195330   -0.5796020  
H     0.3267200   -0.5883510   -0.5229870  
H    -1.7534260    4.0266580    0.3769040  
H    -3.8824180    2.7658570   -0.0521760  
C     0.6882720    2.4449540    0.1373140  
C     1.2682670    3.6243970    0.5236680  
C     2.6885660    3.3947900    0.4868550  
C     2.8303160    1.9674090    0.0421030  
N     1.6639410    1.4274460   -0.1511530  
C     4.1316650    1.3127080   -0.1222730  
C     5.2088910    2.1168160    0.1383940  
O     6.4921780    1.7199390   -0.0013580  
C     5.0961540    3.5378510    0.5867930  
O     6.1495830    4.1573820    0.7802810  
C     3.7761900    4.1500090    0.7589520  
H     0.7820270    4.5459090    0.8137040  
H     7.0175480    2.5185080    0.2379820  
H     3.7412700    5.1837740    1.0882500  
C     3.2924520   -0.7030240   -1.3774650  
C     4.2061460   -0.0877690   -0.5341880  
C     5.1632880   -1.1167680   -0.1638000  
C     4.7638440   -2.3093620   -0.8187000  
N     3.6337130   -2.0148760   -1.5610020  
C     5.4309620   -3.5297910   -0.6703490  
C     6.5334920   -3.5561100    0.1691380  
O     7.2268240   -4.7174390    0.3520690  
C     6.9453420   -2.3788210    0.8437690  
O     8.0558970   -2.5569540    1.6494680  
C     6.2799110   -1.1761150    0.6943180  
H     3.0962380   -2.6815390   -2.0940360  
H     5.1154680   -4.4371230   -1.1752040  
H     7.9550310   -4.5209010    0.9663750  
H     8.3022700   -1.7078730    2.0449980  
H     6.6303500   -0.2899090    1.2118330  
H     2.4289800   -0.2802180   -1.8646920  
