64


C     5.2001680    0.3724270   -2.8075610  
C     4.5594860   -0.0139850   -1.6539710  
C     5.5668210   -0.4701710   -0.7307890  
C     6.8120950   -0.3320760   -1.3940740  
N     6.5567170    0.1703310   -2.6555930  
C     8.0275640   -0.6840000   -0.7925490  
C     7.9806680   -1.1833800    0.4990860  
O     9.1353930   -1.5357770    1.1350090  
C     6.7385190   -1.3327760    1.1742840  
O     6.8580250   -1.8494150    2.4507790  
C     5.5404100   -0.9878020    0.5793680  
H     7.2549340    0.3785810   -3.3516770  
H     8.9849440   -0.5769950   -1.2922960  
H     8.8904630   -1.8399550    2.0260210  
H     5.9931880   -1.8327750    2.8867390  
H     4.5997960   -1.1072740    1.1112470  
H     4.7883460    0.7777950   -3.7202480  
C     2.2317580   -0.6643320   -2.2455400  
C     0.9655400   -0.4205420   -1.7872520  
C     1.0890110    0.4318430   -0.6380110  
C     2.4742000    0.6809620   -0.4563900  
N     3.1634320   -0.0070650   -1.4495120  
C     2.9695250    1.5190690    0.5506130  
C     2.0424240    2.0982330    1.4021990  
O     2.4650870    2.9115020    2.4178630  
C     0.6548840    1.8519240    1.2485280  
O    -0.1257560    2.4777820    2.2054580  
C     0.1482340    1.0320530    0.2398020  
H     0.0499030   -0.7945910   -2.2225440  
H     4.0265260    1.7236600    0.6764830  
H     1.6679310    3.2070660    2.8906570  
H    -1.0613470    2.2797210    2.0336190  
H     2.5762210   -1.2681930   -3.0729310  
C    -1.9078730   -0.4424680    0.0098930  
C    -1.3013970    0.7859440    0.1205620  
C    -2.3723290    1.7641870    0.0865770  
C    -3.5943160    1.0590950   -0.0434670  
N    -3.2919120   -0.3017590   -0.0915700  
C    -4.8343910    1.7051600   -0.0858430  
C    -4.8385530    3.0898620   -0.0206830  
O    -6.0208150    3.7659570   -0.0614140  
C    -3.6219070    3.8157000    0.0804040  
O    -3.7892100    5.1849460    0.1188910  
C    -2.3980490    3.1749070    0.1323230  
H    -5.7710020    1.1744260   -0.2018570  
H    -5.8122670    4.7160740   -0.0524970  
H    -2.9234150    5.6189350    0.0926700  
H    -1.4764410    3.7483870    0.1954660  
H    -1.4595160   -1.4240580   -0.0489260  
C    -3.6593580   -3.7181130    2.5365310  
C    -4.6494740   -4.3866950    1.8907980  
C    -5.0292650   -3.5937060    0.7397410  
C    -4.1628080   -2.3929270    0.7735900  
N    -3.3514480   -2.5306860    1.8796360  
C    -4.2009710   -1.3795440   -0.1425870  
C    -5.1623150   -1.5015140   -1.2529500  
O    -5.2432020   -0.6867240   -2.1550280  
C    -6.1212910   -2.7537470   -1.2694290  
O    -6.9633400   -2.8196790   -2.1506530  
C    -5.9658170   -3.7695890   -0.2320140  
H    -5.0795480   -5.3341820    2.1805090  
H    -6.6178360   -4.6364280   -0.2699650  
H    -3.1233890   -3.9857470    3.4374500  
H    -2.6616300   -1.8529300    2.1669760  
