60


C    -4.4612230   -2.6639120    2.5383010  
C    -5.3013280   -3.4288060    1.7733990  
C    -5.7335320   -2.6127070    0.6730440  
C    -5.1079460   -1.3484000    0.8234030  
N    -4.3229830   -1.4133590    1.9592280  
C    -5.3190620   -0.2668250   -0.0595460  
C    -6.1932320   -0.5041470   -1.1233680  
O    -6.4107690    0.4720490   -2.0447600  
C    -6.8236640   -1.7646080   -1.2886620  
O    -7.6425040   -1.8311350   -2.4010430  
C    -6.6046620   -2.8131070   -0.4156350  
H    -5.5830810   -4.4542650    1.9697200  
H    -3.8717180   -0.6202970    2.3881080  
H    -7.1117120    0.1558780   -2.6412180  
H    -8.1666500   -2.6448800   -2.3681020  
H    -7.0994580   -3.7700870   -0.5687800  
H    -3.9344180   -2.9045250    3.4509690  
C    -1.0646740    0.8516620    0.0649990  
C    -1.2056460    2.2091100    0.2663880  
C    -2.6097520    2.5030450    0.3264120  
C    -3.3137160    1.2139890    0.1517770  
N    -2.3298220    0.2580290    0.0148890  
C    -4.6698200    1.0483840    0.1209480  
C    -5.4842330    2.2685580    0.3206930  
O    -6.6980170    2.2477860    0.4149510  
C    -4.7521160    3.6549390    0.4629400  
O    -5.4279280    4.6679930    0.5618390  
C    -3.2912300    3.6753750    0.4773090  
H    -0.3916820    2.9100330    0.3506190  
H    -2.7947630    4.6343250    0.5893520  
H    -2.4928470   -0.7189270   -0.1826120  
C     3.1445320    2.0841830    0.1551050  
C     3.8047350    0.8992120   -0.0204430  
C     2.7284610   -0.0998480   -0.1459690  
C     1.4726820    0.6919180   -0.0098680  
N     1.7425640    1.9597810    0.1586020  
C     0.1509840    0.0692660   -0.0845400  
C     0.1549650   -1.2877270   -0.3122420  
O    -0.9608010   -2.0348880   -0.4127970  
C     1.3983970   -2.0889870   -0.4816140  
O     1.2765350   -3.2997370   -0.6844920  
C     2.7082950   -1.4224130   -0.3974520  
H    -0.6468330   -2.9543290   -0.5798570  
H     3.5895140   -2.0359950   -0.5553560  
H     3.5823080    3.0629070    0.3087020  
C     5.2273760    0.6791280   -0.0851760  
C     6.2203400    1.5345610   -0.4928480  
C     7.4824820    0.8592750   -0.3558240  
C     7.1708600   -0.4876710    0.1797820  
N     5.7845590   -0.5656510    0.2644720  
C     8.1005690   -1.4163670    0.5053400  
C     9.5115930   -1.0928010    0.2870900  
O    10.4161330   -1.8689310    0.5491440  
C     9.8636000    0.3126860   -0.3232690  
O    11.0356140    0.5927700   -0.5235830  
C     8.7660830    1.2353840   -0.6158980  
H     6.0684040    2.5212210   -0.9068440  
H     7.8563350   -2.3954360    0.9063090  
H     9.0211160    2.2107650   -1.0188360  
H     5.3284290   -1.1893370    0.9159660  
