62


C    -5.7560570    3.3970600    1.1101080  
C    -4.9883150    2.4214800    0.5236030  
C    -5.7537410    1.2006410    0.5440920  
C    -6.9962700    1.5162350    1.1552190  
N    -6.9603370    2.8523180    1.5023400  
C    -8.0331760    0.5894510    1.3050640  
C    -7.8132960   -0.6799270    0.7973280  
O    -8.7821890   -1.6288820    0.8822810  
C    -6.5799620   -1.0320580    0.1805010  
O    -6.5315690   -2.3395010   -0.2346630  
C    -5.5176360   -0.1282880    0.0734780  
H    -4.0127680    2.5748880    0.0847840  
H    -7.7243990    3.3629500    1.9166500  
H    -8.9853140    0.8347070    1.7642210  
H    -8.4197500   -2.4139340    0.4272810  
H    -6.0807830   -2.3483210   -1.1132630  
H    -5.5451350    4.4446290    1.2722400  
C    -1.5166770    0.5554320    1.7039670  
C    -0.7304800    0.0375290    0.7162800  
C    -1.6447970   -0.4818330   -0.2989740  
C    -3.0166450   -0.2062130    0.1899190  
N    -2.8644170    0.3938940    1.4195520  
C    -4.1901480   -0.5162390   -0.4612140  
C    -4.0192250   -1.2950330   -1.6887450  
O    -4.9499810   -1.8182130   -2.3033870  
C    -2.5768280   -1.5379200   -2.2710380  
O    -2.4785970   -2.0878420   -3.3549670  
C    -1.4247720   -1.1216990   -1.4767310  
H    -0.4339930   -1.3232050   -1.8692940  
H    -1.2124740    1.0402060    2.6224630  
H    -3.6235370    0.8483110    1.9085270  
C     1.5166750   -0.5555370    1.7039260  
C     0.7304860   -0.0375350    0.7162830  
C     1.6448120    0.4819210   -0.2989140  
C     3.0166550    0.2062630    0.1899690  
N     2.8644170   -0.3939770    1.4195350  
C     4.1901620    0.5163480   -0.4611250  
C     4.0192500    1.2952970   -1.6885560  
O     4.9500210    1.8184960   -2.3031610  
C     2.5768590    1.5382700   -2.2708320  
O     2.4786470    2.0881480   -3.3547840  
C     1.4247950    1.1218980   -1.4766150  
H     0.4340190    1.3234840   -1.8691430  
H     1.2124650   -1.0404050    2.6223690  
H     3.6235350   -0.8484340    1.9084750  
C     5.7558910   -3.3971710    1.1098200  
C     4.9881900   -2.4214970    0.5234170  
C     5.7536830   -1.2007020    0.5440010  
C     6.9961980   -1.5164120    1.1550940  
N     6.9602000   -2.8525250    1.5020940  
C     8.0331520   -0.5896910    1.3050120  
C     7.8133360    0.6797390    0.7973830  
O     8.7822780    1.6286380    0.8824110  
C     6.5800190    1.0319870    0.1805870  
O     6.5317120    2.3394530   -0.2345020  
C     5.5176430    0.1282810    0.0735020  
H     4.0126270   -2.5748120    0.0846000  
H     7.7242370   -3.3632290    1.9163610  
H     8.9852790   -0.8350330    1.7641470  
H     8.4198830    2.4137420    0.4274680  
H     6.0808880    2.3483710   -1.1130830  
H     5.5449140   -4.4447430    1.2718600  
