62


C     4.3667350   -0.7777610   -1.8853750  
C     5.1435350   -1.8989830   -1.8037080  
C     5.9106500   -1.7984760   -0.5934740  
C     5.5581700   -0.5729110    0.0254670  
N     4.6021450    0.0462780   -0.7806040  
C     6.0959850   -0.1681280    1.2525270  
C     7.0185340   -1.0086720    1.8548660  
O     7.5786270   -0.6578300    3.0496230  
C     7.3907610   -2.2354270    1.2443160  
O     8.3187710   -2.9626820    1.9672480  
C     6.8504550   -2.6367490    0.0371790  
H     5.1813720   -2.6977160   -2.5322970  
H     5.8435880    0.7735530    1.7241640  
H     8.2157790   -1.3543050    3.2834410  
H     8.5844270   -3.7416710    1.4568840  
H     7.1425750   -3.5849810   -0.4102520  
H     3.6862320   -0.4508020   -2.6591020  
C     0.3491850    0.8324790   -0.6064980  
C     0.4102820    2.1979930   -0.4169870  
C     1.7931950    2.5843710   -0.3516540  
C     2.5652360    1.3334290   -0.5176000  
N     1.6460340    0.3210290   -0.6591390  
C     3.9294730    1.2599770   -0.5300410  
C     4.6813520    2.5189540   -0.3739090  
O     5.8976780    2.5752470   -0.4211790  
C     3.8655870    3.8491790   -0.1465310  
O     4.4930340    4.8806380    0.0468660  
C     2.4115930    3.7875620   -0.1722220  
H    -0.4246910    2.8824550   -0.4247350  
H     1.8631750    4.7149160   -0.0393850  
H     1.8589550   -0.6409680   -0.8829980  
C    -3.7464950    1.3537020    0.9093620  
C    -4.3123900    0.2092860    0.3780730  
C    -3.2377330   -0.4759450   -0.3155860  
C    -2.0753920    0.3206750   -0.1844390  
N    -2.4175600    1.4315320    0.5575100  
C    -0.8137890   -0.0360350   -0.7272810  
C    -0.7701260   -1.2789180   -1.3771490  
O     0.4019160   -1.7463870   -1.8991720  
C    -1.9299650   -2.0760010   -1.5266130  
O    -1.7020070   -3.2495770   -2.2167780  
C    -3.1555640   -1.6885160   -1.0252840  
H    -1.7444230    2.0599850    0.9709900  
H     0.2190240   -2.6321300   -2.2639880  
H    -2.4550810   -3.8488320   -2.1020860  
H    -4.0214630   -2.3324300   -1.1269250  
H    -4.1839020    2.0981500    1.5598240  
C    -7.9482780    2.6361760    0.0938250  
C    -8.8856490    1.6937090    0.3721170  
C    -8.1893670    0.4440990    0.5917450  
C    -6.7480520    0.7412250    0.4247420  
N    -6.6674750    2.0987470    0.1626900  
C    -5.7251000   -0.1680560    0.5067920  
C    -6.1344450   -1.5610680    0.7780140  
O    -5.3415600   -2.4873760    0.8542370  
C    -7.6635910   -1.8926780    0.9841050  
O    -7.9714580   -3.0537600    1.2068910  
C    -8.6322000   -0.8108320    0.8796690  
H    -9.9542070    1.8442980    0.4217240  
H    -9.6823440   -1.0492580    1.0153270  
H    -8.0775430    3.6849830   -0.1393940  
H    -5.8290260    2.5395150   -0.1869650  
