60


C     3.3030210    4.3583300   -0.5419310  
C     2.5410690    5.4017340   -0.1233070  
C     1.3241640    4.8574520    0.4253490  
C     1.4043570    3.4481060    0.3212970  
N     2.6438510    3.1456900   -0.2861090  
C     0.3694450    2.6121440    0.7525380  
C    -0.7576630    3.2187380    1.2951530  
O    -1.8016030    2.4418130    1.7181950  
C    -0.8499330    4.6263320    1.4089450  
O    -2.0335270    5.0732500    1.9608390  
C     0.1795500    5.4490350    0.9817800  
H     2.8122520    6.4469740   -0.1843780  
H     0.4443540    1.5346800    0.7007770  
H    -2.4439030    3.0341720    2.1469970  
H    -1.9643700    6.0185570    2.1618280  
H     0.0961850    6.5302060    1.0686730  
H     4.2870400    4.3491800   -0.9832560  
C     3.1553630    1.9199820   -0.6416980  
C     4.2631330    1.6664930   -1.4204090  
C     4.3632390    0.2446900   -1.4677760  
C     3.2048620   -0.2466940   -0.6287940  
N     2.5049010    0.7532420   -0.1627160  
C     2.9608690   -1.6528430   -0.3956770  
C     3.8183800   -2.5045760   -1.0368950  
O     3.7101360   -3.8268830   -0.9898550  
C     4.9804290   -2.0398950   -1.9052760  
O     5.6596170   -2.9344900   -2.4162270  
C     5.2159670   -0.6224610   -2.0781290  
H     4.9094620    2.3705490   -1.9219280  
H     4.4708930   -4.1635690   -1.5230630  
H     6.0603310   -0.3160550   -2.6865870  
C    -1.4872670   -1.1003380   -0.0732810  
C    -0.1703410   -1.0415870   -0.4476540  
C     0.5935490   -1.8585500    0.4560020  
C    -0.3882630   -2.4337280    1.4072580  
N    -1.6383010   -1.9921550    0.9986260  
C    -0.0819900   -3.2398610    2.4522260  
C     1.3167130   -3.5917970    2.6565430  
O     1.6964460   -4.3259240    3.5554340  
C     2.3838480   -3.0009420    1.6660770  
O     3.5606000   -3.2320110    1.8876980  
C     1.9299390   -2.1575230    0.5343270  
H     0.2198380   -0.4960720   -1.2926240  
H    -0.8245310   -3.6534850    3.1276410  
H    -2.4308730   -1.9569560    1.6240850  
C    -2.6017520    0.8751930   -1.1217180  
C    -2.6304420   -0.3964920   -0.6117090  
C    -4.0170010   -0.8488340   -0.6938010  
C    -4.7778460    0.2720040   -1.3000710  
N    -3.8506990    1.2726540   -1.5457800  
C    -6.1104610    0.2588810   -1.5443720  
C    -6.8678020   -0.9422860   -1.1929150  
O    -8.0716060   -1.0418850   -1.3651370  
C    -6.0815240   -2.1526690   -0.5715270  
O    -6.6912210   -3.1684950   -0.2810980  
C    -4.6352830   -2.0123750   -0.3614240  
H    -6.6451200    1.0905440   -1.9928880  
H    -4.1057500   -2.8668800    0.0473470  
H    -1.7608130    1.5528760   -1.1810050  
H    -4.0759700    2.1922880   -1.8933430  
