60


C     4.3022540   -1.8764500   -2.1708620  
C     4.2371530   -1.1019030   -1.0311160  
C     5.5352960   -1.1986750   -0.3970420  
C     6.3313640   -2.0461420   -1.2081070  
N     5.5503770   -2.4465580   -2.2759350  
C     7.6549540   -2.3766450   -0.8919340  
C     8.1865530   -1.8430020    0.2710300  
O     9.4727640   -2.1249790    0.6236230  
C     7.3999730   -1.0043240    1.1062620  
O     8.0637570   -0.5654600    2.2347610  
C     6.0920220   -0.6853850    0.7928230  
H     5.8642530   -3.0191020   -3.0439660  
H     8.2659780   -3.0217240   -1.5149480  
H     9.6568200   -1.6452810    1.4499050  
H     7.5203890    0.0880130    2.6997670  
H     5.5093770   -0.0517680    1.4568270  
H     3.5519720   -2.0389880   -2.9318950  
C     1.7788530   -0.8397430   -0.5331900  
C     3.0568800   -0.3712560   -0.5747730  
C     2.9909800    1.0206170   -0.1341570  
C     1.5687480    1.3039220    0.1751290  
N     0.8599510    0.1411380   -0.1223080  
C     1.1190880    2.4800870    0.6822460  
C     2.0783370    3.5629110    0.8909910  
O     1.7623590    4.6495220    1.3505720  
C     3.5781660    3.3053600    0.5041330  
O     4.3924370    4.2026580    0.6522520  
C     3.9442060    1.9788490   -0.0036300  
H     0.0828030    2.6611990    0.9443940  
H     4.9862080    1.7995560   -0.2466870  
H     1.4085340   -1.8246570   -0.7834400  
C    -1.0807340   -1.1710240    0.6859930  
C    -0.5041710   -0.0954690    0.0865460  
C    -1.6262690    0.6890350   -0.4627720  
C    -2.8304510   -0.0870140   -0.0434920  
N    -2.4965850   -1.1634780    0.6163150  
C    -4.1757200    0.3433840   -0.3782740  
C    -4.2757070    1.4730810   -1.1404230  
O    -5.4451020    2.0130850   -1.5046470  
C    -3.0789550    2.2390140   -1.6152770  
O    -3.2686440    3.2442460   -2.2971090  
C    -1.7233530    1.7838730   -1.2365430  
H    -5.2195780    2.7899350   -2.0619760  
H    -0.8827770    2.3736020   -1.5876710  
H    -0.5815330   -1.9959990    1.1800770  
C    -5.8502840   -1.0162240    3.5250450  
C    -5.0841510   -0.4541300    2.5555260  
C    -5.6905880   -0.7762860    1.2825880  
C    -6.8976400   -1.5824720    1.5976430  
N    -6.9304820   -1.6971240    2.9729610  
C    -7.7720590   -2.0679220    0.6798870  
C    -7.5147890   -1.7896750   -0.7251450  
O    -8.2480820   -2.1620140   -1.6281040  
C    -6.2236880   -0.9725540   -1.0970040  
O    -5.9580570   -0.8178290   -2.2756700  
C    -5.3609020   -0.4527120   -0.0055930  
H    -4.1785050    0.1119290    2.7050790  
H    -8.6573510   -2.6398670    0.9402010  
H    -5.7195860   -0.9975120    4.5989690  
H    -7.6534570   -2.1677650    3.4936620  
