62


C    -5.5284120    0.6594150    2.5886220  
C    -6.8016300    0.1645940    2.5693250  
C    -6.8922320   -0.7370160    1.4538920  
C    -5.6225280   -0.7502760    0.8246400  
N    -4.7923260    0.1170530    1.5334950  
C    -5.3389650   -1.5459190   -0.2920030  
C    -6.3645530   -2.3333810   -0.7924870  
O    -6.1424540   -3.1265470   -1.8811300  
C    -7.6463790   -2.3267240   -0.1816470  
O    -8.5600340   -3.1636800   -0.7941370  
C    -7.9180520   -1.5461390    0.9268460  
H    -7.5902280    0.4189490    3.2643470  
H    -4.3670220   -1.5625930   -0.7721080  
H    -6.9809710   -3.5751720   -2.0856450  
H    -9.4225020   -3.0717530   -0.3631760  
H    -8.9059730   -1.5627670    1.3830770  
H    -5.0603610    1.3774870    3.2468250  
C    -2.3809360    0.1223510    2.0648650  
C    -3.4433410    0.3923520    1.2559060  
C    -2.9300420    1.0700690    0.0718550  
C    -1.4673680    1.1614110    0.2667020  
N    -1.1944740    0.5446130    1.4787370  
C    -0.5941720    1.7606680   -0.5951270  
C    -1.1746810    2.3260870   -1.8354190  
O    -0.4874770    2.7775470   -2.7330850  
C    -2.7350680    2.2813610   -2.0289970  
O    -3.2169240    2.8107600   -3.0167560  
C    -3.5449810    1.5964210   -1.0188670  
H    -4.6188180    1.5487670   -1.1664780  
H    -2.3760440   -0.3612410    3.0324400  
H    -0.3128830    0.6373400    1.9617010  
C     2.4891770   -1.3524840   -0.1309970  
C     3.5957510   -0.5787520    0.0589400  
C     3.1348050    0.8096580    0.0092430  
C     1.6724620    0.7612790   -0.2132350  
N     1.3361840   -0.5777760   -0.2544730  
C     0.8574230    1.8494090   -0.3605050  
C     1.4984920    3.1767790   -0.2564420  
O     0.8642580    4.2168870   -0.2675880  
C     3.0568010    3.2440180   -0.0624780  
O     3.5960650    4.3381520   -0.0311560  
C     3.8000230    1.9899190    0.0835810  
H     4.8709990    2.0475520    0.2411060  
H     2.4156650   -2.4323040   -0.1490910  
H     0.4386350   -0.9201880   -0.5629420  
C     6.0613390   -3.2537990   -2.4396230  
C     7.1828950   -3.2659700   -1.6533650  
C     6.9127160   -2.4285300   -0.5183210  
C     5.5908090   -1.9370870   -0.6716460  
N     5.0894400   -2.4696630   -1.8424420  
C     4.9778620   -1.0561900    0.2450540  
C     5.7543620   -0.6753460    1.3409030  
O     5.2301650    0.1624690    2.2852180  
C     7.0773010   -1.1586940    1.5092110  
O     7.6936030   -0.6868320    2.6538330  
C     7.6599100   -2.0272360    0.6063030  
H     8.0959140   -3.8086650   -1.8562000  
H     4.2216260   -2.1864060   -2.2706230  
H     5.9278330    0.3177460    2.9459860  
H     8.6033920   -1.0165890    2.6920110  
H     8.6760740   -2.3842100    0.7611460  
H     5.8625310   -3.7490880   -3.3795520  
