62


C     3.1335130    0.9729260   -0.0787990  
C     1.7683850    1.1119810   -0.2179250  
C     1.4390820    2.4841810    0.0115460  
C     2.6617130    3.1568330    0.2792590  
N     3.6731470    2.2119320    0.2720820  
C     2.7492890    4.5328310    0.4911580  
C     1.5688680    5.2584000    0.4122740  
O     1.5827310    6.6067960    0.5925620  
C     0.3302510    4.6217210    0.1462470  
O    -0.7480130    5.4831280    0.1446660  
C     0.2258700    3.2335400   -0.0236450  
H     1.0818150    0.2988910   -0.3966960  
H     4.6444260    2.4443170    0.1200570  
H     3.6859940    5.0413910    0.6953880  
H     0.6558930    6.8934140    0.4816930  
H    -1.2774220    5.3067520   -0.6619240  
C    -1.6879020   -0.1885950    1.9809860  
C    -2.8543170   -0.3372030    1.2939930  
C    -2.8208960    0.7527030    0.2949560  
C    -1.5136820    1.4302000    0.5289230  
N    -0.8772990    0.8831630    1.5248290  
C    -1.0828310    2.5924410   -0.2522430  
C    -2.0123990    3.0579670   -1.1385490  
O    -1.8062870    4.1528010   -1.9281960  
C    -3.3357450    2.4342970   -1.3641530  
O    -4.0821150    2.9399740   -2.2089180  
C    -3.7104890    1.2320010   -0.5921900  
H    -2.6302930    4.2286920   -2.4641670  
H    -4.6908110    0.8055450   -0.7797410  
H    -1.3260580   -0.7992050    2.7999000  
C    -4.4086360   -1.6269460    2.7855720  
C    -3.9316350   -1.2807080    1.5509650  
C    -4.6856330   -2.0808980    0.5847810  
C    -5.6359210   -2.9047100    1.3738310  
N    -5.4015490   -2.5894320    2.6991150  
C    -6.5253530   -3.7800140    0.8420320  
C    -6.5517270   -3.9481620   -0.6087530  
O    -7.3206140   -4.7063720   -1.1783750  
C    -5.5292270   -3.1157370   -1.4641230  
O    -5.5161790   -3.2564740   -2.6759840  
C    -4.6229150   -2.1943190   -0.7672910  
H    -7.2118490   -4.3713060    1.4402510  
H    -3.9198530   -1.6329840   -1.3738740  
H    -4.1131470   -1.2365970    3.7505150  
H    -5.9376770   -2.9410290    3.4772740  
C     3.9743710   -0.1946040   -0.1993750  
C     3.8150510   -1.3420990   -0.9486530  
C     4.9452930   -2.1842360   -0.6997070  
C     5.7819970   -1.4970570    0.2198220  
N     5.1945130   -0.2698610    0.4788350  
C     6.9760430   -2.0391320    0.7055750  
C     7.3417900   -3.2966110    0.2470670  
O     8.4964560   -3.8731720    0.6916470  
C     6.5279250   -3.9912490   -0.6868370  
O     7.0310730   -5.2258970   -1.0534400  
C     5.3469300   -3.4536050   -1.1636950  
H     3.0020470   -1.5298060   -1.6364930  
H     5.3948070    0.2822910    1.3004940  
H     7.6160840   -1.5198560    1.4116630  
H     8.5736180   -4.7371040    0.2512900  
H     6.4333410   -5.6407000   -1.6927170  
H     4.7385970   -4.0064050   -1.8769230  
