60


C    -2.5240290   -1.3214610   -1.6779820  
C    -3.7199490   -1.9686470   -1.5806610  
C    -3.5497500   -3.0474090   -0.6450470  
C    -2.2031830   -3.0147540   -0.2061590  
N    -1.5770880   -1.9450190   -0.8586050  
C    -1.7077040   -3.9004560    0.7560720  
C    -2.5819120   -4.8512470    1.2644180  
O    -2.1408680   -5.7421250    2.2018300  
C    -3.9273470   -4.9080760    0.8242600  
O    -4.6728470   -5.9081030    1.4201950  
C    -4.4174480   -4.0197360   -0.1171580  
H    -4.6247500   -1.7072710   -2.1121670  
H    -0.6835670   -3.8829890    1.1053540  
H    -2.8929890   -6.3160050    2.4274020  
H    -5.5795760   -5.8793180    1.0810150  
H    -5.4582190   -4.0673530   -0.4315650  
H    -2.2357530   -0.4666930   -2.2690280  
C    -0.0960590    2.0355150   -0.0651250  
C     1.2560640    1.7938410    0.0317270  
C     1.4246140    0.3899040   -0.1871410  
C     0.0294290   -0.1145330   -0.4239040  
N    -0.8432540    0.8444030   -0.3509870  
C    -0.2518520   -1.5129390   -0.6987280  
C     0.8286380   -2.3441670   -0.7709480  
O     0.7410200   -3.6534480   -1.0343350  
C     2.2317180   -1.8730580   -0.5158010  
O     3.1099350   -2.7369720   -0.5306460  
C     2.5058800   -0.4454530   -0.2475710  
H     2.0438290    2.5022770    0.2432020  
H     1.6673940   -3.9852770   -0.9843300  
C    -0.2546340    4.5046200    0.3160980  
C    -0.8162310    3.2706240    0.0706440  
C    -2.2664510    3.4937810   -0.0206380  
C    -2.4728140    4.9458400    0.1908880  
N    -1.2090210    5.4863410    0.3887960  
C    -3.6709240    5.5781940    0.1855340  
C    -4.8698870    4.7747190   -0.0488250  
O    -5.9939730    5.2492240   -0.0726410  
C    -4.6815040    3.2324160   -0.2795400  
O    -5.6664460    2.5444620   -0.4882390  
C    -3.3217220    2.6697990   -0.2412580  
H    -3.7867470    6.6456580    0.3462340  
H    -3.1993180    1.6041000   -0.3939150  
H     0.7897260    4.7564480    0.4454370  
H    -1.0227810    6.4637320    0.5578440  
C     4.8112760    1.6882560    2.9561480  
C     3.7862330    1.1223790    2.2733420  
C     4.3768740    0.6481790    1.0272750  
C     5.8206120    1.0260850    1.1472860  
N     6.0659890    1.6339850    2.2737470  
C     6.7776730    0.7091430    0.1202130  
C     6.3313100    0.0514290   -0.9744640  
O     7.1075940   -0.2962860   -2.0124580  
C     4.8823090   -0.3203200   -1.1445260  
O     4.5516210   -0.8135280   -2.2176190  
C     3.9012400   -0.0266530   -0.0520800  
H     2.7533960    1.0268330    2.5750980  
H     7.8165330    0.9961950    0.2387520  
H     6.5055520   -0.7215400   -2.6617370  
H     4.7797890    2.1525300    3.9349670  
