62


C     3.9684840    1.3051130   -0.0357280  
C     4.3428950    2.6324910   -0.0623870  
C     3.1475120    3.4151830   -0.0008470  
C     2.0574640    2.5059470    0.0351380  
N     2.5724680    1.2219300   -0.0284730  
C     0.7072250    2.9169380    0.0910440  
C     0.5018120    4.3026670    0.1992600  
O    -0.7519630    4.7979150    0.3759820  
C     1.5851910    5.2182430    0.1531940  
O     1.1912130    6.5413180    0.2415190  
C     2.8943100    4.7999410    0.0320040  
H     5.3554550    3.0010270   -0.1546720  
H     2.0755250    0.4955480    0.4889890  
H    -0.6737870    5.7676540    0.4087420  
H     1.9744080    7.1099040    0.2740650  
H     3.7066840    5.5226390   -0.0088450  
C    -0.1991000   -0.8892540    2.1586300  
C    -1.4790080   -1.1225170    1.7720820  
C    -1.7910030   -0.0704210    0.8245330  
C    -0.5527110    0.7772260    0.7926210  
N     0.3760790    0.2625200    1.5606800  
C    -0.4497140    1.9955660    0.0131780  
C    -1.5140070    2.2324780   -0.8185330  
O    -1.5505980    3.2293710   -1.7059720  
C    -2.7524380    1.3776020   -0.8577430  
O    -3.5910970    1.6629790   -1.7077960  
C    -2.8837040    0.2059320    0.0556190  
H    -2.1371920   -1.9128800    2.0998480  
H    -2.4168560    3.1334420   -2.1646200  
H     0.4011270   -1.4636330    2.8544950  
C    -4.1054120   -0.5832100    0.0378460  
C    -4.2266300   -1.9426010    0.1402220  
C    -5.6476730   -2.2137580    0.0754550  
C    -6.2719190   -0.8589070   -0.0559250  
N    -5.3783380    0.0841790   -0.0848330  
C    -7.7019140   -0.6943370   -0.1318180  
C    -8.4671340   -1.8104800   -0.0992790  
O    -9.8065600   -1.8097380   -0.1680040  
C    -7.8646500   -3.1896500    0.0188880  
O    -8.6385120   -4.1460650    0.0420420  
C    -6.4029850   -3.3343820    0.1065500  
H    -3.4329780   -2.6739030    0.1946470  
H    -8.1300370    0.2977440   -0.2209600  
H   -10.0701660   -2.7557200   -0.1214050  
H    -6.0078340   -4.3414510    0.1991380  
C     4.7718900    0.1068470   -0.0475140  
C     6.0911830   -0.1000630    0.3096070  
C     6.3866860   -1.4819990    0.0957750  
C     5.1996200   -2.0906180   -0.3982050  
N     4.2259670   -1.1123700   -0.4460090  
C     5.1293870   -3.4465320   -0.7341610  
C     6.2751310   -4.2095340   -0.5613630  
O     6.2618530   -5.5380850   -0.8761200  
C     7.4660490   -3.6234260   -0.0550850  
O     8.5167340   -4.5148800    0.0672040  
C     7.5338230   -2.2830230    0.2747410  
H     6.7522020    0.6515170    0.7187620  
H     3.3563850   -1.1884770   -0.9523920  
H     4.2274500   -3.9138090   -1.1162410  
H     7.1502390   -5.8858960   -0.6862950  
H     9.2971130   -4.0481020    0.4004560  
H     8.4585050   -1.8567200    0.6591040  
