62


C    -4.5379610    0.7509160   -1.6131290  
C    -4.7664390   -0.3052850   -0.7461580  
C    -6.1384600   -0.1580450   -0.2928480  
C    -6.6623010    1.0031250   -0.9144560  
N    -5.6661960    1.5290320   -1.7154810  
C    -7.9630850    1.4725530   -0.6915340  
C    -8.7585940    0.7499770    0.1821810  
O   -10.0392960    1.1494420    0.4338690  
C    -8.2523980   -0.4143150    0.8180160  
O    -9.1619530   -1.0312690    1.6586620  
C    -6.9676240   -0.8692500    0.5972690  
H    -5.7620330    2.3376530   -2.3093720  
H    -8.3596060    2.3598690   -1.1745710  
H   -10.4263500    0.4911640    1.0370730  
H    -8.8115970   -1.8939490    1.9268120  
H    -6.6184240   -1.7803290    1.0707750  
H    -3.6619800    0.9748780   -2.2052060  
C    -0.4637630    0.1067610    0.0375820  
C    -0.1681170   -1.2275420    0.2625370  
C    -1.3745720   -1.9841360    0.1329250  
C    -2.4375980   -1.0123690   -0.1955450  
N    -1.8202820    0.2210920   -0.2670780  
C    -3.7647900   -1.3103390   -0.3766270  
C    -4.1205200   -2.7378690   -0.2179020  
O    -5.2595800   -3.1590060   -0.3511910  
C    -2.9970540   -3.7892000    0.1333230  
O    -3.3329910   -4.9586060    0.2787350  
C    -1.6346320   -3.3205370    0.2790100  
H     0.7881400   -1.6293290    0.5548090  
H    -0.8634780   -4.0458000    0.5194530  
H    -2.2960920    1.1142320   -0.2743880  
C     3.9967370    0.7694200    0.1105380  
C     2.7449150    0.1640800   -0.0046600  
C     1.7993710    1.2005670    0.1252560  
C     2.6358490    2.4395950    0.3115420  
N     3.9160870    2.1745380    0.3127140  
C     2.0531820    3.7390680    0.4527180  
C     0.7046180    3.8204730    0.3686640  
O     0.0205800    4.9628130    0.4505510  
C    -0.1796130    2.6037530    0.1606590  
O    -1.3914920    2.8643470    0.0584320  
C     0.4022870    1.2669020    0.1029250  
H     2.5600620   -0.8792510   -0.2036280  
H     2.6786770    4.6123850    0.5978710  
H    -0.9243510    4.6998970    0.3425570  
C     5.2910980    0.2046210    0.0474800  
C     5.7370080   -1.1126650   -0.1402560  
C     7.1444180   -1.0899330   -0.1158740  
C     7.5427930    0.2756130    0.0918960  
N     6.4061720    1.0222690    0.1854180  
C     8.8866740    0.6610220    0.1690060  
C     9.8400020   -0.3338330    0.0364420  
O    11.1546650   -0.0220900    0.1023010  
C     9.4620130   -1.7036570   -0.1714830  
O    10.5425430   -2.5469120   -0.2797450  
C     8.1455170   -2.0862450   -0.2477930  
H     5.0989500   -1.9749380   -0.2761070  
H     6.3148310    2.0188780    0.3299880  
H     9.1978430    1.6879290    0.3255980  
H    11.6632680   -0.8450800   -0.0109660  
H    10.2423170   -3.4581180   -0.4171620  
H     7.8758120   -3.1277070   -0.4056930  
