62


C     3.9509990   -1.1918950   -2.5513000  
C     3.8713400   -0.7085690   -1.2661430  
C     5.0534970   -1.1330730   -0.5627860  
C     5.8200470   -1.8813230   -1.4907340  
N     5.1206640   -1.9074910   -2.6831550  
C     7.0498870   -2.4620640   -1.1547910  
C     7.5091060   -2.2815450    0.1398520  
O     8.7024230   -2.8198060    0.5185400  
C     6.7476490   -1.5373190    1.0834450  
O     7.3372750   -1.4544630    2.3285460  
C     5.5335380   -0.9679010    0.7519360  
H     5.4343230   -2.3513240   -3.5320630  
H     7.6443600   -3.0328190   -1.8607300  
H     8.8527310   -2.5661760    1.4457950  
H     6.8214340   -0.8610860    2.8946060  
H     4.9669420   -0.4001810    1.4857730  
H     3.2660520   -1.0686930   -3.3774980  
C     1.4899970   -0.3917050   -0.6885390  
C     0.6608030    0.5985110   -0.1720140  
C     1.5333140    1.7263020    0.1215190  
C     2.8478110    1.3339820   -0.2260010  
N     2.7912670    0.0325160   -0.7346410  
C     3.9655890    2.1604060   -0.0691270  
C     3.7534900    3.4183680    0.4738960  
O     4.8013450    4.2724800    0.6492500  
C     2.4469630    3.8272190    0.8457570  
O     2.3891010    5.1029730    1.3714520  
C     1.3479760    3.0056760    0.6794990  
H     4.9635180    1.8534480   -0.3597090  
H     4.4354340    5.1051410    0.9957290  
H     1.4626370    5.3755280    1.4527030  
H     0.3566120    3.3601300    0.9374120  
H     1.2334440   -1.3660980   -1.0763980  
C    -1.8040380   -2.9192450    0.9216410  
C    -0.7821920   -2.0479340    0.7280460  
C    -1.3593680   -0.7735230    0.3462050  
C    -2.8184490   -0.9722700    0.3537870  
N    -3.0223300   -2.2914700    0.6755130  
C    -3.7690700   -0.0158760    0.0483570  
C    -3.2587530    1.3355270   -0.1851530  
O    -3.9704070    2.3239580   -0.2677700  
C    -1.7035020    1.5626360   -0.2594310  
O    -1.3221920    2.6826710   -0.5490660  
C    -0.7706030    0.4316920    0.0073110  
H     0.2667130   -2.2564840    0.8684630  
H    -1.7841830   -3.9561580    1.2279720  
H    -3.9326360   -2.6944240    0.8460310  
C    -6.8621990   -2.0243730    2.6494800  
C    -5.6730020   -1.5225490    2.2206590  
C    -5.9546970   -0.9396930    0.9129330  
C    -7.4100020   -1.1851980    0.7247550  
N    -7.9325540   -1.8255880    1.7396090  
C    -8.1201460   -0.7221800   -0.4391800  
C    -7.4175750   -0.0475200   -1.3766560  
O    -7.9471490    0.4412070   -2.5108220  
C    -5.9328860    0.1683120   -1.2544280  
O    -5.3592780    0.6356630   -2.2318750  
C    -5.2055530   -0.2693420   -0.0119790  
H    -4.7355310   -1.4945260    2.7584040  
H    -9.1831160   -0.9126080   -0.5376390  
H    -7.1887580    0.8162070   -3.0102540  
H    -7.0680970   -2.5243220    3.5891900  
