62


C     3.8235900   -2.5466600   -0.4311130  
C     4.1850240   -1.2187450   -0.2136380  
C     5.6362250   -1.2054540   -0.1327950  
C     6.0745400   -2.5385280   -0.3051090  
N     4.9419560   -3.3241180   -0.4832290  
C     7.4223440   -2.9113720   -0.2856610  
C     8.3539300   -1.9031830   -0.0868040  
O     9.6835870   -2.2015680   -0.0584030  
C     7.9329070   -0.5582830    0.0873930  
O     8.9734310    0.3295160    0.2740080  
C     6.5977050   -0.1986160    0.0677280  
H     4.9462400   -4.3206730   -0.6415850  
H     7.7561600   -3.9351940   -0.4190280  
H    10.1622710   -1.3662720    0.0828930  
H     8.6169810    1.2260260    0.3640430  
H     6.2786150    0.8304680    0.1988330  
H     2.8414860   -2.9799820   -0.5558380  
C     3.2788290   -0.1149400   -0.1018230  
C     1.8978540   -0.1025960   -0.1652900  
C     1.5033450    1.2641250   -0.0217190  
C     2.8009130    2.0032890    0.1318470  
N     3.8252730    1.1991830    0.0913990  
C     2.8494800    3.4316250    0.2867560  
C     1.6684830    4.0898040    0.2919110  
O     1.5428110    5.4141150    0.4274400  
C     0.3313240    3.3730640    0.1773270  
O    -0.6633620    4.0882930    0.2991200  
C     0.2925840    1.9138080   -0.0153990  
H     1.2411190   -0.9414330   -0.3469270  
H     3.8006460    3.9421390    0.3879900  
H     0.5680430    5.5691730    0.4288190  
C    -1.4400000   -1.4016790    2.3333300  
C    -2.6633430   -1.4533870    1.7169370  
C    -2.6738650   -0.4368410    0.7004060  
C    -1.4030050    0.1942050    0.7463510  
N    -0.6849170   -0.3947250    1.7663100  
C    -1.0157390    1.2415980   -0.1160450  
C    -1.9568420    1.5954420   -1.0871270  
O    -1.6520600    2.5356220   -2.0162670  
C    -3.2272140    0.9691560   -1.1697990  
O    -4.0164140    1.4673460   -2.1807820  
C    -3.6369970   -0.0158650   -0.2650870  
H    -3.4630480   -2.1365600    1.9614810  
H     0.2928220   -0.2205380    1.9449800  
H    -2.4395130    2.5956050   -2.5922720  
H    -4.4414690    0.6926590   -2.6172500  
H    -1.0398850   -2.0002060    3.1396040  
C    -6.6795990   -0.5773850    2.9142780  
C    -5.5940750   -0.2056680    2.1868270  
C    -5.7732780   -0.7149290    0.8458300  
C    -7.0778380   -1.4224900    0.8515270  
N    -7.5625830   -1.3234660    2.1395850  
C    -7.6336080   -2.0464800   -0.2201090  
C    -6.9119550   -1.9842860   -1.4761620  
O    -7.2787280   -2.5356710   -2.5024580  
C    -5.5916790   -1.1266010   -1.5300520  
O    -5.1294970   -0.9096570   -2.6490510  
C    -4.9923610   -0.6099810   -0.2861590  
H    -4.7522430    0.3688830    2.5389090  
H    -8.5669590   -2.5986360   -0.1803990  
H    -6.9147720   -0.3714680    3.9500690  
H    -8.4688320   -1.6489630    2.4370150  
