66


C    -3.5304810   -0.8117850    1.9252770  
C    -3.6036710   -2.1743710    2.0225310  
C    -4.4003230   -2.6357410    0.9205080  
C    -4.7883780   -1.4907960    0.1784430  
N    -4.2462920   -0.3753780    0.8106660  
C    -5.5605020   -1.5716390   -0.9862430  
C    -5.9573740   -2.8319960   -1.4035180  
O    -6.7175960   -2.9688750   -2.5320290  
C    -5.5849520   -3.9892740   -0.6704630  
O    -6.0575500   -5.1727230   -1.2121360  
C    -4.8169520   -3.9062010    0.4758100  
H    -3.1523690   -2.7788340    2.7977160  
H    -5.8611320   -0.6964570   -1.5499670  
H    -6.8957180   -3.9185830   -2.6413820  
H    -5.7966430   -5.9110270   -0.6424200  
H    -4.5386200   -4.8075040    1.0191940  
H    -3.0557540   -0.0861890    2.5707790  
C    -1.0286260    2.2627990   -0.4518250  
C    -1.7954840    3.3744100   -0.7054480  
C    -3.1573230    3.0142180   -0.4283430  
C    -3.1468810    1.6650550    0.0058890  
N    -1.8376860    1.2275360   -0.0070810  
C    -4.3127030    0.9709780    0.3714830  
C    -5.5206480    1.6645040    0.2911440  
O    -6.6841170    1.0477030    0.6367990  
C    -5.5416760    3.0122230   -0.1517730  
O    -6.8109820    3.5591720   -0.1794250  
C    -4.3893820    3.6922910   -0.5027680  
H    -1.4207010    4.3396100   -1.0148890  
H    -1.5418310    0.2694770    0.1106850  
H    -7.4003270    1.6920960    0.5001350  
H    -6.7592420    4.4818700   -0.4688490  
H    -4.4408420    4.7267600   -0.8356600  
C     1.0761170    2.5090420   -1.7200520  
C     2.3932590    2.1875010   -1.5598330  
C     2.5215560    1.5140060   -0.2958390  
C     1.2261020    1.4538760    0.2756690  
N     0.3440510    2.0688110   -0.6168130  
C     0.9743260    0.8716210    1.5241050  
C     2.0579400    0.3233660    2.1931980  
O     1.8782990   -0.2485050    3.4205740  
C     3.3581310    0.3601670    1.6320460  
O     4.3259900   -0.2113080    2.4363450  
C     3.6237160    0.9495030    0.3961570  
H     3.1837350    2.3809840   -2.2706180  
H    -0.0067030    0.8514260    1.9840900  
H     2.7582580   -0.5190900    3.7359580  
H     5.1996990   -0.0393650    2.0459950  
H     0.5597710    2.9918620   -2.5367250  
C     5.6495430    2.1238590   -0.6023900  
C     4.9989340    1.0011400   -0.1357130  
C     5.9417890   -0.0931280   -0.2721370  
C     7.1352110    0.4433870   -0.8213520  
N     6.9240630    1.7937760   -1.0126600  
C     8.2596150   -0.3422210   -1.1041530  
C     8.1778080   -1.6985590   -0.8314550  
O     9.2451820   -2.5093280   -1.0848050  
C     6.9872450   -2.2575030   -0.2934620  
O     7.0580180   -3.6216130   -0.0861610  
C     5.8785120   -1.4805230   -0.0155610  
H     7.6001500    2.4418920   -1.3853740  
H     9.1726030    0.0657900   -1.5258120  
H     8.9826060   -3.4144090   -0.8433170  
H     6.2063850   -3.9430530    0.2453070  
H     4.9750400   -1.9323730    0.3865090  
H     5.2980430    3.1444590   -0.6530110  
