62


C     3.0920600   -0.9426210    0.1993710  
C     3.4125630    0.0219410    1.1563090  
C     4.7991790    0.2797210    1.0496670  
C     5.3048610   -0.5585490    0.0025870  
N     4.2532690   -1.2802410   -0.4841960  
C     6.6547310   -0.5585170   -0.3738370  
C     7.5055990    0.2941330    0.3076050  
O     8.8250420    0.3386160   -0.0150450  
C     7.0191610    1.1385010    1.3548730  
O     8.0020990    1.9210860    1.9247990  
C     5.6952520    1.1403260    1.7287590  
H     2.7126480    0.4832340    1.8391430  
H     4.2451070   -1.9563530   -1.2354010  
H     7.0444970   -1.1880940   -1.1664080  
H     9.2446630    1.0000570    0.5626820  
H     7.6096270    2.5001980    2.5949510  
H     5.3450320    1.7909860    2.5270990  
C     1.8670890   -1.5760060   -0.1535280  
C     0.5972170   -1.4399730    0.3669930  
C    -0.2283640   -2.3306370   -0.3856610  
C     0.7136320   -2.9720730   -1.3659770  
N     1.9312640   -2.5318440   -1.2243120  
C     0.2702740   -3.9598200   -2.3106770  
C    -1.0413200   -4.2884150   -2.2860940  
O    -1.6104180   -5.1832210   -3.1011880  
C    -2.0296870   -3.6462040   -1.3268100  
O    -3.2056450   -3.9916790   -1.4667960  
C    -1.5612760   -2.6625320   -0.3432230  
H     0.2873990   -0.8021210    1.1817020  
H     0.9704090   -4.4106960   -3.0049130  
H    -2.5648100   -5.1689690   -2.8492250  
C    -2.7745710    1.5606550    0.2881140  
C    -3.7390720    1.3123660    1.2661050  
C    -3.7576070   -0.0896530    1.5071010  
C    -2.7831150   -0.6716220    0.6471840  
N    -2.2139690    0.3458190   -0.0765400  
C    -2.5393820   -2.0613680    0.5875820  
C    -3.2970430   -2.8522500    1.4537580  
O    -3.0844770   -4.1935600    1.5003410  
C    -4.2674180   -2.2818960    2.3246440  
O    -4.9153650   -3.2152630    3.1100910  
C    -4.5095510   -0.9253270    2.3602850  
H    -4.2937270    2.0567630    1.8199230  
H    -1.4118040    0.2929110   -0.6933190  
H    -3.7323880   -4.5698570    2.1211770  
H    -5.5745460   -2.7719650    3.6640960  
H    -5.2600470   -0.5135600    3.0319890  
C    -4.7459410    5.4735750   -0.0227080  
C    -3.7420030    6.1831020   -0.6008350  
C    -2.6350770    5.2749110   -0.8094530  
C    -3.0735470    3.9704320   -0.2820180  
N    -4.3489650    4.1625170    0.2213870  
C    -2.3372190    2.8076100   -0.3072390  
C    -1.0470350    2.9000640   -1.0272750  
O    -0.3580800    1.9237040   -1.2934860  
C    -0.5167540    4.3099660   -1.4939890  
O     0.6128560    4.3662670   -1.9585060  
C    -1.4003900    5.4535650   -1.3649090  
H    -3.7628780    7.2309640   -0.8629860  
H    -1.0500900    6.4155190   -1.7248440  
H    -5.7378180    5.7954920    0.2661840  
H    -4.9820180    3.3936900    0.3918680  
