60


C    -4.6980530   -0.3501080    0.0700580  
C    -5.3512940   -1.5446340    0.3970710  
C    -6.7218730   -1.3925040    0.0605020  
C    -6.8742330   -0.0779640   -0.4728900  
N    -5.6421960    0.5215600   -0.4511750  
C    -8.1069990    0.4176470   -0.9148870  
C    -9.2018900   -0.4257480   -0.8225800  
O   -10.4230500    0.0006270   -1.2382410  
C    -9.0681560   -1.7466000   -0.2950160  
O   -10.2541260   -2.4493840   -0.2748340  
C    -7.8557120   -2.2337180    0.1421310  
H    -4.8802780   -2.4568610    0.7354560  
H    -5.3776150    1.4239990   -0.8269690  
H    -8.2285010    1.4157640   -1.3215910  
H   -11.0521480   -0.7291090   -1.1005140  
H   -10.1013160   -3.3422410    0.0685630  
H    -7.7765760   -3.2431080    0.5403510  
C    -1.4472700   -1.9563280    2.5371740  
C    -0.4132140   -1.2151170    2.0501980  
C    -0.9481200   -0.3257880    1.0472000  
C    -2.3838050   -0.6214340    0.9745920  
N    -2.6210600   -1.6526130    1.8691850  
C    -3.3078420    0.0232440    0.1786000  
C    -2.7737630    1.1962650   -0.5437780  
O    -3.4798020    2.0149090   -1.1171720  
C    -1.2185700    1.4411460   -0.5956170  
O    -0.8224680    2.2967130   -1.3741300  
C    -0.3449330    0.6490020    0.2685920  
H     0.6127210   -1.2629280    2.3817110  
H    -1.4479650   -2.7029910    3.3200960  
H    -3.5473790   -1.8715570    2.2077970  
C     2.0357640   -0.1374600    0.1702780  
C     1.1045110    0.8519850    0.2310790  
C     1.8493710    2.1178360    0.2663470  
C     3.2879610    1.7673090    0.2351010  
N     3.3488830    0.3664920    0.1450530  
C     4.2973590    2.6674990    0.3355900  
C     3.9574460    4.0887540    0.4400350  
O     4.8057060    4.9612250    0.5270910  
C     2.4429190    4.4829310    0.4511250  
O     2.1335390    5.6585260    0.5422330  
C     1.4453140    3.4066470    0.3687520  
H     5.3459130    2.3992660    0.3806880  
H     0.4009920    3.6931320    0.3822860  
H     1.8875500   -1.2037090    0.0787650  
C     4.4647280   -0.4432160    0.0508330  
C     4.6127980   -1.7412810    0.4595140  
C     5.9300320   -2.1677310    0.0676650  
C     6.5549590   -1.0073690   -0.6111490  
N     5.6340980    0.0384670   -0.5438020  
C     7.7849470   -1.0177480   -1.1730630  
C     8.5762370   -2.2486190   -1.0840040  
O     9.6950770   -2.3467070   -1.5605600  
C     7.9518790   -3.4789520   -0.3313120  
O     8.6061530   -4.5075340   -0.2417320  
C     6.6052890   -3.3413000    0.2177360  
H     3.8978110   -2.3171400    1.0282450  
H     8.2244380   -0.1602470   -1.6733660  
H     6.1761930   -4.2030420    0.7197000  
H     5.6251320    0.7965500   -1.2125530  
