60


C    -1.3861060   -3.7778340   -1.6604330  
C    -2.4513010   -4.6215910   -1.5956530  
C    -3.4414910   -4.0091160   -0.7472720  
C    -2.9186600   -2.7667760   -0.3179230  
N    -1.6451720   -2.6276610   -0.8996830  
C    -3.6044720   -1.9354610    0.5747810  
C    -4.8536220   -2.3540280    1.0119840  
O    -5.5524760   -1.5735440    1.8844150  
C    -5.4039100   -3.5836680    0.5700950  
O    -6.6503070   -3.8549240    1.0895340  
C    -4.7105500   -4.4121310   -0.2955730  
H    -2.5355180   -5.5713570   -2.1057340  
H    -3.2053080   -1.0009460    0.9476060  
H    -6.3938190   -2.0256690    2.0709320  
H    -6.9700580   -4.7064680    0.7558960  
H    -5.1371850   -5.3620610   -0.6099790  
H    -0.4622690   -3.8487800   -2.2142050  
C    -0.7461980   -1.5933460   -0.7389060  
C     0.6224350   -1.6201700   -0.7674840  
C     1.0899490   -0.2705550   -0.5884960  
C    -0.1199250    0.5641490   -0.4435720  
N    -1.2117080   -0.2990600   -0.5002110  
C    -0.1488700    1.9196080   -0.2955050  
C     1.1675010    2.5810400   -0.1719200  
O     1.2860430    3.7553850    0.1230890  
C     2.4713110    1.7230600   -0.3475500  
O     3.5407570    2.3111210   -0.3330350  
C     2.3582180    0.2640370   -0.5353390  
H     1.2351160   -2.5068130   -0.8206910  
H    -2.1270810    0.0144610   -0.7961650  
C     3.7554140   -1.4430620   -1.7544010  
C     3.5690980   -0.5329510   -0.7520610  
C     4.8028250   -0.5473690    0.0425900  
C     5.6969160   -1.5473620   -0.5913810  
N     4.9958390   -2.0568360   -1.6683100  
C     6.9428060   -1.8638960   -0.1560410  
C     7.4488370   -1.1959550    1.0377940  
O     8.5534850   -1.4164590    1.5109190  
C     6.5092390   -0.1547570    1.7471020  
O     6.8963760    0.3919890    2.7670060  
C     5.1904910    0.1174630    1.1593900  
H     7.5775350   -2.5964390   -0.6453580  
H     4.5758120    0.8693460    1.6399770  
H     3.0833720   -1.6970520   -2.5633950  
H     5.3803630   -2.6852820   -2.3564610  
C    -3.6561770    1.8023400    2.4116320  
C    -4.3715180    2.8275560    1.8866040  
C    -3.6178350    3.3567620    0.7683850  
C    -2.3843030    2.5382370    0.6803900  
N    -2.4834360    1.5880150    1.6837940  
C    -1.3768070    2.7277920   -0.2235610  
C    -1.5773850    3.8076050   -1.2193050  
O    -0.8166050    3.9834820   -2.1534930  
C    -2.8584050    4.7109850   -1.1104350  
O    -2.9863770    5.6404230   -1.8912080  
C    -3.8498640    4.3890410   -0.0857070  
H    -5.3319990    3.1821890    2.2309500  
H    -4.7392250    5.0090920   -0.0290590  
H    -3.8910630    1.1572020    3.2476310  
H    -1.7003560    1.0396960    2.0077240  
