60


C     3.4755120   -4.0339860   -2.3437080  
C     3.1696410   -2.7705430   -1.9082410  
C     4.0452810   -2.4877090   -0.8062360  
C     4.8718870   -3.6285320   -0.6205310  
N     4.4950220   -4.5547020   -1.5699540  
C     5.8719190   -3.6971340    0.3559640  
C     6.0460470   -2.5892100    1.1719600  
O     7.0034740   -2.5983290    2.1370830  
C     5.2249700   -1.4385170    1.0315660  
O     5.4573420   -0.4510200    1.9651880  
C     4.2303390   -1.3859230    0.0573200  
H     2.4209850   -2.1180020   -2.3344870  
H     4.9220590   -5.4585210   -1.7007680  
H     6.5100840   -4.5648480    0.4859890  
H     6.9700220   -1.7282360    2.5751730  
H     5.3575900    0.4312230    1.5630570  
H     3.0502450   -4.6115610   -3.1520780  
C     2.0133220   -0.2592710    0.0924030  
C     1.4606300    0.9955630    0.0020010  
C     2.5849350    1.9152640   -0.2102950  
C     3.8032570    1.0745200   -0.2438020  
N     3.3899860   -0.2386060   -0.0467920  
C     5.0674650    1.5404930   -0.4423210  
C     5.2521970    2.9796860   -0.6294260  
O     6.3422550    3.4888610   -0.8338710  
C     3.9777550    3.8933140   -0.5658130  
O     4.1084970    5.0996980   -0.6839090  
C     2.6634150    3.2593730   -0.3698600  
H     5.9310360    0.8908360   -0.5519930  
H     1.7793770    3.8851790   -0.3563730  
H     1.5251580   -1.2092450    0.2613440  
C     0.0628740    1.3170010    0.1070200  
C    -1.0113230    0.4773030    0.3089020  
C    -2.1744140    1.3149430    0.3114050  
C    -1.6315410    2.6913690    0.0879320  
N    -0.3331570    2.6876070   -0.0213520  
C    -2.4838900    3.8464930   -0.0028140  
C    -3.8149410    3.6412300    0.1092780  
O    -4.7354700    4.6090690    0.0293120  
C    -4.4046110    2.2650600    0.3489080  
O    -5.6299290    2.2170870    0.4642240  
C    -3.5220560    1.0835700    0.4546260  
H    -0.9945590   -0.5989120    0.4051240  
H    -2.0589130    4.8301630   -0.1671770  
H    -5.5996660    4.1581970    0.1657700  
C    -3.5416130   -1.0871340    1.6984290  
C    -4.0893150   -0.2221470    0.7881300  
C    -5.2743890   -0.8999420    0.2473180  
C    -5.3456420   -2.2170520    0.9282230  
N    -4.2636970   -2.2608220    1.7896850  
C    -6.2977720   -3.1582120    0.7106400  
C    -7.3313080   -2.8806950   -0.2819670  
O    -8.2295500   -3.6636300   -0.5489490  
C    -7.2624320   -1.5080540   -1.0416780  
O    -8.0996010   -1.2598180   -1.8937500  
C    -6.1872340   -0.5665900   -0.6992770  
H    -6.3233150   -4.1118240    1.2290790  
H    -6.1810670    0.3860260   -1.2145440  
H    -2.6716970   -0.9346150    2.3230560  
H    -4.0843550   -3.0027100    2.4487740  
