62


C    -1.8639300    0.0416310    0.8404770  
C    -1.2857270   -1.1564000    0.4400780  
C    -2.3853550   -2.0720900    0.1705570  
C    -3.5866570   -1.3758730    0.4206650  
N    -3.2297690   -0.0866570    0.8311760  
C    -4.8564560   -1.9352300    0.2691390  
C    -4.9094370   -3.2554550   -0.1547260  
O    -6.1140180   -3.8659350   -0.3247210  
C    -3.7140640   -3.9782740   -0.4134260  
O    -3.9298140   -5.2765180   -0.8255640  
C    -2.4627670   -3.4094940   -0.2580250  
H    -5.7692430   -1.3833350    0.4620290  
H    -5.9383970   -4.7724350   -0.6319570  
H    -3.0788120   -5.7025630   -1.0079150  
H    -1.5516610   -3.9644950   -0.4566010  
H    -1.4163350    0.9805820    1.1306850  
C     0.1216110   -1.4046550    0.3250480  
C     1.1852530   -0.5538360    0.5535810  
C     2.3673150   -1.3056030    0.2767630  
C     1.8524900   -2.6553270   -0.1283570  
N     0.5522410   -2.7098600   -0.0937470  
C     2.7336680   -3.7249620   -0.5138000  
C     4.0591040   -3.4628240   -0.5081870  
O     5.0042860   -4.3448300   -0.8519310  
C     4.6204380   -2.1139460   -0.0920680  
O     5.8512110   -2.0259800   -0.0994970  
C     3.7156930   -1.0246920    0.3047510  
H     1.1366890    0.4860330    0.8429020  
H     2.3331780   -4.6896880   -0.8039590  
H     5.8561270   -3.8649100   -0.7272200  
C     3.8033020    0.9265360    1.8753120  
C     4.2668560    0.2449520    0.7830130  
C     5.3467390    1.0662160    0.2220750  
C     5.4517140    2.2659160    1.0906210  
N     4.4867200    2.1142340    2.0682020  
C     6.3331260    3.2824910    0.9138170  
C     7.2445720    3.2189700   -0.2230410  
O     8.0732530    4.0829670   -0.4665320  
C     7.1350120    1.9757450   -1.1768610  
O     7.8709720    1.9081190   -2.1480930  
C     6.1471490    0.9341430   -0.8655070  
H     6.3867540    4.1455280    1.5704730  
H     6.1125580    0.0723240   -1.5205180  
H     3.0214130    0.6330290    2.5626960  
H     4.3493750    2.7443890    2.8430680  
C    -4.6624640    1.0855120    2.4392220  
C    -5.5322520    2.1369250    2.3934210  
C    -5.5365690    2.6424230    1.0453320  
C    -4.6381250    1.8501700    0.2912160  
N    -4.1068560    0.9096120    1.1705440  
C    -4.3880320    2.0514490   -1.0689380  
C    -5.0691540    3.0897570   -1.6868970  
O    -4.8702210    3.3366750   -3.0119950  
C    -5.9745010    3.9024300   -0.9519570  
O    -6.5692480    4.8931310   -1.7080250  
C    -6.2130280    3.6927930    0.3936740  
H    -6.1080330    2.5151960    3.2270540  
H    -3.7028910    1.4351640   -1.6403520  
H    -5.4380980    4.0879760   -3.2558620  
H    -7.1931890    5.3912620   -1.1596820  
H    -6.9110460    4.3278870    0.9354570  
H    -4.3692460    0.4293420    3.2455050  
