60


C    -6.3560550    0.8552300   -3.2418990  
C    -5.2917140    0.5979040   -2.4149670  
C    -5.7953340    0.5442430   -1.0726230  
C    -7.1969850    0.7680460   -1.1580410  
N    -7.5046420    0.9712590   -2.4873070  
C    -8.0439280    0.7383530   -0.0490380  
C    -7.4685030    0.4409680    1.1783770  
O    -8.2424150    0.3854750    2.2937160  
C    -6.0797700    0.1822580    1.3024070  
O    -5.6883260   -0.0679600    2.5953630  
C    -5.2072420    0.2651680    0.2038090  
H    -4.2686390    0.4686360   -2.7346200  
H    -8.4332440    1.1129570   -2.8527990  
H    -9.1133860    0.9103870   -0.1163310  
H    -7.6427620    0.1242360    3.0189370  
H    -5.0471360   -0.8131670    2.5653180  
H    -6.3878680    0.9711940   -4.3159250  
C    -1.6966880    2.6330460   -1.1705540  
C    -2.9612650    2.2373110   -0.9049400  
C    -2.8390670    0.9259130   -0.2792740  
C    -1.3799410    0.6510800   -0.2772470  
N    -0.7250360    1.6643390   -0.7868340  
C    -0.8109970   -0.5920840    0.2427500  
C    -1.6968430   -1.3471990    0.9733360  
O    -1.3191990   -2.4106920    1.6990570  
C    -3.1443880   -1.0378620    1.0757400  
O    -3.8103280   -1.7774670    1.8216240  
C    -3.7500100    0.0968020    0.3123490  
H    -3.8802240    2.7758520   -1.0792960  
H    -2.1407370   -2.7841620    2.0825380  
H    -1.3571460    3.5620240   -1.6109810  
C     3.1410330    1.4479280   -0.0029390  
C     3.9757190    0.3619870   -0.0758170  
C     3.0963570   -0.8100160   -0.1131910  
C     1.7084310   -0.2873350   -0.0168920  
N     1.8154340    1.0816340    0.0588730  
C     0.5651440   -1.0561800    0.0283630  
C     0.7813830   -2.5007720   -0.2617720  
O    -0.1128910   -3.2503900   -0.6080050  
C     2.2328360   -3.0788520   -0.1846220  
O     2.3782750   -4.2903010   -0.1589630  
C     3.3539640   -2.1420560   -0.1637800  
H     4.3559990   -2.5506340   -0.2060420  
H     3.4090120    2.4963320   -0.0133490  
H     1.0007000    1.6583520   -0.2041710  
C     6.8837360    2.7597730    2.2614210  
C     5.7598870    2.1573970    1.7931810  
C     6.1545730    1.2741400    0.7140540  
C     7.6247550    1.4091120    0.5978340  
N     7.9996050    2.3409380    1.5455580  
C     8.4110040    0.7218790   -0.2736160  
C     7.7693120   -0.2280810   -1.1620180  
O     8.3742710   -0.9248410   -1.9633880  
C     6.2020240   -0.3746870   -1.0891160  
O     5.6639290   -1.1374890   -1.8728620  
C     5.4357210    0.4273280   -0.0979560  
H     4.7606560    2.2920950    2.1777800  
H     9.4886340    0.8398180   -0.3284220  
H     6.9968740    3.4707060    3.0689890  
H     8.9523290    2.6030770    1.7440860  
