64


C     0.6358200    0.9778890   -0.4078890  
C     0.9013100    2.3180870   -0.5651670  
C     2.3155200    2.5154980   -0.4052700  
C     2.8838000    1.2456510   -0.1564020  
N     1.8593500    0.3020020   -0.2135520  
C     4.2513220    1.0309690    0.0919840  
C     5.0606770    2.1703230    0.0717720  
O     6.4011540    2.0551460    0.2752270  
C     4.5097840    3.4519050   -0.1911960  
O     5.4486480    4.4667590   -0.1920450  
C     3.1610660    3.6402700   -0.4346610  
H     0.1710690    3.0708580   -0.8277410  
H     1.9127060   -0.5442030    0.3426800  
H     6.7727570    2.9539280    0.2493540  
H     5.0042300    5.3177560   -0.3197110  
H     2.7689630    4.6356700   -0.6329430  
C    -3.5497930    1.9844780    0.7953090  
C    -2.1996510    1.9905230    0.6094680  
C    -1.8467760    0.7602200   -0.0468870  
C    -3.0429780    0.0221220   -0.2151950  
N    -4.0917010    0.7873810    0.3187670  
C    -3.0773020   -1.2162060   -0.8651590  
C    -1.8707610   -1.7322230   -1.3158630  
O    -1.8495360   -2.9381060   -1.9562940  
C    -0.6577410   -1.0263840   -1.1369240  
O     0.4380440   -1.6792050   -1.6599930  
C    -0.6171320    0.2287440   -0.5147380  
H    -1.5249720    2.7757660    0.9166860  
H    -3.9897150   -1.7746990   -1.0322700  
H    -0.9259670   -3.0989450   -2.2188070  
H     1.2225760   -1.1015140   -1.6080320  
H    -4.1963820    2.7236060    1.2397190  
C     4.3201620   -2.4755920   -2.5720670  
C     4.9125510   -3.3630270   -1.7135220  
C     5.1636620   -2.6615790   -0.4844250  
C     4.6901710   -1.3370100   -0.6602180  
N     4.1577690   -1.2557140   -1.9339110  
C     4.7849430   -0.3344010    0.3275680  
C     5.3825050   -0.7136080    1.5299280  
O     5.4895840    0.1839640    2.5494560  
C     5.8591820   -2.0372460    1.7239720  
O     6.4125560   -2.2470540    2.9754020  
C     5.7558110   -3.0079200    0.7458730  
H     5.1403710   -4.3983450   -1.9276130  
H     3.9005350   -0.3892330   -2.3821920  
H     5.9591960   -0.2637360    3.2743090  
H     6.7694800   -3.1460480    3.0219730  
H     6.1289210   -4.0142900    0.9263000  
H     3.9806570   -2.6093760   -3.5895460  
C    -6.2433120   -2.8323500    1.6342730  
C    -5.2764870   -1.9125790    1.3840000  
C    -5.9245150   -0.7559890    0.8007390  
C    -7.3686230   -1.0755050    0.7425760  
N    -7.4907310   -2.3564100    1.2412720  
C    -8.3493030   -0.2389950    0.3046580  
C    -7.9665850    1.0859590   -0.1373460  
O    -8.7562930    1.9345900   -0.5254690  
C    -6.4383330    1.4710850   -0.0985770  
O    -6.1127610    2.5908780   -0.4487280  
C    -5.4530240    0.4560010    0.3644210  
H    -4.2219490   -2.0227650    1.5811080  
H    -9.3994730   -0.5116850    0.2820650  
H    -6.1560660   -3.8170570    2.0735080  
H    -8.3667380   -2.8369580    1.3724610  
