60


C     3.7935470    4.3910710    0.9351520  
C     3.1464980    5.5506720    0.6056780  
C     1.8515050    5.1803950    0.1107550  
C     1.7759150    3.7637420    0.1502340  
N     2.9788260    3.3099150    0.6462040  
C     0.6203500    3.0398110   -0.2466200  
C    -0.4774460    3.8218000   -0.6431580  
O    -1.6527290    3.2270310   -1.0158310  
C    -0.4064110    5.2338540   -0.6919160  
O    -1.5762330    5.8241470   -1.1266430  
C     0.7388600    5.9181760   -0.3337460  
H     3.5398540    6.5527220    0.7043620  
H     3.1634380    2.3577560    0.9249450  
H    -2.2690940    3.9399830   -1.2641290  
H    -1.4692910    6.7859910   -1.1648120  
H     0.7702230    7.0044930   -0.3799660  
H     4.7810770    4.2341210    1.3451240  
C     0.5869020    1.5858050   -0.2395630  
C     1.6266390    0.6819130   -0.2610740  
C     1.0747770   -0.6408570   -0.1937980  
C    -0.3906040   -0.4714670   -0.1713740  
N    -0.6160510    0.8781640   -0.1885140  
C    -1.3183730   -1.4923590   -0.1301390  
C    -0.7667700   -2.8665350   -0.1641240  
O    -1.4474960   -3.8597640   -0.3316480  
C     0.7830480   -3.0593240   -0.0335950  
O     1.2080720   -4.1752630    0.2074660  
C     1.6701730   -1.8803980   -0.1518180  
H     2.6710250    0.9086500   -0.4008560  
H    -1.5243540    1.3194880   -0.1812410  
C     4.9880500   -0.4143560    2.4552630  
C     3.7730630   -0.6468520    1.8903600  
C     3.9846430   -1.5174190    0.7493680  
C     5.4419220   -1.7800580    0.7036440  
N     5.9950490   -1.0547950    1.7452230  
C     6.0618670   -2.6015490   -0.1824130  
C     5.2429570   -3.2822760   -1.1756010  
O     5.6951030   -4.0695280   -1.9921230  
C     3.7044050   -2.9687260   -1.2040860  
O     3.0409320   -3.3970510   -2.1290050  
C     3.1211800   -2.0934430   -0.1466720  
H     2.8214840   -0.2848810    2.2486790  
H     7.1300980   -2.7949860   -0.1724330  
H     5.2354810    0.1655900    3.3348920  
H     6.9590970   -1.1167440    2.0334930  
C    -2.7459780   -1.2602050   -0.1056550  
C    -3.4616410   -0.2333060   -0.6794450  
C    -4.8379690   -0.4623650   -0.3179380  
C    -4.7906180   -1.6979650    0.5307860  
N    -3.5828830   -2.1618650    0.6474180  
C    -5.9841090   -2.2501520    1.1212360  
C    -7.1579390   -1.6291050    0.8611870  
O    -8.3478900   -2.0309710    1.3318720  
C    -7.2383340   -0.3923590   -0.0055810  
O    -8.3561310    0.0996700   -0.1758380  
C    -6.0123540    0.1613210   -0.5821540  
H    -3.1028960    0.5265580   -1.3607680  
H    -5.9226830   -3.1406310    1.7366830  
H    -8.9952600   -1.3844870    0.9692500  
H    -6.1083660    1.0553860   -1.1906860  
