64


C    -4.6720860   -0.4493510   -0.0075480  
C    -5.3445510   -1.5987270    0.3883310  
C    -6.7229690   -1.4347520    0.0504440  
C    -6.8482300   -0.1549940   -0.5552900  
N    -5.5985120    0.4188480   -0.5670640  
C    -8.0712980    0.3418770   -1.0242160  
C    -9.1871730   -0.4668290   -0.8808290  
O   -10.4038940   -0.0331880   -1.3212010  
C    -9.0809200   -1.7502630   -0.2770580  
O   -10.2820830   -2.4318420   -0.2063320  
C    -7.8747190   -2.2383500    0.1861840  
H    -4.8897050   -2.4959550    0.7847920  
H    -5.3330230    1.2718620   -1.0368330  
H    -8.1713950    1.3178940   -1.4875780  
H   -11.0457470   -0.7399820   -1.1352140  
H   -10.1357270   -3.3030400    0.1905250  
H    -7.8195680   -3.2242290    0.6441950  
C    -1.6353130   -1.8055910    2.8768850  
C    -0.5579570   -1.1387290    2.3551730  
C    -1.0345890   -0.4095320    1.2142890  
C    -2.4198620   -0.6846670    1.0858370  
N    -2.7516360   -1.5522300    2.1045860  
C    -3.2575980   -0.1047880    0.1027590  
C    -2.6250480    0.8267240   -0.7316590  
O    -3.3412850    1.4898150   -1.6928630  
C    -1.2378000    1.0984510   -0.6522310  
O    -0.7711720    1.9501510   -1.6339550  
C    -0.4313920    0.4812190    0.3009410  
H     0.4498250   -1.1521420    2.7449830  
H    -3.7028700   -1.7821590    2.3506210  
H    -2.7056480    2.0690870   -2.1545910  
H    -0.0914340    2.5489660   -1.2711040  
H    -1.7020580   -2.4509860    3.7412010  
C     1.9559800   -0.2459580    0.1838830  
C     3.2091960    0.2895840    0.1611480  
C     3.0359460    1.7353530    0.3073400  
C     1.5753190    1.9718570    0.4220650  
N     0.9659020    0.7365920    0.3485010  
C     1.0072730    3.2035230    0.5844840  
C     1.8783670    4.3725030    0.6558390  
O     1.4618360    5.5095360    0.8162890  
C     3.4260860    4.1418840    0.5322670  
O     4.1778070    5.1017050    0.5648960  
C     3.9174890    2.7638030    0.3848840  
H    -0.0543240    3.3447430    0.7673860  
H     4.9930080    2.6203460    0.3573350  
H     1.6529330   -1.2773920    0.0714270  
C     4.4577990   -0.4413340    0.0356680  
C     4.8023500   -1.6933660    0.5020870  
C     6.1425870   -1.9628140    0.0785350  
C     6.5822080   -0.8274900   -0.6525650  
N     5.5531400    0.0946890   -0.6400340  
C     7.8540130   -0.7457760   -1.2312470  
C     8.7025990   -1.8292340   -1.0639970  
O     9.9523680   -1.8044950   -1.6098820  
C     8.2854540   -2.9694050   -0.3243790  
O     9.2459190   -3.9598540   -0.2428200  
C     7.0291240   -3.0468520    0.2454830  
H     4.1771870   -2.3233540    1.1204870  
H     5.5048230    0.9054040   -1.2384080  
H     8.1931970    0.1190800   -1.7921210  
H    10.3858570   -2.6433650   -1.3761370  
H     8.9027530   -4.7012890    0.2772950  
H     6.7319990   -3.9312610    0.8057060  
