60


C    -5.4268450   -0.0679630    2.3595980  
C    -6.7140480   -0.3427980    2.7119110  
C    -7.4870740   -0.4055230    1.5002100  
C    -6.6065200   -0.1386230    0.4240510  
N    -5.3301480    0.0693770    0.9677220  
C    -7.0250120   -0.1761050   -0.9100650  
C    -8.3606270   -0.4565500   -1.1565440  
O    -8.8166830   -0.4946970   -2.4414430  
C    -9.2595310   -0.7072720   -0.0878350  
O   -10.5526180   -0.9719640   -0.4928050  
C    -8.8381440   -0.6875840    1.2293850  
H    -7.0806730   -0.4666300    3.7219920  
H    -6.3668470    0.0295240   -1.7445160  
H    -9.7714840   -0.6760860   -2.4046560  
H   -11.1220950   -1.0706970    0.2844420  
H    -9.5370840   -0.8979160    2.0364400  
H    -4.5535750    0.1045040    2.9710510  
C    -1.3724480   -1.7531370    1.3251540  
C    -2.6939030   -1.4764420    1.4367750  
C    -2.9764830   -0.3541540    0.5675220  
C    -1.6983430    0.0027820   -0.0794450  
N    -0.7363800   -0.8649300    0.4440030  
C    -1.5476980    0.9490290   -1.0447940  
C    -2.7195910    1.7083420   -1.4460120  
O    -2.7150650    2.5387110   -2.3417420  
C    -4.0748790    1.4442480   -0.6925650  
O    -5.0200180    2.1765520   -0.9127030  
C    -4.1356000    0.3212780    0.2835730  
H    -3.4063020   -1.9997080    2.0561200  
H    -0.6084880    1.1477310   -1.5475430  
H    -0.7789890   -2.5141470    1.8129550  
C     1.3147960   -2.0545390   -0.2719860  
C     0.6131890   -0.9451810    0.0766280  
C     1.6098350    0.1384650    0.1466460  
C     2.8865390   -0.5329080   -0.2259080  
N     2.6982390   -1.8039280   -0.4585310  
C     4.1569820    0.1868330   -0.2949340  
C     4.0934490    1.5196240    0.0192090  
O     5.1519250    2.3507780   -0.0482870  
C     2.8394900    2.1963460    0.4466330  
O     2.8874680    3.3983630    0.7141590  
C     1.5722860    1.4332440    0.5013080  
H     4.8096370    3.2293610    0.2310890  
H     0.6768010    1.9721510    0.7936410  
H     0.9371710   -3.0608670   -0.4066120  
C     5.4175330   -1.5803400   -1.5505910  
C     5.3763440   -0.5235040   -0.6746630  
C     6.7506360   -0.3356360   -0.1996770  
C     7.5735810   -1.3517510   -0.9038840  
N     6.6993940   -2.0569490   -1.7110600  
C     8.9082610   -1.5281650   -0.7429980  
C     9.6097820   -0.6737990    0.2103730  
O    10.8094190   -0.7548030    0.4237080  
C     8.7600390    0.3830690    1.0004600  
O     9.3166430    1.0952830    1.8210470  
C     7.3210400    0.4793540    0.7259030  
H     9.4777730   -2.2838060   -1.2755280  
H     6.7638790    1.2298020    1.2705740  
H     4.5939970   -2.0412200   -2.0742890  
H     6.9577420   -2.8366130   -2.2962110  
