62


C    -7.7608850   -0.5525660    1.5979480  
C    -7.7988080   -1.8950640    1.3330910  
C    -6.5706090   -2.2259190    0.6680260  
C    -5.8260520   -1.0245990    0.5419970  
N    -6.5820690   -0.0205020    1.1060020  
C    -4.5324890   -0.9685900   -0.0381850  
C    -4.0053390   -2.1982700   -0.4580670  
O    -2.7621700   -2.2535910   -1.0173510  
C    -4.7451320   -3.4006000   -0.3471150  
O    -4.0725060   -4.5049560   -0.8365120  
C    -6.0143590   -3.4298460    0.1964880  
H    -8.6027670   -2.5729660    1.5840640  
H    -6.2373560    0.9090460    1.2921130  
H    -2.5837640   -3.1855080   -1.2348050  
H    -4.6177080   -5.2970230   -0.7217890  
H    -6.5622220   -4.3669590    0.2703610  
H    -8.4823720    0.0838690    2.0903010  
C    -3.8134610    0.2939080   -0.1784070  
C    -4.3371830    1.5617140   -0.3029200  
C    -3.2474650    2.4897340   -0.4004820  
C    -2.0110130    1.6740060   -0.2922560  
N    -2.4167470    0.3639030   -0.1449130  
C    -0.7419850    2.1943720   -0.2759040  
C    -0.6332250    3.6429140   -0.5864680  
O     0.4284750    4.1819090   -0.8482040  
C    -1.9340840    4.5203250   -0.6304050  
O    -1.8139240    5.7331800   -0.7399940  
C    -3.2168170    3.8456490   -0.5415150  
H    -5.3817820    1.8141160   -0.4109630  
H    -4.1172400    4.4512630   -0.5822300  
H    -1.8144830   -0.4003640   -0.4509350  
C     0.7617860   -1.6638610   -1.8476190  
C     2.0307410   -1.6855450   -1.3746340  
C     2.1593690   -0.4753300   -0.5692920  
C     0.8280010    0.1880710   -0.6911780  
N     0.0183650   -0.5246590   -1.4300780  
C     0.5058820    1.4453200   -0.0389950  
C     1.4770410    1.9237220    0.7972770  
O     1.3225980    3.0100700    1.5610120  
C     2.8377870    1.2966660    0.9291500  
O     3.6654700    1.9047900    1.5988190  
C     3.1515520    0.0137410    0.2193100  
H     2.7880650   -2.4422200   -1.5210730  
H     2.2019480    3.1733760    1.9688390  
H     0.2712590   -2.3954520   -2.4788410  
C     6.2070510   -1.0065630   -2.8217130  
C     7.1749750   -1.4548970   -1.9623530  
C     6.6356900   -1.3608040   -0.6353310  
C     5.3186360   -0.8455120   -0.7570400  
N     5.0872140   -0.6363720   -2.0989680  
C     4.4921610   -0.5744880    0.3589800  
C     5.0272470   -0.8793990    1.6152310  
O     4.2612910   -0.7237050    2.7286450  
C     6.3354580   -1.4080640    1.7466060  
O     6.6984270   -1.6636730    3.0557950  
C     7.1401910   -1.6448620    0.6484770  
H     8.1591500   -1.8069330   -2.2389090  
H     4.2272110   -0.2837710   -2.4900370  
H     4.8275720   -0.9112540    3.4976610  
H     7.6309060   -1.9231050    3.0891110  
H     8.1423770   -2.0487620    0.7777570  
H     6.2146110   -0.9183000   -3.8988130  
