60


C     2.3462930    5.1025020    1.5652200  
C     1.5892070    6.1760920    1.1847470  
C     0.4297980    5.6553170    0.5184040  
C     0.5495840    4.2411140    0.5102210  
N     1.7331240    3.9345590    1.1426200  
C    -0.4359640    3.3834730   -0.0474520  
C    -1.5800530    4.0283610   -0.5536780  
O    -2.6087100    3.2985260   -1.0857910  
C    -1.7013030    5.4366540   -0.5573570  
O    -2.8796360    5.8805200   -1.1220780  
C    -0.7125510    6.2536770   -0.0427170  
H     1.8223780    7.2168770    1.3600540  
H     1.9983160    3.0066600    1.4337730  
H    -3.2938190    3.9312810   -1.3701160  
H    -2.9369090    6.8455340   -1.0614050  
H    -0.8271660    7.3351920   -0.0573810  
H     3.2854510    5.0621220    2.0981950  
C    -0.2664320    1.9419520   -0.0981500  
C     0.8873670    1.1798320   -0.0254780  
C     0.5295760   -0.2019210   -0.1233060  
C    -0.9377810   -0.2192570   -0.2787800  
N    -1.3570600    1.0844990   -0.2370580  
C    -1.6952450   -1.3400290   -0.4828310  
C    -0.9972360   -2.6294800   -0.5623240  
O    -1.5552530   -3.6691780   -0.8639560  
C     0.5370940   -2.6519900   -0.2301970  
O     1.0390920   -3.7354380   -0.0020370  
C     1.2782530   -1.3679670   -0.1321990  
H     1.8973900    1.5560140   -0.0178880  
H    -2.3006470    1.4122280   -0.3881780  
C    -3.6367920   -0.6702500   -1.9049930  
C    -4.9774290   -0.8589000   -1.9595930  
C    -5.3542050   -1.6327760   -0.7951420  
C    -4.1008010   -1.8868150   -0.0453950  
N    -3.0769780   -1.2581240   -0.7593930  
C    -4.0345120   -2.5686430    1.1231350  
C    -5.2752400   -3.1008580    1.6865880  
O    -5.3148760   -3.7136840    2.7417690  
C    -6.6149340   -2.8531840    0.9016710  
O    -7.6597620   -3.2894660    1.3586680  
C    -6.5525440   -2.0915270   -0.3483200  
H    -5.6417720   -0.5105210   -2.7373750  
H    -3.1096650   -2.7481900    1.6598300  
H    -7.4834090   -1.9143820   -0.8785690  
H    -2.9827060   -0.1637410   -2.6028970  
C     2.7197340   -1.3891300   -0.0085820  
C     3.5360770   -0.5491980    0.7105550  
C     4.8824530   -1.0093600    0.4772130  
C     4.7134760   -2.1652430   -0.4627850  
N     3.4638190   -2.3888980   -0.7368610  
C     5.8492670   -2.8956190   -0.9671660  
C     7.0777800   -2.5188420   -0.5424320  
O     8.2217540   -3.1090320   -0.9183250  
C     7.2772020   -1.3692890    0.4186740  
O     8.4357510   -1.1016250    0.7421380  
C     6.1099790   -0.6298460    0.9074750  
H     3.2376330    0.2348350    1.3916460  
H     5.7013330   -3.7237030   -1.6511570  
H     8.9310510   -2.6177540   -0.4457430  
H     6.2946050    0.1952190    1.5887670  
