64


C     3.9910070   -0.8136070   -2.0023640  
C     4.1905350   -0.2087660   -0.7691470  
C     5.3603580   -0.8559450   -0.1925350  
C     5.8049200   -1.8208990   -1.1315950  
N     4.9561040   -1.7560690   -2.2233910  
C     6.8949540   -2.6687940   -0.9109940  
C     7.5585990   -2.5526790    0.3003910  
O     8.6318100   -3.3517860    0.5736690  
C     7.1237730   -1.6070490    1.2620760  
O     7.8738660   -1.6075830    2.4253880  
C     6.0443220   -0.7725000    1.0368850  
H     5.0194710   -2.3366270   -3.0451620  
H     7.2261270   -3.4020660   -1.6394440  
H     8.9513620   -3.1040220    1.4584840  
H     7.5606140   -0.8977290    3.0051870  
H     5.7484910   -0.0472360    1.7862890  
H     3.2102700   -0.6322260   -2.7225990  
C    -0.0681810    0.5130400   -1.4423180  
C    -0.3179150    1.6403990   -0.7181020  
C     0.9925430    1.9641290   -0.1125830  
C     1.9136940    0.9040280   -0.6084250  
N     1.2782620    0.0656050   -1.3793700  
C     3.3338060    0.8462030   -0.2353710  
C     3.7439810    1.8403870    0.6156420  
O     5.0242590    1.9945690    1.0377450  
C     2.8389560    2.8834500    1.1465880  
O     3.3152570    3.7413500    1.9016130  
C     1.4161780    2.9027260    0.7486930  
H     4.9913210    2.7992990    1.6033480  
H     0.7952240    3.6980320    1.1433140  
H    -0.7653910   -0.0433630   -2.0580800  
C    -4.3126800   -0.0939310   -0.0762640  
C    -5.0198120    1.0997900   -0.0338880  
C    -4.0816100    2.1655540   -0.1979820  
C    -2.8006670    1.5703810   -0.3452610  
N    -2.9735900    0.2111110   -0.2607680  
C    -1.6074710    2.3114570   -0.5249870  
C    -1.7614270    3.7027980   -0.5436290  
O    -0.6754680    4.5108510   -0.7389990  
C    -3.0340580    4.3100250   -0.3944900  
O    -2.9936290    5.6931960   -0.4425890  
C    -4.1883240    3.5697410   -0.2274040  
H    -6.0948610    1.2018610    0.0133410  
H    -2.2563110   -0.4904080   -0.3689740  
H    -1.0061750    5.4260520   -0.7693550  
H    -3.8967730    6.0416360   -0.4680280  
H    -5.1510550    4.0646180   -0.1162180  
C    -7.8819010   -1.7419710    1.9205500  
C    -7.6987460   -3.0552340    1.5784110  
C    -6.4863160   -3.1258410    0.8120480  
C    -5.9824920   -1.8039260    0.7085160  
N    -6.8639360   -0.9787920    1.3777670  
C    -4.7772340   -1.4748480    0.0423660  
C    -4.0701720   -2.5645030   -0.4820990  
O    -2.8647120   -2.3670060   -1.1133240  
C    -4.5646420   -3.8877430   -0.3929320  
O    -3.7391860   -4.8245700   -0.9902590  
C    -5.7614500   -4.1835230    0.2303700  
H    -8.3480800   -3.8791590    1.8407230  
H    -6.6585510   -0.0209840    1.6179320  
H    -2.5424330   -3.2430440   -1.3900900  
H    -4.1087990   -5.7103110   -0.8620420  
H    -6.1198080   -5.2093270    0.2844860  
H    -8.6652580   -1.2742500    2.5002730  
