62


C    -1.7107120    0.6438490   -0.9842860  
C    -2.3616350    1.8655890   -0.4788760  
C    -3.5639810    1.2995540    0.2057050  
C    -3.5075670   -0.0976010    0.1541550  
N    -2.3377610   -0.4641440   -0.5937310  
C    -4.4321070   -0.9202510    0.7958750  
C    -5.4624960   -0.2861790    1.4917330  
O    -6.3937740   -1.0394240    2.1282450  
C    -5.5375800    1.1253090    1.5418600  
O    -6.6006230    1.6039560    2.2635220  
C    -4.5853980    1.9240740    0.9125750  
H    -2.5283600    2.6775950   -1.2112020  
H    -4.3717420   -2.0020520    0.8036010  
H    -7.0116800   -0.4352140    2.5762640  
H    -6.5700700    2.5721350    2.3046220  
H    -4.6277610    3.0079860    0.9824290  
H    -0.7698750    0.5777810   -1.5104670  
C     1.7586650   -2.0949060    0.0820190  
C     0.6325890   -1.2714700    0.0466190  
C    -0.4494890   -2.0476520   -0.4637140  
C     0.0556230   -3.3549950   -0.7090720  
N     1.3859320   -3.3479810   -0.3702140  
C    -0.7395530   -4.3889670   -1.2146750  
C    -2.0656120   -4.1041590   -1.5042200  
O    -2.8663530   -5.0773030   -2.0197480  
C    -2.6004080   -2.8042350   -1.2995850  
O    -3.9082270   -2.6746480   -1.7063740  
C    -1.8101750   -1.7860270   -0.7669970  
H     0.5596760   -0.2683770    0.4355690  
H     2.0400150   -4.1237670   -0.3404810  
H    -0.3560280   -5.3870110   -1.3968960  
H    -3.7458040   -4.6906340   -2.1718080  
H    -4.2520340   -1.7868650   -1.5204380  
C     3.8598510    1.7158010    0.3231780  
C     5.1032130    1.2790630    0.7174220  
C     5.0330360   -0.1503440    0.8534950  
C     3.6444180   -0.5317710    0.5207380  
N     2.9709810    0.6347870    0.2612810  
C     3.1396030   -1.8091820    0.4491260  
C     4.1174140   -2.8848990    0.6753060  
O     3.8605870   -4.0724240    0.4938830  
C     5.5654840   -2.5094070    1.1603540  
O     6.3167410   -3.4277180    1.4632450  
C     5.9480020   -1.1093430    1.1936150  
H     5.9649040    1.8979510    0.9188620  
H     6.9710900   -0.8735750    1.4683760  
H     2.1431150    0.6621830   -0.3193750  
C     4.0999310    3.9477420   -0.7091900  
C     3.2440610    4.8247160   -1.2925420  
C     1.8826590    4.4105190   -0.9907550  
C     2.0014400    3.2622760   -0.1575260  
N     3.3704980    2.9528920   -0.0174160  
C     0.8844570    2.6460720    0.3987960  
C    -0.3675900    3.1298270    0.0400460  
O    -1.4534890    2.4692210    0.5488330  
C    -0.5732590    4.2220790   -0.9014290  
O    -1.7468230    4.5304330   -1.2679460  
C     0.6284440    4.8739470   -1.3670850  
H     3.5354500    5.6753720   -1.8939890  
H     0.9519420    1.8467310    1.1275970  
H     0.5101140    5.7278180   -2.0277550  
H     5.1772140    3.8821440   -0.7496490  
