62


C     4.8452530    0.3355570   -0.0523070  
C     4.5666850   -1.0117800    0.1950270  
C     5.7720450   -1.7415930    0.0422460  
C     6.7872710   -0.7991320   -0.3016710  
N     6.1998680    0.4364920   -0.3544090  
C     8.1182500   -1.1737260   -0.5235240  
C     8.4319650   -2.5171710   -0.3959860  
O     9.7097040   -2.9388580   -0.5991270  
C     7.4304250   -3.4744050   -0.0521940  
O     7.9120750   -4.7657870    0.0326270  
C     6.1205450   -3.1069180    0.1657720  
H     3.6129690   -1.4099290    0.5039350  
H     6.6520750    1.3307420   -0.4869300  
H     8.8946670   -0.4625820   -0.7848100  
H     9.7231090   -3.9022590   -0.4623750  
H     7.1911340   -5.3663980    0.2729560  
H     5.3729320   -3.8531320    0.4269690  
C     0.3819060    0.9965770    0.0876080  
C     1.6190600    0.3934830   -0.0417340  
C     2.5887380    1.4367730    0.0435310  
C     1.7723860    2.6686850    0.2220020  
N     0.4933430    2.4138400    0.2586530  
C     2.3610360    3.9808840    0.3236370  
C     3.7019550    4.0669750    0.2104590  
O     4.3921390    5.2183380    0.2481780  
C     4.5686250    2.8441950    0.0124540  
O     5.7784370    3.0801670   -0.1246670  
C     3.9755360    1.4890660   -0.0040690  
H     1.8060410   -0.6523050   -0.2304670  
H     1.7330710    4.8539560    0.4609210  
H     5.3316580    4.9571690    0.1227850  
C    -1.2152070   -0.9457400   -0.0709660  
C    -0.9266440    0.4084620    0.0631720  
C    -2.2110000    1.0796750    0.1651230  
C    -3.2117260    0.0854000    0.0866560  
N    -2.5681190   -1.1327700   -0.0645220  
C    -4.5953790    0.3693940    0.1081310  
C    -4.9404390    1.7180390    0.2530180  
O    -6.2480550    2.0695650    0.3606520  
C    -3.9442730    2.7216620    0.3450080  
O    -4.4574390    3.9938940    0.4916040  
C    -2.5952230    2.4258430    0.2966850  
H    -3.0329510   -2.0285620   -0.0946690  
H    -6.2839920    3.0413440    0.4075220  
H    -3.7298860    4.6328330    0.5273370  
H    -1.8333700    3.1960140    0.3633440  
H    -0.5437620   -1.7870230   -0.1646470  
C    -5.5190310   -3.5066030    2.1639270  
C    -4.9328110   -2.3236890    1.8524930  
C    -5.6952230   -1.8095220    0.7170410  
C    -6.7379470   -2.8522600    0.4864890  
N    -6.6278390   -3.8411450    1.3311060  
C    -7.7325200   -2.7188540   -0.5463850  
C    -7.6886140   -1.6095960   -1.3179630  
O    -8.5450070   -1.3540270   -2.3204630  
C    -6.6225370   -0.5573830   -1.1456450  
O    -6.5937450    0.3437480   -1.9756290  
C    -5.6212500   -0.6773520   -0.0328820  
H    -4.1081320   -1.8349270    2.3516020  
H    -8.4814330   -3.4909240   -0.6833340  
H    -8.2314920   -0.5140690   -2.7223690  
H    -5.2494290   -4.1908490    2.9601380  
