64


C     0.5442790    1.8261260   -0.1226460  
C     1.4630440    0.7930000   -0.0492860  
C     2.7551480    1.3417510   -0.3178760  
C     2.5735660    2.7343550   -0.5482880  
N     1.2310480    3.0115960   -0.3880310  
C     3.6321700    3.5983540   -0.8438950  
C     4.9005340    3.0424380   -0.8909110  
O     5.9728500    3.8268770   -1.1721710  
C     5.1092480    1.6525000   -0.6538250  
O     6.4259790    1.2794840   -0.7660280  
C     4.0639900    0.7784740   -0.3688420  
H     1.2348830   -0.2265350    0.2276980  
H     0.7820170    3.8456520   -0.7390810  
H     3.5004910    4.6604860   -1.0206150  
H     6.7609770    3.2547390   -1.1442590  
H     6.5351790    0.3683120   -0.4390560  
C    -0.8785680    1.8168820    0.0770610  
C    -1.7816790    0.7926010   -0.0456480  
C    -3.0919290    1.3060660    0.2614280  
C    -2.9038070    2.7386030    0.5800970  
N    -1.5516580    3.0141830    0.3957980  
C    -3.8907250    3.5882000    0.9550430  
C    -5.2511510    3.0693930    1.0187340  
O    -6.2154750    3.7625400    1.3057710  
C    -5.4841600    1.5472630    0.6985250  
O    -6.6026860    1.0934920    0.8650820  
C    -4.3323000    0.7158010    0.2688530  
H    -1.5576950   -0.2059010   -0.3904700  
H    -3.7266130    4.6393690    1.1721390  
H    -1.0952380    3.7499070    0.9189960  
C    -2.7041920   -2.9706090    2.1268390  
C    -3.3676970   -3.8786260    1.3442960  
C    -4.1545520   -3.1310450    0.4037490  
C    -3.9197330   -1.7560450    0.6651310  
N    -3.0305230   -1.6895830    1.7187090  
C    -4.5510260   -0.7108310   -0.0449420  
C    -5.4326720   -1.1022600   -1.0554280  
O    -6.0396870   -0.1558750   -1.8232130  
C    -5.6721820   -2.4724270   -1.3329100  
O    -6.5602030   -2.6806510   -2.3742620  
C    -5.0519620   -3.4827540   -0.6233760  
H    -3.3070820   -4.9550920    1.4282010  
H    -2.7055880   -0.8355690    2.1433830  
H    -6.6835410   -0.6152520   -2.3898190  
H    -6.8039310   -3.6173950   -2.4044710  
H    -5.2544150   -4.5259660   -0.8582040  
H    -2.0168310   -3.1250410    2.9466570  
C     6.7520170   -1.5061630    2.4406040  
C     6.0556980   -0.5155020    1.7954430  
C     5.2447490   -1.1537600    0.7899200  
C     5.4960190   -2.5484020    0.8847050  
N     6.4182040   -2.7297640    1.8951910  
C     4.8582490   -3.4923420    0.0715110  
C     3.9493230   -3.0151460   -0.8581850  
O     3.3021680   -3.8864360   -1.6820820  
C     3.6878290   -1.6235650   -0.9802800  
O     2.7882910   -1.3264570   -1.9798420  
C     4.3162020   -0.6732940   -0.1760180  
H     6.0924260    0.5390590    2.0298420  
H     6.7838290   -3.6203630    2.1941510  
H     5.0447550   -4.5588440    0.1436940  
H     2.7163720   -3.3595600   -2.2536460  
H     2.5991130   -0.3731510   -1.9757700  
H     7.4591340   -1.4418940    3.2554100  
