64


C    -3.6861550    0.0921540   -0.0081150  
C    -2.3131950    0.2927560    0.0617050  
C    -2.0582600    1.6854190   -0.1219610  
C    -3.3273890    2.3086950   -0.2786060  
N    -4.2843670    1.3220230   -0.2309630  
C    -3.4817560    3.6895580   -0.4164620  
C    -2.3274860    4.4589540   -0.3697580  
O    -2.4058540    5.8116580   -0.4824410  
C    -1.0450450    3.8704050   -0.2084290  
O    -0.0172470    4.7846270   -0.2214430  
C    -0.8714060    2.4829620   -0.1226950  
H    -1.5789600   -0.4596340    0.3044790  
H    -5.2837810    1.4569130   -0.1812700  
H    -4.4489530    4.1681720   -0.5293450  
H    -1.4893010    6.1346760   -0.3824150  
H     0.6174830    4.5144310    0.4812980  
C     0.9840500   -0.8543960   -2.3928440  
C     0.1656940    0.1339870   -1.9443900  
C     0.8295960    0.7706340   -0.8271840  
C     2.1228380    0.0662450   -0.6674130  
N     2.1363930   -0.9263510   -1.6191780  
C     3.0948260    0.3319890    0.2761030  
C     2.7328130    1.3859260    1.2061520  
O     3.3451150    1.6469870    2.2445180  
C     1.4881920    2.2949890    0.9032500  
O     1.4552040    3.3699300    1.4975000  
C     0.4541450    1.8377700   -0.0369530  
H    -0.7924430    0.4138880   -2.3523410  
H     0.8510370   -1.5352500   -3.2232950  
H     2.9621110   -1.4660270   -1.8398940  
C     6.1438890   -0.8085590   -2.8287370  
C     5.0837100   -0.2441080   -2.1636860  
C     5.1484390   -0.6889060   -0.7940710  
C     6.2952400   -1.5207680   -0.6955050  
N     6.8682030   -1.5868080   -1.9503980  
C     6.7210970   -2.0989020    0.5050940  
C     5.9794540   -1.8027570    1.6363800  
O     6.3433310   -2.3055770    2.8456290  
C     4.8219680   -0.9770470    1.5732220  
O     4.1954360   -0.8204070    2.7855600  
C     4.3583660   -0.4378990    0.3694450  
H     4.3738370    0.4484710   -2.5931040  
H     7.7204740   -2.0774190   -2.1717500  
H     7.6030110   -2.7266260    0.5807080  
H     5.7047570   -1.9340820    3.4851230  
H     3.9129790    0.1233360    2.8477440  
H     6.4501920   -0.7102420   -3.8605950  
C    -2.5038790   -4.0975070   -0.7466100  
C    -3.6877700   -4.6886510   -0.3942750  
C    -4.5900910   -3.6348620   -0.0253670  
C    -3.8825520   -2.4123050   -0.1621150  
N    -2.6088660   -2.7277120   -0.5912260  
C    -4.4578510   -1.1430150    0.0973560  
C    -5.8114430   -1.1665150    0.4589840  
O    -6.4818350    0.0094430    0.7010190  
C    -6.5275430   -2.3784920    0.6005670  
O    -7.8468070   -2.1971560    0.9792730  
C    -5.9388850   -3.6079580    0.3778290  
H    -3.8971390   -5.7494880   -0.3964440  
H    -1.9342750   -2.0501120   -0.9133420  
H    -7.3849910   -0.2304850    0.9742450  
H    -8.2575500   -3.0584380    1.1439300  
H    -6.5108870   -4.5261430    0.4929180  
H    -1.5775440   -4.5388300   -1.0866720  
