64


C    -0.0517610    1.0671100   -1.9606690  
C     1.2490270    0.6451590   -1.9457970  
C     1.8577180    1.1785900   -0.7586680  
C     0.8592690    1.9221750   -0.0803160  
N    -0.3083590    1.8500310   -0.8356660  
C     1.0840240    2.5512270    1.1489200  
C     2.3528300    2.4343020    1.6921990  
O     2.6437460    3.0418840    2.8825580  
C     3.3688480    1.7040800    1.0262010  
O     4.5832490    1.7089120    1.6904710  
C     3.1551220    1.0648790   -0.1939770  
H     1.7225110    0.0226610   -2.6915830  
H     0.3218460    3.1220190    1.6657020  
H     3.5881620    2.8822690    3.0535000  
H     5.2539770    1.3025610    1.1162910  
H    -0.8346650    0.9072300   -2.6886680  
C    -4.0795960   -0.1982450   -0.0478360  
C    -4.8377540    0.9501170    0.1772480  
C    -3.9779180    2.0691990    0.0304570  
C    -2.6870510    1.5596890   -0.2891380  
N    -2.7726980    0.1962030   -0.3326610  
C    -1.5733440    2.3936460   -0.5027530  
C    -1.7784590    3.7676640   -0.3884250  
O    -0.7500860    4.6281980   -0.5984670  
C    -3.0640000    4.2844600   -0.0494210  
O    -3.0859400    5.6630710    0.0324700  
C    -4.1538190    3.4666770    0.1527780  
H    -5.8884240    0.9482740    0.4190540  
H    -2.0150910   -0.4472740   -0.5155740  
H    -1.0936180    5.5279050   -0.4555410  
H    -3.9818590    5.9611410    0.2483910  
H    -5.1240760    3.8874650    0.4068680  
C     4.6356830    0.4777250   -2.1790370  
C     4.2439410    0.3294390   -0.8653850  
C     5.1165880   -0.6831130   -0.3010190  
C     6.0072020   -1.0944750   -1.3266510  
N     5.6870980   -0.3711770   -2.4574460  
C     6.9832040   -2.0801160   -1.1327100  
C     7.0603510   -2.6668190    0.1205650  
O     7.9956020   -3.6303150    0.3653510  
C     6.1695390   -2.2781950    1.1567160  
O     6.3646220   -2.9598790    2.3433250  
C     5.2066170   -1.3057690    0.9632290  
H     6.1542640   -0.4445980   -3.3475210  
H     7.6645350   -2.3968740   -1.9159090  
H     7.8762500   -3.9176500    1.2870460  
H     5.7141280   -2.6620890    2.9964690  
H     4.5300680   -1.0307100    1.7686200  
H     4.2477950    1.1459810   -2.9345140  
C    -7.9785840   -2.0776750    0.7728640  
C    -7.6814450   -3.3900790    0.6537180  
C    -6.2603410   -3.4301430    0.3242920  
C    -5.8479100   -1.9923130    0.2850590  
N    -6.8569090   -1.2157650    0.5473950  
C    -4.4659430   -1.5906040   -0.0177280  
C    -3.5994980   -2.6302520   -0.2606170  
O    -2.2859930   -2.4467420   -0.5586940  
C    -3.9866700   -4.0529820   -0.2265570  
O    -3.1166450   -4.9020650   -0.4610390  
C    -5.3831840   -4.4201030    0.0824700  
H    -8.3371190   -4.2415330    0.7721540  
H    -1.9270360   -3.3563180   -0.6720100  
H    -5.6274250   -5.4781720    0.0974940  
H    -8.9327180   -1.6233710    1.0105150  
