60


C    -5.4258640   -2.1488940   -0.6356240  
C    -4.8997160   -0.8905040   -0.3598590  
C    -6.0385810    0.0138580   -0.2965320  
C    -7.1938780   -0.7618570   -0.5620570  
N    -6.7816180   -2.0724500   -0.7537840  
C    -8.4852640   -0.2287750   -0.6235840  
C    -8.6205590    1.1344050   -0.4133420  
O    -9.8533050    1.7120690   -0.4524690  
C    -7.4770480    1.9346070   -0.1551940  
O    -7.7660830    3.2717290    0.0325850  
C    -6.2043370    1.3987250   -0.0987060  
H    -7.3970490   -2.8610950   -0.8847770  
H    -9.3631190   -0.8336440   -0.8257770  
H    -9.7337930    2.6589540   -0.2625050  
H    -6.9627480    3.7407520    0.3032880  
H    -5.3539910    2.0317260    0.1286660  
H    -4.9117310   -3.0967450   -0.6971760  
C    -1.2592370   -2.6352990   -2.2420120  
C    -2.5485860   -2.2748030   -2.0251380  
C    -2.5073590   -1.3482300   -0.8978430  
C    -1.0675290   -1.2581190   -0.5664360  
N    -0.3441460   -2.0192490   -1.3456430  
C    -0.5633820   -0.4159350    0.5118680  
C    -1.4963480    0.3405860    1.1544870  
O    -1.1887500    1.2430370    2.1023440  
C    -2.9582660    0.2805240    0.8363560  
O    -3.6914290    1.0329940    1.4793800  
C    -3.4722360   -0.6716370   -0.2012760  
H    -3.4232680   -2.5669460   -2.5880140  
H    -2.0505990    1.5924510    2.4169340  
H    -0.8700930   -3.3033660   -3.0010950  
C     3.2800540    0.3192480   -1.6361680  
C     1.9765590    0.1373580   -1.3208190  
C     1.9079170   -0.1819410    0.0895750  
C     3.3062140   -0.1682030    0.5802020  
N     4.1086990    0.1624400   -0.5113900  
C     3.6834190   -0.3759820    1.8659670  
C     2.6440610   -0.6501600    2.8465340  
O     2.8698880   -0.8106760    4.0363010  
C     1.1559360   -0.7318490    2.3499870  
O     0.3022070   -1.0796690    3.1449280  
C     0.8505430   -0.4148030    0.9271880  
H     1.1422860    0.1692490   -2.0028480  
H     4.7142000   -0.3376020    2.2002480  
H     3.7363320    0.5374610   -2.5928830  
C     6.7498330    3.5185430   -1.1875480  
C     7.9424010    2.8731890   -1.1488840  
C     7.6699330    1.4729360   -0.8898420  
C     6.1956860    1.3629320   -0.7814710  
N     5.6937140    2.6261840   -0.9957990  
C     5.5207910    0.2035660   -0.5291890  
C     6.3065130   -1.0323060   -0.3679710  
O     5.7965650   -2.1236210   -0.1918990  
C     7.8758340   -0.9192270   -0.4469570  
O     8.5400890   -1.9253450   -0.2637100  
C     8.4731780    0.3876940   -0.7336400  
H     8.9175890    3.3170630   -1.2854330  
H     9.5550990    0.4421730   -0.8026830  
H     6.5402200    4.5677790   -1.3473910  
H     4.7265860    2.8813060   -0.8643500  
