62


C     3.9953330    4.0138060    1.2514420  
C     3.3152070    5.1036650    1.6982990  
C     1.9425100    4.9648580    1.2812920  
C     1.8391490    3.7460590    0.5720100  
N     3.1167070    3.1557320    0.5707650  
C     0.6492370    3.3332960   -0.0375100  
C    -0.4658010    4.1466690    0.1124200  
O    -1.6421640    3.7792420   -0.4659410  
C    -0.3872810    5.3565570    0.8480450  
O    -1.5756310    6.0485950    0.9091890  
C     0.8013990    5.7738320    1.4226550  
H     3.7361980    5.9160940    2.2745740  
H     0.5640930    2.4338160   -0.6337610  
H    -2.3053450    4.4561570   -0.2447180  
H    -1.4598460    6.8623060    1.4221500  
H     0.8509710    6.7164490    1.9632400  
H     5.0256600    3.7200820    1.3841860  
C     3.4938630    1.9608270   -0.0013200  
C     4.6988460    1.5866840   -0.5317770  
C     4.5798590    0.2171260   -0.9550940  
C     3.1982790   -0.1937820   -0.6217870  
N     2.5637240    0.9180530   -0.0918150  
C     2.6916520   -1.4442750   -0.8180170  
C     3.5620750   -2.4369190   -1.4831360  
O     3.1775280   -3.5521420   -1.7822270  
C     5.0358350   -2.0099710   -1.8355950  
O     5.7706470   -2.8535200   -2.3270660  
C     5.4539400   -0.6462410   -1.5474700  
H     5.5569970    2.2264310   -0.6735090  
H     6.4716570   -0.3657610   -1.7988760  
H     1.7543110    0.8500130    0.5115950  
C     0.2592120   -1.0182700   -0.8730670  
C    -0.9030230   -1.5552010   -0.3354910  
C    -0.4925100   -2.7231220    0.4247390  
C     0.9112180   -2.8267490    0.3129000  
N     1.3531760   -1.7641800   -0.4952160  
C     1.6547270   -3.8113850    0.9694520  
C     0.9532520   -4.7266650    1.7397430  
O     1.6236390   -5.7137650    2.3964130  
C    -0.4594970   -4.6453290    1.8513650  
O    -1.0142920   -5.6252740    2.6478640  
C    -1.1865340   -3.6595350    1.2106960  
H     2.7291610   -3.9036430    0.8759960  
H     0.9596160   -6.2636260    2.8472890  
H    -1.9797800   -5.5450930    2.6289320  
H    -2.2662250   -3.5934210    1.2972870  
H     0.3813940   -0.1879290   -1.5534610  
C    -2.2226330   -1.0219000   -0.5061110  
C    -2.6197010    0.1637020   -1.0880120  
C    -4.0435320    0.1984160   -0.9853000  
C    -4.3972990   -1.0881920   -0.2862790  
N    -3.3391760   -1.7889740   -0.0053470  
C    -5.7630890   -1.4350480    0.0076940  
C    -6.7210620   -0.5528010   -0.3605060  
O    -8.0313560   -0.7276160   -0.1559250  
C    -6.3955040    0.7588660   -1.0591880  
O    -7.3613340    1.4781270   -1.3374460  
C    -5.0120970    1.0846570   -1.3512850  
H    -1.9958850    0.9445050   -1.5001610  
H    -5.9966900   -2.3694410    0.5058560  
H    -8.4488950    0.0825700   -0.5345680  
H    -4.8108870    2.0250740   -1.8544860  
