60


C     4.6936680   -0.0263790   -0.0968340  
C     6.0314370   -0.4233750   -0.1548960  
C     6.0520600   -1.8360550   -0.2139700  
C     4.6889480   -2.2792040   -0.1902930  
N     3.9003150   -1.1669650   -0.1167750  
C     4.3389870   -3.6352090   -0.2375510  
C     5.3696980   -4.5560730   -0.3086780  
O     5.0908280   -5.8833460   -0.3568530  
C     6.7373350   -4.1327070   -0.3322920  
O     7.6278880   -5.1814290   -0.4037290  
C     7.0848140   -2.8027230   -0.2861710  
H     6.8832780    0.2426850   -0.1540880  
H     2.8914180   -1.1096960   -0.0972750  
H     3.3103620   -3.9788920   -0.2238920  
H     5.9375150   -6.3607440   -0.4118250  
H     8.5348050   -4.8420050   -0.4368310  
H     8.1295970   -2.5008860   -0.3056680  
C     4.0751130    1.2533690   -0.0273520  
C     4.6144530    2.5206440   -0.0030880  
C     3.5041140    3.4147670    0.0646600  
C     2.2950130    2.5150770    0.0771810  
N     2.6371720    1.2604940    0.0244040  
C     0.9435880    3.0414420    0.1274170  
C     0.8435380    4.4042440    0.1807280  
O    -0.3083040    5.0561940    0.2925170  
C     2.0473450    5.3338050    0.1745020  
O     1.7904870    6.5412580    0.2355280  
C     3.3778970    4.7719660    0.1077500  
H     5.6597600    2.7933830   -0.0376300  
H    -0.0554880    6.0123020    0.2925580  
H     4.2188140    5.4576470    0.0963460  
C    -0.4967430   -0.3487350    2.6293650  
C     0.2294100    0.6601650    2.0894980  
C    -0.4888500    1.1338540    0.9232890  
C    -1.7024320    0.2992540    0.8232130  
N    -1.6345170   -0.5981300    1.8602830  
C    -2.7269610    0.4569820   -0.0891120  
C    -2.5265260    1.5129370   -1.1039770  
O    -3.2702910    1.6950460   -2.0479070  
C    -1.2350780    2.4083450   -1.0195010  
O    -1.0681120    3.2471800   -1.8843070  
C    -0.2432740    2.1720930    0.0634490  
H     1.1734620    1.0382240    2.4477550  
H    -0.3021530   -0.9477530    3.5088250  
H    -2.4246480   -1.1618370    2.1430330  
C    -3.9239490   -0.3544420   -0.0655490  
C    -4.0607690   -1.6707180    0.3232480  
C    -5.4624280   -1.9770250    0.1914880  
C    -6.0728210   -0.6886100   -0.2745060  
N    -5.1815830    0.2448560   -0.4296700  
C    -7.4905370   -0.5671360   -0.5013250  
C    -8.2528710   -1.6685090   -0.3074770  
O    -9.5805460   -1.7112710   -0.4876340  
C    -7.6621250   -2.9871840    0.1420580  
O    -8.4454270   -3.9275330    0.2917350  
C    -6.2225330   -3.0833180    0.3845720  
H    -3.2742770   -2.3811100    0.5409620  
H    -7.9085830    0.3778630   -0.8294400  
H    -9.8364180   -2.6368050   -0.2712290  
H    -5.8364610   -4.0421910    0.7168390  
