60


C    -4.2579240    0.9678830   -0.0526920  
C    -4.3790890   -0.3763510    0.3164630  
C    -5.7309960   -0.7591030    0.1116700  
C    -6.4168850    0.3883030   -0.3870330  
N    -5.5029700    1.4053600   -0.4794960  
C    -7.7818920    0.3739490   -0.6965820  
C    -8.4679230   -0.8140770   -0.4991450  
O    -9.7970250   -0.8861320   -0.7821910  
C    -7.7991860   -1.9716160   -0.0004080  
O    -8.6270680   -3.0683060    0.1363240  
C    -6.4547880   -1.9581290    0.3036300  
H    -3.6129960   -0.9958270    0.7599130  
H    -5.6646570    2.3796820   -0.7057140  
H    -8.3084880    1.2433400   -1.0753840  
H   -10.0896180   -1.7911660   -0.5765000  
H    -8.1200390   -3.8168730    0.4839110  
H    -5.9646670   -2.8526850    0.6825520  
C     0.0746340    0.1754660    0.2332830  
C     0.4986810    1.4897780    0.3253230  
C    -0.6461710    2.3425170    0.2257650  
C    -1.8084980    1.4490480    0.0920200  
N    -1.3152520    0.1669900    0.1180250  
C    -3.1206400    1.8630470   -0.0231300  
C    -3.3048360    3.3288790   -0.1410220  
O    -4.3806270    3.8499640   -0.4122720  
C    -2.0783360    4.2952400    0.0789770  
O    -2.3014610    5.4996460    0.0866080  
C    -0.7690220    3.7085200    0.2434470  
H     1.5086250    1.8263560    0.4887580  
H     0.0796060    4.3726520    0.3715920  
H    -1.8400660   -0.6802220   -0.0408620  
C     4.4552490   -0.8842220   -0.0478230  
C     3.2645370   -0.1650460   -0.0467000  
C     2.2254650   -1.1161390    0.1827900  
C     2.9614600   -2.4140770    0.3348100  
N     4.2488800   -2.2740850    0.2031550  
C     2.2836280   -3.6533730    0.5927370  
C     0.9328450   -3.6268800    0.6217880  
O     0.1678050   -4.7102790    0.8082700  
C     0.1485340   -2.3523860    0.4248750  
O    -1.0818760   -2.4866870    0.4116030  
C     0.8445740   -1.0527090    0.2706370  
H     3.1365220    0.8592400   -0.3623540  
H     2.8506640   -4.5686740    0.7173310  
H    -0.7601830   -4.3925080    0.7497360  
C     6.2258500    2.9744130    1.0343320  
C     7.4976760    2.7666230    0.6130120  
C     7.5475120    1.4349580    0.0448650  
C     6.1800250    0.8849980    0.1536970  
N     5.4268640    1.8672800    0.7409350  
C     5.7951980   -0.3897820   -0.2240640  
C     6.8533240   -1.2300940   -0.8508110  
O     6.6319040   -2.2958220   -1.3883310  
C     8.3229280   -0.6775540   -0.8987160  
O     9.2127460   -1.4081770   -1.2996420  
C     8.5705390    0.7013360   -0.4706320  
H     8.3247740    3.4567630    0.6920600  
H     9.5856690    1.0795740   -0.5450420  
H     5.7891310    3.8354140    1.5220070  
H     4.4890320    1.7119600    1.0845220  
