66


C     5.7406860    0.7051200   -2.2255220  
C     6.9671790    0.1461390   -2.4645650  
C     7.4601330   -0.3450460   -1.2087160  
C     6.4745270   -0.0516570   -0.2313020  
N     5.4238720    0.5965650   -0.8725210  
C     6.6142290   -0.4114600    1.1143290  
C     7.7759990   -1.0710990    1.4816940  
O     7.9675500   -1.4416700    2.7839110  
C     8.7770620   -1.3677330    0.5193420  
O     9.8768550   -2.0287950    1.0396840  
C     8.6331940   -1.0164190   -0.8096870  
H     7.4696790    0.1049480   -3.4216600  
H     5.8637210   -0.1808170    1.8612050  
H     8.8413110   -1.8656460    2.8334620  
H    10.5398370   -2.1429550    0.3431440  
H     9.4118050   -1.2585720   -1.5309640  
H     5.0577790    1.2138760   -2.8916460  
C     1.4348090   -0.9006520   -1.6945460  
C     0.7338240   -0.0792730   -0.8321660  
C     1.7206680    0.7635480   -0.1914040  
C     2.9828050    0.3957110   -0.7140000  
N     2.7828540   -0.6144570   -1.6282230  
C     4.1877770    0.9926810   -0.2992430  
C     4.1052450    1.9841870    0.6750550  
O     5.2318280    2.6110040    1.1103000  
C     2.8431090    2.3451570    1.2188520  
O     2.9273720    3.3375690    2.1784670  
C     1.6638940    1.7594420    0.8031040  
H     3.5144110   -1.0589280   -2.1617210  
H     4.9542560    3.2598840    1.7805930  
H     2.0347650    3.5895260    2.4575030  
H     0.7112600    2.0732820    1.2185170  
H     1.0627150   -1.6384870   -2.3917830  
C    -1.8878270   -3.5239300   -0.1140360  
C    -3.0829570   -2.8558210   -0.0355220  
C    -2.7992700   -1.4585620   -0.2057850  
C    -1.4002990   -1.3434420   -0.4017870  
N    -0.8731500   -2.6179940   -0.3484640  
C    -0.7219790   -0.1224920   -0.6114930  
C    -1.5347810    1.0128070   -0.6021200  
O    -0.9826930    2.2528390   -0.7821710  
C    -2.9354340    0.9272920   -0.4121260  
O    -3.5653450    2.1599270   -0.4318930  
C    -3.6027170   -0.2862020   -0.2199750  
H    -4.0541770   -3.3064000    0.1066470  
H     0.1159530   -2.8154850   -0.3516420  
H    -1.7187460    2.8890560   -0.7403840  
H    -4.4874290    2.0464800   -0.1350340  
H    -1.6734040   -4.5803270   -0.0329460  
C    -5.0468480   -0.3304250    0.0043070  
C    -5.8050560   -1.1054370    0.8494350  
C    -7.1809090   -0.7213970    0.6966310  
C    -7.2178750    0.3120910   -0.2697840  
N    -5.9025240    0.5917850   -0.6426410  
C    -8.4072310    0.9095360   -0.6932800  
C    -9.5895560    0.4602820   -0.1197380  
O   -10.7805370    1.0069880   -0.5017140  
C    -9.5704490   -0.5589800    0.8665470  
O   -10.8215550   -0.8894200    1.3522660  
C    -8.3886650   -1.1483280    1.2811410  
H    -5.4112500   -1.8305450    1.5479210  
H    -5.6830240    0.9169270   -1.5770460  
H    -8.4396580    1.6990360   -1.4372820  
H   -11.4779200    0.5636000    0.0113400  
H   -10.7370790   -1.5996050    2.0053630  
H    -8.3996920   -1.9314960    2.0366910  
