64


C    -3.3354580    0.6148360   -1.8692210  
C    -4.6476000    0.9840490   -1.7674230  
C    -5.2074680    0.2629210   -0.6585980  
C    -4.1739810   -0.5451030   -0.1208400  
N    -3.0235020   -0.3149870   -0.8739780  
C    -4.3640450   -1.3641730    0.9980350  
C    -5.6243270   -1.3774780    1.5741920  
O    -5.8656760   -2.1639690    2.6647360  
C    -6.6731900   -0.5807480    1.0444420  
O    -7.8698400   -0.6997080    1.7294660  
C    -6.4800810    0.2332870   -0.0557960  
H    -5.1634900    1.6761060   -2.4194930  
H    -3.5840390   -1.9976760    1.4024920  
H    -6.8073070   -2.0642160    2.8862450  
H    -8.5609940   -0.2182880    1.2516350  
H    -7.2958260    0.8421550   -0.4414000  
H    -2.5822030    0.8940050   -2.5926310  
C     0.7829420    1.6772360   -0.3404450  
C     1.5861600    0.5585770   -0.3224510  
C     0.7470860   -0.6053570   -0.4087080  
C    -0.6344920   -0.0943700   -0.5100210  
N    -0.5521710    1.2756770   -0.4448020  
C    -1.7452600   -0.8760620   -0.6689040  
C    -1.5407370   -2.3289450   -0.7332750  
O    -2.4394260   -3.1209930   -0.9606990  
C    -0.0890810   -2.8902500   -0.4790550  
O     0.0261500   -4.0923090   -0.3170920  
C     1.0452950   -1.9464960   -0.3959870  
H     2.6637910    0.5398880   -0.3430520  
H    -1.3171540    1.9185610   -0.5945900  
C     4.0086090   -1.2598620    2.8282330  
C     5.0139250   -2.0404290    2.3229610  
C     4.5410180   -2.5921970    1.0829340  
C     3.2281130   -2.0969260    0.8809450  
N     2.9363530   -1.2656420    1.9478710  
C     2.4197720   -2.4556710   -0.2213820  
C     2.9947820   -3.3407930   -1.1369280  
O     2.3043200   -3.6956240   -2.2537850  
C     4.3108000   -3.8386750   -0.9523500  
O     4.7273070   -4.6884750   -1.9611360  
C     5.0861910   -3.4779900    0.1328620  
H     5.9795460   -2.2084450    2.7802480  
H     2.0146840   -0.9088270    2.1487640  
H     2.8232550   -4.3807310   -2.7097530  
H     5.5630950   -5.1056460   -1.7056850  
H     6.0927520   -3.8751310    0.2482110  
H     3.9600880   -0.6885640    3.7448750  
C     4.3694690    3.5623560    1.4203750  
C     4.0603810    4.8598960    1.1131660  
C     2.7939340    4.8393710    0.4388630  
C     2.3863250    3.4820120    0.3528570  
N     3.3708540    2.7274850    0.9521510  
C     1.1583080    3.0797000   -0.2357220  
C     0.3377960    4.1208130   -0.6982400  
O    -0.8787260    3.8407440   -1.2603050  
C     0.7403120    5.4746530   -0.6228740  
O    -0.1883830    6.3525660   -1.1483080  
C     1.9529450    5.8444590   -0.0737480  
H     4.6586950    5.7308710    1.3414640  
H     3.3010460    1.7406930    1.1521480  
H    -1.2854030    4.6903590   -1.5086050  
H     0.1330160    7.2620650   -1.0625210  
H     2.2410440    6.8925040   -0.0272420  
H     5.2281970    3.1488720    1.9297990  
