62


C     2.0843430   -0.2253220    1.9104860  
C     2.7789000    0.9531880    1.8877550  
C     3.6633370    0.9009900    0.7579420  
C     3.4496800   -0.3487430    0.1190680  
N     2.4796460   -1.0354290    0.8477350  
C     4.1291680   -0.7264730   -1.0498700  
C     5.0559870    0.1670980   -1.5677940  
O     5.7443080   -0.1522400   -2.7012400  
C     5.2936170    1.4144470   -0.9325480  
O     6.2460270    2.1896570   -1.5659120  
C     4.6093090    1.7890720    0.2094990  
H     2.6674550    1.7667150    2.5903570  
H     3.9389660   -1.6606890   -1.5669960  
H     6.3342270    0.5948500   -2.9014590  
H     6.3655980    3.0187640   -1.0797660  
H     4.8008730    2.7550860    0.6729620  
H     1.3470610   -0.5932000    2.6095060  
C    -1.6975420   -2.3891710    0.0661840  
C    -0.5620440   -1.6213080    0.3364600  
C     0.5558320   -2.4988890    0.3470440  
C     0.0648600   -3.8073980    0.0772910  
N    -1.2917510   -3.7058890   -0.0898420  
C     0.9008190   -4.9278000   -0.0065250  
C     2.2565070   -4.7245550    0.1943660  
O     3.1185810   -5.7745040    0.1297280  
C     2.7757670   -3.4293520    0.4841390  
O     4.1340740   -3.4048200    0.6905440  
C     1.9449500   -2.3194300    0.5564220  
H    -0.5343780   -0.5720650    0.5852110  
H    -1.9665480   -4.4493740   -0.2264000  
H     0.5305300   -5.9236670   -0.2237220  
H     4.0143720   -5.4238610    0.2799490  
H     4.4491470   -2.4857940    0.7252580  
C    -3.6324990    1.5397510   -0.4831760  
C    -4.9363670    1.1150020   -0.4875370  
C    -4.9484490   -0.3094720   -0.3029750  
C    -3.5387950   -0.7170150   -0.1793260  
N    -2.7810950    0.4475730   -0.2280450  
C    -3.0923430   -2.0135210   -0.0597470  
C    -4.1558760   -3.0478440   -0.1012690  
O    -3.9204300   -4.2494430   -0.1366770  
C    -5.6703430   -2.6153670   -0.1040580  
O    -6.5112060   -3.5001290   -0.0206500  
C    -5.9778070   -1.2072040   -0.2316010  
H    -5.8060460    1.7525720   -0.5593170  
H    -7.0201390   -0.9107160   -0.2858910  
H    -1.8330890    0.4238760   -0.5846170  
C    -3.6371420    3.8718600   -1.4348690  
C    -3.1079870    2.8699910   -0.6674270  
C    -1.9187120    3.4830260   -0.0424720  
C    -1.9092160    4.8762530   -0.5834920  
N    -2.9166110    5.0848260   -1.3906030  
C    -0.9036800    5.8290200   -0.2050140  
C     0.0304160    5.4380550    0.6959590  
O     1.0173940    6.2248300    1.1462670  
C     0.0228400    4.0556290    1.2926700  
O     0.8797270    3.7927210    2.1322570  
C    -1.0081210    3.0822580    0.8646850  
H    -0.9197200    6.8286870   -0.6243900  
H     1.5115100    5.6833180    1.8001930  
H    -0.9798990    2.0995080    1.3246750  
H    -4.5154900    3.8091880   -2.0664490  
