64


C    -3.8122400    0.0665800    0.0680700  
C    -4.1977510   -1.2208990    0.4184930  
C    -5.5888850   -1.3553640    0.1189720  
C    -6.0165510   -0.1101040   -0.4179190  
N    -4.9275000    0.7295440   -0.4252820  
C    -7.3341520    0.1187110   -0.8348650  
C    -8.2365360   -0.9259020   -0.7097860  
O    -9.5351630   -0.7574100   -1.1025780  
C    -7.8270470   -2.1767410   -0.1752270  
O    -8.8419560   -3.1169480   -0.1129540  
C    -6.5273960   -2.4013340    0.2374660  
H    -3.5409510   -2.0097480    0.7579340  
H    -4.8675050    1.6390840   -0.8595740  
H    -7.6644290    1.0671200   -1.2460670  
H    -9.9927000   -1.6000610   -0.9400610  
H    -8.4852350   -3.9490610    0.2306920  
H    -6.2388200   -3.3694760    0.6431080  
C    -0.4339640   -0.7014090    2.7816360  
C     0.4437680    0.2122300    2.2615150  
C    -0.2217870    0.8657230    1.1664400  
C    -1.5175030    0.2940900    1.0767090  
N    -1.6082980   -0.6703760    2.0572700  
C    -2.5090250    0.7178860    0.1605180  
C    -2.1404260    1.8202300   -0.6189220  
O    -3.0310840    2.3768350   -1.5021240  
C    -0.8493320    2.3984230   -0.5610510  
O    -0.6668420    3.4310190   -1.4629650  
C     0.1499880    1.9213140    0.2887260  
H     1.4432840    0.4053180    2.6224220  
H    -2.4715740   -1.1240000    2.3145860  
H    -2.5445230    3.1169050   -1.9167470  
H    -0.2217110    4.1638740   -0.9859590  
H    -0.3164000   -1.3882490    3.6075970  
C     4.0370600   -0.1695590   -0.0493640  
C     4.8511410    0.9631570   -0.0173290  
C     4.0026080    2.0979830    0.1140980  
C     2.6640110    1.6130730    0.1624670  
N     2.7207410    0.2460860    0.0530710  
C     1.5314310    2.4585180    0.2627880  
C     1.8244130    3.8209360    0.3003480  
O     0.7957640    4.7402730    0.3751450  
C     3.1499200    4.3241030    0.2594430  
O     3.2161830    5.7045530    0.3128680  
C     4.2413720    3.4870930    0.1730120  
H     5.9315550    0.9747270    0.0120180  
H     1.9542660   -0.4079530    0.1646580  
H     1.2050470    5.6235360    0.4244400  
H     4.1417060    5.9847880    0.3657500  
H     5.2513030    3.8894120    0.1361410  
C     7.6397160   -2.1461410   -1.5997140  
C     7.3328210   -3.4356380   -1.3040790  
C     6.0218080   -3.4381910   -0.6913550  
C     5.5944250   -2.0267470   -0.6358970  
N     6.6361970   -1.2853510   -1.1648610  
C     4.3880930   -1.5740620   -0.1539560  
C     3.4298740   -2.6344870    0.2304770  
O     2.2578240   -2.4106780    0.5009500  
C     3.9137420   -4.1334360    0.2883670  
O     3.1433020   -4.9629710    0.7490040  
C     5.2353020   -4.4504940   -0.2241800  
H     7.9477560   -4.3033640   -1.4937710  
H     5.5497320   -5.4891630   -0.2242610  
H     8.5204360   -1.7418300   -2.0811260  
H     6.5131640   -0.3358200   -1.4873290  
