62


C     4.7638670   -1.5719160   -1.7140910  
C     5.0859310   -0.5211560   -0.8794710  
C     6.2373930   -0.9572430   -0.1116130  
C     6.5549340   -2.2722190   -0.5396640  
N     5.6389560   -2.6165100   -1.5133920  
C     7.6093450   -3.0140620    0.0067400  
C     8.3578050   -2.4193570    1.0101380  
O     9.3976420   -3.0961640    1.5742810  
C     8.0472050   -1.1086090    1.4637800  
O     8.8753270   -0.6603690    2.4733110  
C     7.0053310   -0.3784440    0.9233750  
H     5.6176950   -3.4946240   -2.0082910  
H     7.8516260   -4.0208460   -0.3177950  
H     9.7763310   -2.5231050    2.2633160  
H     8.5812960    0.2129610    2.7722590  
H     6.7792010    0.6171120    1.2972530  
H     3.9831020   -1.6383850   -2.4582040  
C     0.7251330    0.5977060   -0.5155170  
C     1.9325690   -0.0831810   -0.6151330  
C     2.9758120    0.8787690   -0.7106980  
C     2.3606310    2.1625480   -0.6613380  
N     1.0024380    1.9657050   -0.5100220  
C     3.0845340    3.3547350   -0.7309100  
C     4.4628330    3.2443230   -0.8450420  
O     5.2260960    4.3665760   -0.9351450  
C     5.0999490    1.9729490   -0.8807140  
O     6.4705030    2.0534220   -1.0154340  
C     4.3925270    0.7769680   -0.8118370  
H     2.0462120   -1.1562100   -0.5572010  
H     0.3081950    2.6764750   -0.6856490  
H     2.6214810    4.3352210   -0.6989350  
H     6.1493220    4.0763090   -1.0433710  
H     6.8303030    1.1581070   -1.1381250  
C    -1.0974350   -1.1307320   -0.8117560  
C    -0.6112160    0.0851070   -0.4129140  
C    -1.7903090    0.7617020    0.1866540  
C    -2.8981270   -0.2095770    0.0276550  
N    -2.4678700   -1.3035290   -0.5491770  
C    -4.2603770    0.0686460    0.4835870  
C    -4.4241830    1.2769260    1.1198540  
O    -5.5970350    1.6966660    1.6501750  
C    -3.3235440    2.2410840    1.3318680  
O    -3.5737290    3.2951880    1.9314750  
C    -1.9697920    1.9251290    0.8372090  
H    -5.3837710    2.5708660    2.0499490  
H    -1.1895730    2.6501570    1.0470110  
H    -0.5557640   -1.9245970   -1.3102250  
C    -5.1543980   -2.2719440    0.1580220  
C    -5.3173830   -0.9157900    0.2828830  
C    -6.7774150   -0.7204580    0.1134990  
C    -7.3061340   -2.1048060   -0.0802840  
N    -6.3522380   -2.9952820   -0.0419470  
C    -8.7031240   -2.3721150   -0.2940570  
C    -9.5482770   -1.3159840   -0.3517890  
O   -10.8717190   -1.4101070   -0.5561550  
C    -9.0466860    0.0922230   -0.1976970  
O    -9.8714020    1.0020160   -0.2743870  
C    -7.6087300    0.3374420    0.0381340  
H    -9.0421660   -3.3947240   -0.4170370  
H   -11.1997750   -0.4835310   -0.5509230  
H    -7.3012220    1.3665480    0.1686050  
H    -4.2189480   -2.8102490    0.1909170  
