60


C    -6.4028600    0.1151080    2.7378910  
C    -7.2605060   -0.7147410    2.0671170  
C    -6.6164860   -1.0866450    0.8374430  
C    -5.3498020   -0.4490500    0.8238670  
N    -5.2322640    0.2568260    2.0085280  
C    -4.4384530   -0.5524300   -0.2500540  
C    -4.8509240   -1.3343600   -1.3322800  
O    -4.0116630   -1.5189970   -2.3860540  
C    -6.1129830   -1.9824730   -1.3304670  
O    -6.3523190   -2.7312280   -2.4686420  
C    -6.9903970   -1.8752940   -0.2679380  
H    -8.2388320   -1.0267530    2.4062890  
H    -4.5273320    0.9578420    2.1818680  
H    -4.5103670   -1.9958890   -3.0723290  
H    -7.2869830   -2.9834350   -2.4976830  
H    -7.9503720   -2.3870340   -0.2925810  
H    -6.5158230    0.6143550    3.6899210  
C    -1.1021250   -0.8318570    2.5589920  
C    -0.2416480    0.0671170    2.0100560  
C    -0.8633630    0.5862790    0.8112180  
C    -2.1798290   -0.0818310    0.7144240  
N    -2.2576210   -0.9351120    1.8007920  
C    -3.1270680    0.1276670   -0.2495890  
C    -2.7960830    1.1367600   -1.2732990  
O    -3.5840450    1.5080290   -2.1241890  
C    -1.3672690    1.7887130   -1.2537160  
O    -1.0284330    2.4553650   -2.2143450  
C    -0.4573980    1.5195370   -0.1109640  
H     0.7301560    0.3369040    2.3934120  
H    -0.9900000   -1.4280320    3.4550320  
H    -3.0548310   -1.5188590    2.0027820  
C     3.8440200    0.2363060    0.0250870  
C     2.4653020    0.2719220   -0.0095800  
C     2.0559650    1.6467380   -0.0021640  
C     3.3008500    2.4493440    0.0293390  
N     4.3362860    1.5466860    0.0645920  
C     3.3556430    3.8076720   -0.0036130  
C     2.1064630    4.5459320   -0.0722940  
O     2.0437480    5.7647350   -0.1410910  
C     0.7654920    3.7303490   -0.0370220  
O    -0.2833900    4.3379280    0.0814540  
C     0.8163630    2.2414740   -0.0625820  
H     1.8313000   -0.5978070   -0.0469660  
H     4.2870580    4.3651950   -0.0064480  
H     5.3192820    1.7734830    0.0462790  
C     2.9775380   -4.0855950   -0.0726980  
C     4.2207440   -4.6148850   -0.0907480  
C     5.1229570   -3.4705250   -0.0580310  
C     4.2121100   -2.2816940   -0.0231320  
N     2.9676410   -2.6536750   -0.0276850  
C     4.7330720   -0.9087110    0.0125890  
C     6.1032250   -0.8060760    0.0229910  
O     6.7734990    0.3655680    0.0558550  
C     7.0220060   -1.9809860   -0.0060020  
O     8.2348740   -1.7495310    0.0058320  
C     6.4631170   -3.3387970   -0.0483330  
H     4.5074540   -5.6566330   -0.1236960  
H     7.7267540    0.1089360    0.0495060  
H     7.1640470   -4.1677090   -0.0691730  
H     2.0260070   -4.6024020   -0.0894000  
