62


C     5.6573390   -1.5180070   -0.9336200  
C     4.4573220   -1.0764820   -0.3970860  
C     3.6598080   -2.2619640   -0.1456530  
C     4.4304210   -3.3737310   -0.5595620  
N     5.6405580   -2.8817610   -1.0278760  
C     3.9754900   -4.6936350   -0.4621310  
C     2.7085840   -4.8950410    0.0667330  
O     2.2099790   -6.1571150    0.1748970  
C     1.9301820   -3.7924940    0.5088830  
O     0.7043220   -4.1353160    1.0367730  
C     2.3914670   -2.4926310    0.4201090  
H     6.3803490   -3.4414890   -1.4244710  
H     4.5648700   -5.5461680   -0.7832260  
H     1.3099840   -6.0830570    0.5375940  
H     0.1859010   -3.3283260    1.1874900  
H     1.7861830   -1.6876710    0.8270380  
H     6.5027610   -0.9450070   -1.2864160  
C     4.0877160    0.2974590   -0.1801390  
C     4.8485830    1.4311490   -0.0127950  
C     3.9638390    2.5495570    0.1358970  
C     2.5861920    2.0002330    0.0506780  
N     2.7293680    0.6460510   -0.1050730  
C     1.4175100    2.7240170    0.0970630  
C     1.5992800    4.1736700    0.1401830  
O     0.6831150    4.9800590   -0.0414800  
C     3.0284850    4.7740860    0.4060530  
O     3.1112970    5.9743620    0.6265550  
C     4.1726470    3.8829060    0.3405230  
H     5.9270400    1.4654610    0.0435320  
H     5.1615210    4.3141320    0.4586760  
H     1.9721430    0.0414160   -0.3874460  
C    -0.3807840   -0.6445970    2.4806780  
C     0.4358980    0.3528780    2.0097130  
C    -0.2466750    0.9896870    0.9135130  
C    -1.4956980    0.3315250    0.7785390  
N    -1.5359350   -0.6849390    1.7160190  
C    -2.4742510    0.6954780   -0.1702840  
C    -2.1541540    1.7967700   -0.9646220  
O    -3.0566790    2.2722420   -1.8547640  
C    -0.9123330    2.4807670   -0.8465300  
O    -0.7853730    3.5324430   -1.7164130  
C     0.0817090    2.0769170    0.0467250  
H     1.4027920    0.6169230    2.4128150  
H    -2.3696280   -1.2035370    1.9478830  
H    -2.6288030    3.0430540   -2.2775300  
H    -0.3455130    4.2664790   -1.2181840  
H    -0.2478880   -1.3192640    3.3154420  
C    -5.8404320   -0.1217170    2.6227120  
C    -4.6843940    0.3118350    2.0568270  
C    -4.6627990   -0.1749930    0.6887420  
C    -5.9237540   -0.9325290    0.5048630  
N    -6.5788060   -0.8818460    1.7215680  
C    -6.3200070   -1.5186810   -0.6548860  
C    -5.4431590   -1.4075750   -1.8103280  
O    -5.7190920   -1.8634320   -2.9100020  
C    -4.0616000   -0.6770290   -1.6265420  
O    -3.2636700   -0.7121680   -2.5443310  
C    -3.7543980   -0.0215860   -0.3240160  
H    -3.9364290    0.9351840    2.5235390  
H    -7.2624070   -2.0457160   -0.7679380  
H    -6.2224570    0.0496910    3.6205040  
H    -7.5061070   -1.2406850    1.8869020  
