64


C     5.2534290    1.4724930   -1.8487320  
C     6.4806260    1.0613690   -2.2926090  
C     7.0017980    0.1490600   -1.3138570  
C     6.0329250    0.0444340   -0.2834570  
N     4.9632000    0.8673610   -0.6255630  
C     6.2009270   -0.7876080    0.8295520  
C     7.3757570   -1.5179080    0.9092190  
O     7.5945610   -2.3417460    1.9773890  
C     8.3615930   -1.4202540   -0.1083800  
O     9.4764720   -2.2087660    0.1150330  
C     8.1887080   -0.6034270   -1.2097500  
H     6.9660880    1.3850310   -3.2034890  
H     5.4629780   -0.8646260    1.6191370  
H     8.4703460   -2.7455690    1.8518800  
H    10.1207050   -2.0616390   -0.5929070  
H     8.9549780   -0.5481620   -1.9808670  
H     4.5555140    2.1826040   -2.2700790  
C     0.9661640   -0.1931760   -1.9378170  
C     0.2716410    0.2200110   -0.8185870  
C     1.2667820    0.7456280    0.0982110  
C     2.5249920    0.6177060   -0.5391550  
N     2.3126320    0.0455990   -1.7732180  
C     3.7345980    1.0032830    0.0674870  
C     3.6629740    1.5264600    1.3569780  
O     4.7943420    1.9335580    1.9914050  
C     2.4082880    1.6319870    2.0162440  
O     2.5064120    2.1528010    3.2911360  
C     1.2225970    1.2567690    1.4139690  
H     3.0409370   -0.1684250   -2.4381440  
H     4.5307990    2.2514580    2.8728500  
H     1.6213320    2.2442680    3.6741520  
H     0.2798340    1.3494740    1.9462770  
H     0.5879870   -0.6229760   -2.8541140  
C    -2.6786910   -3.1126850   -1.4609750  
C    -1.5340990   -2.3677870   -1.3620700  
C    -1.9132580   -1.0607440   -0.8981450  
C    -3.3193360   -1.0805400   -0.7177850  
N    -3.7589810   -2.3491440   -1.0503980  
C    -4.0684920    0.0309270   -0.2739270  
C    -3.3312380    1.1876050   -0.0105480  
O    -3.9649850    2.2965200    0.4579530  
C    -1.9262930    1.2252200   -0.1865070  
O    -1.3697520    2.4569080    0.1087850  
C    -1.1864120    0.1271300   -0.6226070  
H    -0.5322650   -2.7108030   -1.5766010  
H    -4.7283530   -2.6016640   -1.1674930  
H    -3.3132720    3.0196230    0.4548030  
H    -0.4550690    2.4732810   -0.2192600  
H    -2.8206430   -4.1372890   -1.7747090  
C    -6.6004420   -2.5405930    2.2189560  
C    -7.8276430   -2.0542990    1.8949370  
C    -7.6303230   -0.9923660    0.9302380  
C    -6.1669900   -0.9021150    0.7139870  
N    -5.6019190   -1.8831210    1.5128100  
C    -5.5350210   -0.0083340   -0.1029460  
C    -6.4122090    0.9083240   -0.8680480  
O    -5.9904150    1.6741860   -1.7155100  
C    -7.9665430    0.8597640   -0.6139260  
O    -8.6759240    1.6702260   -1.1912240  
C    -8.4938970   -0.1534850    0.2951360  
H    -8.7760410   -2.3929260    2.2859380  
H    -9.5679600   -0.1874340    0.4501620  
H    -6.3372100   -3.3305010    2.9103920  
H    -4.6083710   -2.0051970    1.6364120  
