60


C     3.3990270   -0.4205120   -0.0477310  
C     3.9186480    0.8539090   -0.3442870  
C     5.3194940    0.7960420   -0.1937600  
C     5.6422790   -0.5435100    0.1979690  
N     4.4711790   -1.2435880    0.2733830  
C     6.9560420   -0.9613850    0.4336120  
C     7.9606420   -0.0205530    0.2698120  
O     9.2529610   -0.3680470    0.4828410  
C     7.6587070    1.3228980   -0.1252640  
O     8.7776830    2.1176270   -0.2395010  
C     6.3675640    1.7357840   -0.3568310  
H     3.3486920    1.7002440   -0.6956310  
H     4.3344650   -2.2294400    0.4658800  
H     7.2086040   -1.9736930    0.7294270  
H     9.8031220    0.4176680    0.3151110  
H     8.5220620    3.0104260   -0.5157890  
H     6.1573510    2.7602200   -0.6558610  
C    -0.6203120    1.5737770   -0.0818670  
C     0.7315700    1.2934550    0.0412650  
C     0.9116490   -0.1070150   -0.1272150  
C    -0.4320470   -0.6738000   -0.3481570  
N    -1.2978230    0.3910810   -0.3552670  
C    -0.7440350   -2.0065530   -0.5115420  
C     0.3715860   -2.9364500   -0.4110060  
O     0.2806900   -4.1457690   -0.5684130  
C     1.8029820   -2.3757280   -0.0736170  
O     2.6647830   -3.2047360    0.1927400  
C     2.0546900   -0.9135260   -0.0874440  
H     1.4932540    2.0164660    0.2858570  
H    -2.3074880    0.3442060   -0.3643620  
C    -2.9505630   -1.9282910   -1.7399960  
C    -2.0990160   -2.4770910   -0.8212740  
C    -2.8328010   -3.5893120   -0.2046410  
C    -4.1690700   -3.6187940   -0.8491030  
N    -4.1716940   -2.5868170   -1.7662860  
C    -5.1555620   -4.5038550   -0.5540100  
C    -4.9061240   -5.4978220    0.4828170  
O    -5.7297410   -6.3345750    0.8217070  
C    -3.5064730   -5.4737660    1.1973440  
O    -3.2826080   -6.2785050    2.0868530  
C    -2.5153010   -4.4754810    0.7718100  
H    -6.1228950   -4.5042550   -1.0471190  
H    -1.5436210   -4.5009140    1.2501690  
H    -2.7708640   -1.1047730   -2.4191230  
H    -4.9357460   -2.3690420   -2.3865680  
C    -1.3524710    2.7932790    0.0383740  
C    -0.9118860    4.0721590    0.2969070  
C    -2.0914850    4.8879350    0.3096760  
C    -3.2134090    3.9298670    0.0330480  
N    -2.7752000    2.7114190   -0.1251310  
C    -4.5794800    4.3711680   -0.0348640  
C    -4.8203330    5.6905180    0.1598160  
O    -6.0355400    6.2461910    0.1257280  
C    -3.7102500    6.6843330    0.4404170  
O    -4.0493820    7.8602810    0.5999450  
C    -2.3324390    6.2134830    0.5058970  
H     0.1043900    4.4027740    0.4596450  
H    -5.3759580    3.6628100   -0.2333620  
H    -5.8821850    7.2036910    0.3024760  
H    -1.5601250    6.9482490    0.7102340  
