60


C     5.8701170   -1.5609410   -1.8710180  
C     7.2174500   -1.4027570   -1.9539280  
C     7.6083940   -0.4676880   -0.9305630  
C     6.4335530   -0.0589800   -0.2563640  
N     5.3516120   -0.7400080   -0.8533850  
C     6.4746970    0.7917100    0.8520980  
C     7.7141180    1.2696880    1.2536080  
O     7.7942180    2.1129860    2.3216270  
C     8.8958700    0.8916400    0.5682350  
O    10.0464880    1.4489760    1.0832510  
C     8.8547200    0.0278180   -0.5123640  
H     7.8658220   -1.8798020   -2.6763430  
H     5.5921960    1.1134800    1.3879550  
H     8.7315590    2.3431950    2.4419060  
H    10.8103440    1.1668380    0.5584920  
H     9.7711300   -0.2729590   -1.0156440  
H     5.1901680   -2.1357180   -2.4809360  
C     2.3178030   -3.8961780   -0.3778640  
C     3.5123140   -3.2853590   -0.5691310  
C     3.2337380   -1.8598620   -0.4491550  
C     1.7793090   -1.7894180   -0.1817930  
N     1.2536120   -2.9842760   -0.1461750  
C     1.0585910   -0.5235080    0.0232180  
C     1.8487440    0.5945830   -0.0101920  
O     1.3889640    1.8472930    0.2104910  
C     3.3090490    0.5681620   -0.2819570  
O     3.8925510    1.6510700   -0.3457960  
C     4.0077810   -0.7402900   -0.4963000  
H     4.4753960   -3.7429190   -0.7421550  
H     2.1741700    2.4286840    0.0951740  
H     2.1015300   -4.9573850   -0.3739850  
C    -1.0995140   -1.5570880    0.8190570  
C    -0.3755380   -0.5273380    0.2758240  
C    -1.3969340    0.5064380   -0.0137280  
C    -2.6792200   -0.1018270    0.4506680  
N    -2.4803730   -1.2967920    0.9385990  
C    -3.9722840    0.5709990    0.3434220  
C    -3.9331890    1.8235630   -0.2075730  
O    -5.0074560    2.6266030   -0.3282450  
C    -2.6774990    2.4364500   -0.7226850  
O    -2.7499580    3.5647030   -1.2154240  
C    -1.3959260    1.7116400   -0.6106480  
H    -4.6665660    3.4414670   -0.7626360  
H    -0.5116180    2.2126720   -0.9804550  
H    -0.7160300   -2.5144190    1.1376040  
C    -5.2289010   -0.9802490    1.8640690  
C    -5.1858530   -0.0956120    0.8158140  
C    -6.5493010   -0.0343610    0.2800220  
C    -7.3697430   -0.9326950    1.1328770  
N    -6.5055990   -1.4560830    2.0756820  
C    -8.6946940   -1.1734450    0.9707670  
C    -9.3867490   -0.5228550   -0.1362530  
O   -10.5776810   -0.6739430   -0.3629620  
C    -8.5386030    0.4021590   -1.0792280  
O    -9.0882460    0.9429620   -2.0262690  
C    -7.1116900    0.5863490   -0.7901670  
H    -9.2616000   -1.8388520    1.6148800  
H    -6.5564320    1.2440070   -1.4454180  
H    -4.4095980   -1.3203930    2.4784510  
H    -6.7599250   -2.1374460    2.7740770  
