60


C     6.0345150   -2.2346630   -1.6501090  
C     5.4712640   -1.3496240   -0.7491160  
C     6.5775670   -0.6814250   -0.0924010  
C     7.7703200   -1.2089940   -0.6475490  
N     7.4039360   -2.1540120   -1.5892130  
C     9.0457670   -0.8056730   -0.2361960  
C     9.1225920    0.1490060    0.7657100  
O    10.3390640    0.5815770    1.2004060  
C     7.9403270    0.6752390    1.3521210  
O     8.1802610    1.5992220    2.3486890  
C     6.6828720    0.2704900    0.9428880  
H     8.0422180   -2.6621060   -2.1818090  
H     9.9577820   -1.2095990   -0.6635160  
H    10.1806640    1.2410080    1.8980320  
H     7.3403650    1.9443350    2.6860620  
H     5.7968790    0.6749020    1.4263040  
H     5.5453630   -2.8901860   -2.3565120  
C     3.0800560   -2.1442380   -0.4619670  
C     4.0417470   -1.1855360   -0.5380170  
C     3.2902390    0.0842700   -0.4389510  
C     1.8563750   -0.3225260   -0.3285230  
N     1.7632210   -1.6264380   -0.3266680  
C     0.7715810    0.6455040   -0.2339560  
C     1.1747570    1.9560700   -0.1170660  
O     0.3365720    2.9658200    0.1312160  
C     2.6023990    2.3883690   -0.2373490  
O     2.8502500    3.5904820   -0.1373020  
C     3.6564680    1.3771490   -0.4385230  
H     0.8855590    3.7812190    0.1069590  
H     4.6797010    1.7258830   -0.5312240  
H     3.2176560   -3.2182370   -0.4775820  
C    -1.6881200   -2.6563070    1.4359550  
C    -2.9295510   -2.1884650    1.1163710  
C    -2.7498710   -0.9881780    0.3432380  
C    -1.2851470   -0.7693860    0.2815900  
N    -0.7008380   -1.8072820    0.9814720  
C    -0.6604120    0.3097280   -0.2964670  
C    -1.5486290    1.1593700   -1.1307630  
O    -1.1218520    1.9388510   -1.9618470  
C    -3.1079960    1.0083050   -1.0131590  
O    -3.7896390    1.7811830   -1.6583680  
C    -3.6610790   -0.1076640   -0.2117040  
H    -3.8702920   -2.6271400    1.4075130  
H    -1.4184680   -3.5501420    1.9837270  
H     0.2658720   -2.0671160    0.7606290  
C    -5.0965640   -0.2563080   -0.0794600  
C    -5.8403810   -1.4105140   -0.0572200  
C    -7.2126520   -0.9947380    0.0991880  
C    -7.1328010    0.4999550    0.1828590  
N    -5.9122230    0.9278860    0.0709770  
C    -8.3139170    1.3058710    0.3712230  
C    -9.5047500    0.6677450    0.4444430  
O   -10.6858210    1.2837220    0.6085270  
C    -9.6168640   -0.8362620    0.3455090  
O   -10.7474960   -1.3208770    0.4273070  
C    -8.4030850   -1.6380640    0.1700900  
H    -5.4927840   -2.4220000   -0.2108190  
H    -8.2294430    2.3848780    0.4357460  
H   -11.3503530    0.5582130    0.6210100  
H    -8.5222640   -2.7158580    0.1143710  
