60


C     3.9141940   -1.1197200    0.0085550  
C     4.2855710    0.1950820    0.3055340  
C     5.6743330    0.3213320    0.0353680  
C     6.1260150   -0.9496570   -0.4274890  
N     5.0442390   -1.7909470   -0.4380740  
C     7.4589060   -1.1900680   -0.7838410  
C     8.3494000   -0.1344420   -0.6705610  
O     9.6589730   -0.3100950   -1.0023670  
C     7.9150540    1.1432680   -0.2094820  
O     8.9262350    2.0836480   -0.1574530  
C     6.6031890    1.3810750    0.1408600  
H     3.6634320    0.9631130    0.7420080  
H     5.0223910   -2.7872210   -0.6198320  
H     7.8090450   -2.1547450   -1.1354140  
H    10.1115120    0.5376710   -0.8498530  
H     8.5704880    2.9218650    0.1729030  
H     6.2918510    2.3637050    0.4893610  
C    -0.1836840    0.4510790    0.4047130  
C    -0.8423950   -0.7560180    0.5687050  
C     0.1283240   -1.8099330    0.4713340  
C     1.4262990   -1.1495990    0.2558320  
N     1.1719870    0.2014790    0.2336570  
C     2.6381890   -1.7954290    0.1182450  
C     2.5522900   -3.2734920    0.0648620  
O     3.5051810   -3.9916090   -0.2159300  
C     1.1810170   -3.9918760    0.3681250  
O     1.1842350   -5.2151370    0.4193270  
C     0.0040210   -3.1720860    0.5498000  
H    -1.8768390   -0.9026450    0.8401840  
H    -0.9431760   -3.6664250    0.7401680  
H     1.8335030    0.9454020    0.0602860  
C    -4.2449900    2.0259020   -0.2542550  
C    -3.9793080    3.3565960   -0.0717700  
C    -2.5794210    3.4979430    0.2229730  
C    -2.0177470    2.1300120    0.2183620  
N    -3.0729720    1.2797110   -0.0222310  
C    -0.6880340    1.8126510    0.3948800  
C     0.2264700    2.9687770    0.5198590  
O     1.4467050    2.8706810    0.4961130  
C    -0.3743120    4.4120940    0.6787590  
O     0.3926320    5.3265690    0.9369320  
C    -1.8035900    4.5898950    0.4786200  
H    -4.7038140    4.1579450   -0.0961480  
H    -2.2031810    5.5979420    0.5234370  
H    -2.9313910    0.3444450   -0.3826730  
C    -6.4598640    1.9182910   -1.4097230  
C    -5.4748450    1.3666760   -0.6288040  
C    -5.9267150    0.0190960   -0.2811010  
C    -7.2449310   -0.1525370   -0.9381100  
N    -7.5039380    1.0445290   -1.5929610  
C    -8.0055580   -1.2703210   -0.8690120  
C    -7.5060060   -2.4012810   -0.0829860  
O    -8.1163470   -3.4504060    0.0283440  
C    -6.1286450   -2.2336740    0.6514630  
O    -5.6997860   -3.1505770    1.3299300  
C    -5.4021930   -0.9651510    0.4937060  
H    -8.9709280   -1.3697140   -1.3554740  
H    -4.4688030   -0.8606960    1.0369300  
H    -6.4760070    2.8938910   -1.8775000  
H    -8.3121310    1.2205710   -2.1708360  
