62


C     3.8310270    1.1727390   -0.0288600  
C     4.1063500   -0.1897530    0.0791360  
C     5.4718700   -0.3218100    0.4427100  
C     6.0094330    0.9955170    0.5505670  
N     5.0000020    1.8750310    0.2621970  
C     7.3449920    1.2380700    0.8964290  
C     8.1514460    0.1373200    1.1370900  
O     9.4593120    0.3130350    1.4770530  
C     7.6324300   -1.1868740    1.0346710  
O     8.5680830   -2.1684480    1.3071220  
C     6.3186140   -1.4259880    0.6946180  
H     3.3869300   -0.9731430   -0.1007580  
H     5.0601150    2.8823640    0.2347080  
H     7.7604720    2.2368730    0.9799850  
H     9.8459030   -0.5712890    1.6005590  
H     8.1543950   -3.0396990    1.2189520  
H     5.9418810   -2.4443680    0.6223930  
C    -0.1738210   -0.4398020   -0.8986190  
C    -0.8636820    0.7152510   -1.1538320  
C     0.0901060    1.7917730   -1.0080240  
C     1.3657580    1.1054580   -0.6358180  
N     1.2066100   -0.1797520   -0.5749700  
C     2.6050490    1.8539010   -0.3777470  
C     2.4894980    3.2171540   -0.5022750  
O     3.5246550    4.0760920   -0.2995640  
C     1.2408910    3.9144400   -0.8778550  
O     1.2761770    5.1512540   -0.9610210  
C     0.0218280    3.1345580   -1.1299370  
H    -1.8853660    0.8189390   -1.4926460  
H     3.1320990    4.9651570   -0.4680240  
H    -0.8774950    3.6826160   -1.3943570  
C    -4.0843380   -1.9739120    0.4234250  
C    -3.8382060   -3.3093380    0.1824670  
C    -2.5149240   -3.4158190   -0.3514700  
C    -1.9899120   -2.1026350   -0.4314580  
N    -2.9691210   -1.2434200    0.0197450  
C    -0.6727590   -1.8078890   -0.8644010  
C     0.1057810   -2.9169570   -1.2410010  
O     1.3622170   -2.7509130   -1.7226500  
C    -0.4230260   -4.2348020   -1.1850390  
O     0.4709240   -5.2007160   -1.6073520  
C    -1.7074190   -4.4981860   -0.7538310  
H    -4.5436990   -4.1152960    0.3328740  
H    -2.7932320   -0.2798790    0.2670160  
H     1.7003270   -3.6358350   -1.9489860  
H     0.0348180   -6.0652270   -1.6216460  
H    -2.0798090   -5.5198960   -0.7183900  
C    -6.0567440   -1.8285000    1.9774640  
C    -5.2504880   -1.3232640    0.9968130  
C    -5.8122650   -0.0227720    0.6344390  
C    -7.0051610    0.1737730    1.4966910  
N    -7.1084480   -0.9681460    2.2658160  
C    -7.7961680    1.2763180    1.4762120  
C    -7.4736650    2.3470570    0.5372310  
O    -8.1225380    3.3780220    0.4517830  
C    -6.2343960    2.1477730   -0.4090190  
O    -5.9520590    3.0227900   -1.2115600  
C    -5.4566000    0.9095440   -0.2873240  
H    -8.6639600    1.4000170    2.1168340  
H    -4.6185140    0.7788340   -0.9641360  
H    -5.9567650   -2.7622000    2.5144250  
H    -7.7845440   -1.1069500    3.0004460  
