60


C     1.9304100    0.2585580    1.2285560  
C     2.8319900   -0.4916950    0.4649840  
C     3.8527240    0.4423670    0.0316640  
C     3.4940590    1.7120460    0.5538990  
N     2.3318160    1.5503960    1.2932880  
C     4.2141030    2.8800580    0.2984520  
C     5.3400990    2.7697700   -0.5075780  
O     6.0861860    3.8742300   -0.7898650  
C     5.7164840    1.5127060   -1.0447560  
O     6.8538070    1.5598120   -1.8296740  
C     4.9914060    0.3616080   -0.7954740  
H     1.8125730    2.2885020    1.7634100  
H     3.9179190    3.8458330    0.6933850  
H     6.8273300    3.5844530   -1.3498920  
H     7.0927220    0.6615460   -2.1021170  
H     5.3115270   -0.5888940   -1.2080260  
H     1.0427480   -0.0647620    1.7462260  
C    -0.8123310   -2.8776710   -0.0208820  
C    -0.3016420   -4.1448070   -0.0712700  
C     1.1325300   -3.9782600   -0.0030940  
C     1.3461150   -2.5087020    0.1202860  
N     0.2080320   -1.8729700    0.0757520  
C     2.6866590   -1.9179020    0.2337420  
C     3.7252290   -2.8122270    0.1162000  
O     5.0272140   -2.4499140    0.2103130  
C     3.5418490   -4.2640850   -0.0487590  
O     4.5480750   -4.9886300   -0.1009240  
C     2.1797290   -4.8246690   -0.1070240  
H    -0.8382020   -5.0765090   -0.1869950  
H     5.5187600   -3.2990910    0.1353600  
H     2.0889820   -5.8993040   -0.2357360  
C    -2.1798280   -2.4343250   -0.0704240  
C    -3.3709500   -3.1096030    0.0357660  
C    -4.4339580   -2.1496720   -0.0632540  
C    -3.7777260   -0.8272600   -0.2458010  
N    -2.4312790   -1.0664660   -0.2513460  
C    -4.4719540    0.3490360   -0.3794630  
C    -5.9394330    0.2915480   -0.3769690  
O    -6.6345050    1.2823990   -0.5465620  
C    -6.6340860   -1.1025730   -0.1747080  
O    -7.8553190   -1.1381950   -0.1615190  
C    -5.7919950   -2.2809670   -0.0304630  
H    -3.4902940   -4.1722750    0.1885210  
H    -6.2822420   -3.2407980    0.0964300  
H    -1.6825920   -0.3872400   -0.2719070  
C    -4.2124690    2.5240970   -1.5753730  
C    -3.3780960    3.5905960   -1.5959960  
C    -2.4017350    3.3984670   -0.5492670  
C    -2.7682470    2.1215150    0.1219120  
N    -3.8523470    1.6074740   -0.5663820  
C    -2.1297110    1.6291060    1.2215420  
C    -0.9473970    2.3244580    1.6884370  
O    -0.2749120    1.9494450    2.6442750  
C    -0.4661690    3.5965910    0.9047940  
O     0.6202850    4.0798340    1.2006620  
C    -1.3176670    4.1200750   -0.1568980  
H    -3.4275570    4.4275180   -2.2771680  
H    -2.4531110    0.7451740    1.7582330  
H    -1.0194700    5.0432260   -0.6437400  
H    -5.0672210    2.3026340   -2.1955360  
