60


C    -5.6653650   -1.4453330    3.5115890  
C    -4.9229300   -0.7344930    2.6066280  
C    -5.7339230   -0.5506040    1.4364480  
C    -6.9820100   -1.1740400    1.7052010  
N    -6.9067770   -1.7213810    2.9686560  
C    -8.0543000   -1.1675160    0.8068450  
C    -7.8711970   -0.4874160   -0.3857410  
O    -8.8772370   -0.4244830   -1.3021590  
C    -6.6445910    0.1628080   -0.6798160  
O    -6.6187620    0.7703540   -1.9205870  
C    -5.5502520    0.1221890    0.1945630  
H    -3.9084110   -0.3968600    2.7535600  
H    -7.6588430   -2.1986590    3.4395350  
H    -9.0042410   -1.6485700    1.0172320  
H    -8.5239370    0.1116820   -2.0375040  
H    -6.2884340    1.6857330   -1.8026460  
H    -5.4118160   -1.7876080    4.5049820  
C    -1.4667690   -1.4617710    0.1718560  
C    -0.6983760   -0.3934610   -0.2232830  
C    -1.6943450    0.6926600   -0.4179370  
C    -2.9981190    0.0612020   -0.0768930  
N    -2.8395700   -1.1914760    0.2648900  
C    -4.2726110    0.7712360   -0.1646110  
C    -4.1829470    2.0382830   -0.6658520  
O    -5.2663100    2.8422160   -0.8637070  
C    -2.9075410    2.6914710   -1.0388060  
O    -2.9528960    3.8492530   -1.4664830  
C    -1.6368070    1.9545320   -0.8798900  
H    -4.8873140    3.6843950   -1.2095720  
H    -0.7235410    2.4765980   -1.1347390  
H    -1.1161680   -2.4458400    0.4562200  
C     2.1033800   -3.5076440   -1.6700700  
C     0.9983360   -2.7860150   -1.3397100  
C     1.4436190   -1.4924960   -0.8778340  
C     2.9110400   -1.5069620   -0.9852050  
N     3.2469670   -2.7481450   -1.4816180  
C     3.7780380   -0.4879130   -0.6331910  
C     3.1230380    0.7175880   -0.1080320  
O     3.7247210    1.6983310    0.2991420  
C     1.5463490    0.8006260   -0.0810070  
O     1.0665940    1.8685940    0.2586270  
C     0.7364610   -0.3880680   -0.4260630  
H    -0.0244460   -3.1128140   -1.4404430  
H     2.1799550   -4.5161290   -2.0534010  
H     4.1954880   -3.0924030   -1.5175720  
C     5.8967180   -1.2546330   -1.7914240  
C     5.2173320   -0.5749700   -0.8074520  
C     6.3073290   -0.0157900    0.0377990  
C     7.5546880   -0.4974830   -0.6143580  
N     7.2977780   -1.2064570   -1.6852750  
C     8.8589600   -0.1888630   -0.0967000  
C     8.9330930    0.5533570    1.0349220  
O    10.0804790    0.9094640    1.6334950  
C     7.6959440    1.0433620    1.7271960  
O     7.8357480    1.7022840    2.7560960  
C     6.3643500    0.7264040    1.1601070  
H     9.7425700   -0.5553040   -0.6073280  
H     9.8124180    1.4348430    2.4194370  
H     5.5013530    1.1382220    1.6674600  
H     5.4683520   -1.7546520   -2.6528650  
