62


C    -5.1523860   -0.9606970    2.3408920  
C    -6.5076140   -1.0430700    2.3991860  
C    -7.0189980   -0.7096070    1.0946270  
C    -5.9119150   -0.4001340    0.2696170  
N    -4.7501150   -0.5523600    1.0563310  
C    -6.0609700   -0.1105300   -1.0897920  
C    -7.3480550   -0.0897730   -1.6083910  
O    -7.5355450    0.2023260   -2.9266690  
C    -8.4679300   -0.3683960   -0.7856140  
O    -9.6778160   -0.3063470   -1.4431640  
C    -8.3152950   -0.6808130    0.5541180  
H    -7.0879130   -1.2918880    3.2773680  
H    -5.2310910    0.1239820   -1.7421560  
H    -8.4925970    0.1761790   -3.0979820  
H   -10.3976050   -0.4922870   -0.8220940  
H    -9.1810210   -0.9152700    1.1698540  
H    -4.4056490   -1.0900730    3.1091810  
C    -1.1610780   -2.9936070    1.8346320  
C    -2.4578130   -2.5973580    1.7963610  
C    -2.4482350   -1.3226460    1.0876530  
C    -1.0239260   -1.1011870    0.7684080  
N    -0.2759800   -2.0792030    1.2038990  
C    -0.5653300    0.0764760    0.0363550  
C    -1.5258610    0.9412330   -0.4031740  
O    -1.2641010    2.0340560   -1.1499370  
C    -2.9633570    0.7604980   -0.0856080  
O    -3.7421390    1.6336160   -0.4690920  
C    -3.4142430   -0.4484600    0.6854120  
H    -3.3244680   -3.1165460    2.1788340  
H    -2.1326780    2.4776970   -1.2676730  
H    -0.7509470   -3.8991880    2.2641540  
C     1.6819670   -0.7280040   -0.5996390  
C     2.9607490   -0.2338120   -0.7061420  
C     2.8918110    1.1651870   -0.3244060  
C     1.5432820    1.4508750   -0.0077530  
N     0.8052700    0.2689950   -0.1944900  
C     1.1314920    2.7037020    0.4533960  
C     2.0920740    3.7014060    0.5534560  
O     1.7323620    4.9413570    0.9941580  
C     3.4377790    3.4463010    0.1966830  
O     4.2722410    4.5376010    0.3277680  
C     3.8439330    2.1958520   -0.2395950  
H     0.1060190    2.9299600    0.7104480  
H     2.5324800    5.4944000    0.9859630  
H     5.1736980    4.2914810    0.0725530  
H     4.8822220    2.0221360   -0.5104240  
H     1.3249040   -1.7350830   -0.7382270  
C     4.1747630   -1.9430290   -2.1325470  
C     4.1104540   -1.0064660   -1.1439300  
C     5.4699800   -1.0226460   -0.5527160  
C     6.2082960   -2.0393040   -1.3539150  
N     5.4437670   -2.5727550   -2.2660300  
C     7.5864730   -2.3566880   -1.0840830  
C     8.1943170   -1.7260390   -0.0501750  
O     9.4745540   -1.9284760    0.3136920  
C     7.4665840   -0.7260780    0.7966040  
O     8.0842070   -0.1889300    1.7167920  
C     6.0519020   -0.4125350    0.4967810  
H     8.1012870   -3.0917420   -1.6930880  
H     9.6184760   -1.3398230    1.0864710  
H     5.5563570    0.3052820    1.1427800  
H     3.3807300   -2.2274860   -2.8125020  
