64


C     5.2958500   -1.5797590   -2.1041580  
C     6.4618280   -2.2935820   -2.0596960  
C     7.1851490   -1.8536490   -0.9004050  
C     6.3911340   -0.8608100   -0.2684910  
N     5.2313780   -0.7018270   -1.0243500  
C     6.7823010   -0.2216150    0.9188180  
C     8.0057430   -0.5821460    1.4657190  
O     8.4330990    0.0084170    2.6187750  
C     8.8171970   -1.5649920    0.8403570  
O    10.0045290   -1.8114040    1.5029990  
C     8.4211050   -2.2017160   -0.3218280  
H     6.7741120   -3.0424940   -2.7746980  
H     6.1592820    0.5049160    1.4294710  
H     9.2943140   -0.3847660    2.8422300  
H    10.4948190   -2.5074110    1.0411920  
H     9.0560300   -2.9594710   -0.7770920  
H     4.4911540   -1.5911950   -2.8250740  
C     0.9133610   -1.3163190   -0.3583870  
C     2.2452850   -1.5009440   -0.5597980  
C     2.8549300   -0.1976830   -0.6075910  
C     1.8324620    0.7634070   -0.4223570  
N     0.6212650    0.0510300   -0.2702040  
C     2.0965550    2.1354760   -0.3828150  
C     3.4171180    2.5366370   -0.5438660  
O     3.7226640    3.8642120   -0.5165930  
C     4.4550250    1.5976320   -0.7546930  
O     5.6981680    2.1502300   -0.9419330  
C     4.1840130    0.2300590   -0.7873590  
H     2.7475110   -2.4525960   -0.6605600  
H     1.3145400    2.8649370   -0.2313010  
H     4.6871950    3.9396030   -0.6233510  
H     6.3832320    1.4637480   -0.8689880  
H     0.1202580   -2.0415560   -0.2696520  
C    -0.6501600    0.5412860   -0.0617900  
C    -1.8132190   -0.1741520    0.1275280  
C    -2.8404210    0.8118590    0.2764130  
C    -2.1192130    2.1126490    0.1463490  
N    -0.8378390    1.9447000   -0.0445580  
C    -2.7932410    3.3813420    0.2121490  
C    -4.1322630    3.3485090    0.3810050  
O    -4.9142840    4.4331810    0.4405680  
C    -4.9050940    2.0444550    0.5193370  
O    -6.1229030    2.1751550    0.6718220  
C    -4.2028820    0.7493030    0.4833850  
H    -1.9472270   -1.2439440    0.1282320  
H    -2.2373120    4.3068230    0.1144170  
H    -5.8224330    4.0770120    0.5827470  
C    -4.4053200   -1.5392290    1.4827990  
C    -4.9277060   -0.4935210    0.7369010  
C    -6.2429220   -0.9323150    0.3008500  
C    -6.4331120   -2.2418260    0.8085170  
N    -5.2985510   -2.5768060    1.5275340  
C    -7.5823290   -3.0024460    0.5643170  
C    -8.5707270   -2.4287600   -0.2188270  
O    -9.7167650   -3.1176890   -0.4868310  
C    -8.3985480   -1.1219290   -0.7458230  
O    -9.4659250   -0.6846050   -1.5075930  
C    -7.2604080   -0.3779350   -0.5009790  
H    -5.1715190   -3.4304630    2.0488210  
H    -7.7203790   -4.0038960    0.9589370  
H   -10.2771950   -2.5390780   -1.0325380  
H    -9.3186420    0.2368470   -1.7676040  
H    -7.1696070    0.6277690   -0.8974450  
H    -3.4695220   -1.5881490    2.0200990  
