62


C    -6.8217200    2.5462520    1.2238690  
C    -7.9258150    1.7420090    1.1246910  
C    -7.4604920    0.4215110    0.8059460  
C    -6.0443090    0.4957070    0.7260960  
N    -5.6810370    1.7960610    0.9982710  
C    -5.2508910   -0.6298370    0.4309330  
C    -5.9056290   -1.8436030    0.2253090  
O    -5.1803510   -2.9653380   -0.0562230  
C    -7.3170690   -1.9255850    0.3223490  
O    -7.8064840   -3.2001480    0.1055000  
C    -8.0958090   -0.8190660    0.6045610  
H    -8.9523860    2.0500720    1.2660540  
H    -4.7456800    2.1654430    0.9198180  
H    -5.8194190   -3.6881120   -0.1868280  
H    -8.7741970   -3.1755680    0.0736360  
H    -9.1773610   -0.9111040    0.6767710  
H    -6.7439380    3.6019480    1.4413340  
C    -2.9614540   -1.3199150    1.1600520  
C    -1.6658250   -1.0094170    0.9109100  
C    -1.6552680    0.0118610   -0.1141330  
C    -3.0773650    0.2731520   -0.4452690  
N    -3.8337360   -0.5596720    0.3709390  
C    -3.5038080    1.1771210   -1.3692620  
C    -2.5033100    1.9610140   -2.0791940  
O    -2.7848770    2.8137510   -2.9083190  
C    -0.9889920    1.6871350   -1.7692700  
O    -0.1441620    2.2531040   -2.4397780  
C    -0.6365950    0.6961920   -0.7194910  
H    -0.8006340   -1.4399580    1.3915470  
H    -4.5495040    1.3363100   -1.6075380  
H    -3.3802940   -2.0350950    1.8534710  
C     2.1058520   -2.8220270   -0.9588950  
C     1.0241820   -1.9998210   -1.0087390  
C     1.4547420   -0.6913810   -0.5605430  
C     2.8971980   -0.8201530   -0.2524990  
N     3.2274340   -2.1383610   -0.5133700  
C     3.7220190    0.1772410    0.1862820  
C     3.1032560    1.5067730    0.3445910  
O     3.7354760    2.5085730    0.6273840  
C     1.5551830    1.6503290    0.1128830  
O     1.0216020    2.7010710    0.4228170  
C     0.7898170    0.4975230   -0.4162950  
H     0.0278640   -2.2701580   -1.3235590  
H     2.1809450   -3.8711110   -1.2135460  
H     4.1505540   -2.5238640   -0.3856460  
C     6.9935230   -1.0873890   -2.5215310  
C     8.0129830   -1.0552240   -1.6081230  
C     7.4444160   -0.6514510   -0.3515960  
C     6.0560170   -0.4589680   -0.5682300  
N     5.8018230   -0.7573390   -1.8951810  
C     5.1645780   -0.0250880    0.4371520  
C     5.7253710    0.2133950    1.6939760  
O     4.9247240    0.5923410    2.7265720  
C     7.1116350    0.0211720    1.9271340  
O     7.4956150    0.2842600    3.2298750  
C     7.9695360   -0.4094070    0.9326520  
H     9.0500150   -1.2911120   -1.8042440  
H     4.9425390   -0.5293930   -2.3725430  
H     5.5051790    0.8057000    3.4779140  
H     8.4623220    0.3142950    3.2806440  
H     9.0278720   -0.5518760    1.1418320  
H     7.0066400   -1.3324710   -3.5742230  
