64


C    -3.9911250   -0.4946830    0.0153710  
C    -4.0181880   -1.8534030    0.2497070  
C    -5.3588140   -2.3077150    0.0331870  
C    -6.1262660   -1.1723350   -0.3385230  
N    -5.2838100   -0.0755720   -0.3054210  
C    -7.4892180   -1.2486470   -0.6461380  
C    -8.0937060   -2.4943330   -0.5686560  
O    -9.4198810   -2.6257040   -0.8610990  
C    -7.3460460   -3.6394500   -0.1823770  
O    -8.0918430   -4.8023520   -0.1442120  
C    -5.9996090   -3.5607590    0.1194150  
H    -3.1789350   -2.4442100    0.5910960  
H    -5.4818850    0.8054300   -0.7561670  
H    -8.0788420   -0.3849850   -0.9365310  
H    -9.6479080   -3.5646550   -0.7480770  
H    -7.5234020   -5.5433390    0.1125040  
H    -5.4475450   -4.4522340    0.4105560  
C    -1.5908610    0.1887670   -0.2798530  
C    -2.8888620    0.4482870    0.0714050  
C    -2.9339460    1.8370320    0.4965280  
C    -1.6285620    2.3643450    0.3772250  
N    -0.8049960    1.3339730   -0.1123420  
C    -1.3070610    3.6644860    0.7840070  
C    -2.3350360    4.4565450    1.2797030  
O    -2.0670710    5.7299160    1.6765160  
C    -3.6522400    3.9453520    1.3941950  
O    -4.5567190    4.8434180    1.9161330  
C    -3.9563490    2.6474970    1.0204280  
H    -0.3004560    4.0635760    0.7682930  
H    -2.8911530    6.1063990    2.0316570  
H    -5.4060180    4.4039810    2.0725350  
H    -4.9602330    2.2544530    1.1608500  
H    -1.1556890   -0.7012070   -0.7075920  
C     0.5419100    1.3818010   -0.4037900  
C     1.4641510    0.3686010   -0.3852310  
C     2.7143720    0.9203130   -0.8276500  
C     2.4654510    2.3488470   -1.1122770  
N     1.1326040    2.5879760   -0.7903430  
C     3.3860080    3.2275730   -1.5773610  
C     4.7433200    2.7429950   -1.7936650  
O     5.6578010    3.4593220   -2.1688990  
C     5.0500980    1.2242560   -1.5156720  
O     6.1656630    0.8018620   -1.7670950  
C     3.9628190    0.3722550   -0.9929700  
H     1.2991210   -0.6361660   -0.0285650  
H     3.1724420    4.2740610   -1.7701640  
H     0.6016370    3.3462980   -1.1953830  
C     3.4332150   -2.0232890   -1.3727820  
C     3.8969150   -3.2403170   -0.9634960  
C     5.0021740   -2.9984850   -0.0772070  
C     5.1733710   -1.5939730    0.0056610  
N     4.1953370   -1.0024610   -0.7980370  
C     6.1441660   -1.0041670    0.8228700  
C     6.9688280   -1.8479680    1.5502910  
O     7.9370080   -1.3214640    2.3571880  
C     6.8192490   -3.2567820    1.4688800  
O     7.7129900   -3.9634270    2.2531870  
C     5.8508900   -3.8365550    0.6703410  
H     3.5093830   -4.2023830   -1.2708900  
H     6.2907120    0.0668870    0.8854870  
H     8.4212410   -2.0683380    2.7487410  
H     7.6054580   -4.9113880    2.0868900  
H     5.7443290   -4.9190450    0.6300440  
H     2.6439270   -1.7696600   -2.0654260  
