62


C    -3.4625250   -0.5448080   -0.0827660  
C    -2.5466260    0.4390990    0.3116100  
C    -3.1853800    1.6983310    0.1823130  
C    -4.5067850    1.4484520   -0.2958230  
N    -4.6387850    0.0929820   -0.4483890  
C    -5.4259080    2.4764340   -0.5343800  
C    -5.0065590    3.7744280   -0.2862780  
O    -5.8567710    4.8146050   -0.4997350  
C    -3.6880910    4.0412520    0.1918430  
O    -3.4350890    5.3858430    0.3829110  
C    -2.7819250    3.0309210    0.4271550  
H    -1.5623030    0.2794970    0.7266750  
H    -5.4666660   -0.4378120   -0.6923770  
H    -6.4320450    2.2952440   -0.8968830  
H    -5.3811250    5.6311970   -0.2671430  
H    -2.5304890    5.4991620    0.7099850  
H    -1.7786710    3.2473020    0.7886190  
C     0.0588990   -3.1921260    0.0177850  
C    -0.5983890   -4.4017910    0.0317950  
C    -2.0070710   -4.1357670   -0.0259590  
C    -2.1464590   -2.6676300   -0.0581720  
N    -0.8716750   -2.1538680    0.0037370  
C    -3.3448570   -1.9844240   -0.1318230  
C    -4.5447980   -2.8409700   -0.2920980  
O    -5.6612700   -2.3924600   -0.5246650  
C    -4.4138040   -4.4077480   -0.1702840  
O    -5.4477030   -5.0635490   -0.1963290  
C    -3.0905440   -4.9755510   -0.0526560  
H    -0.1376360   -5.3779940    0.0795490  
H    -2.9962110   -6.0549950    0.0033480  
H    -0.6060320   -1.2042160   -0.2173710  
C     1.4590400   -2.8697720    0.0167440  
C     2.5494770   -3.6947230   -0.0165500  
C     3.6951640   -2.8211140   -0.0036650  
C     3.1168550   -1.4322810    0.0199980  
N     1.8122440   -1.4770960    0.0449500  
C     3.9451180   -0.2404060    0.0244960  
C     5.2928350   -0.4730550    0.0946060  
O     6.2077120    0.4924830    0.1900190  
C     5.9012650   -1.8554730    0.0781720  
O     7.1296230   -1.9278540    0.1355180  
C     5.0312480   -3.0305180    0.0138380  
H     2.5649600   -4.7750540   -0.0475230  
H     7.0749380    0.0258920    0.2093140  
H     5.5010830   -4.0087260    0.0035910  
C     0.8338060    1.8322990    2.4596440  
C     0.9822630    3.0800800    1.9101230  
C     1.9639610    2.9666720    0.8671300  
C     2.3895260    1.6132710    0.8450900  
N     1.7048220    0.9510410    1.8451700  
C     3.3853520    1.1300230   -0.0354540  
C     3.8786260    2.0559210   -0.9624000  
O     4.7777730    1.6641590   -1.9067120  
C     3.4521580    3.4095110   -0.9548150  
O     4.0598700    4.1830240   -1.9271440  
C     2.5250430    3.8789190   -0.0471640  
H     0.4799730    3.9822020    2.2331120  
H     1.6079730   -0.0550200    1.8549280  
H     5.0149520    2.4558530   -2.4206560  
H     3.7228680    5.0895120   -1.8782270  
H     2.2284620    4.9260440   -0.0516110  
H     0.1910750    1.4957370    3.2611590  
