62


C     4.1803970    1.0004900   -0.1009030  
C     4.2820060   -0.3888690   -0.0390150  
C     5.6572960   -0.7210550   -0.1473030  
C     6.3791780    0.5033290   -0.2760900  
N     5.4656410    1.5228120   -0.2451330  
C     7.7733720    0.5454180   -0.4055940  
C     8.4506150   -0.6634080   -0.4052490  
O     9.8077410   -0.6836080   -0.5279780  
C     7.7468900   -1.8971830   -0.2776680  
O     8.5721850   -3.0069920   -0.2961060  
C     6.3755480   -1.9392530   -0.1503710  
H     3.4430020   -1.0577480    0.0746830  
H     5.6548960    2.5123370   -0.3093860  
H     8.3287970    1.4722860   -0.5038340  
H    10.0844730   -1.6161650   -0.5044910  
H     8.0354220   -3.8078920   -0.2038730  
H     5.8572520   -2.8912520   -0.0543420  
C    -0.0961850   -0.0108040    0.3010950  
C    -0.6538070    1.2402620    0.2964250  
C     0.4499710    2.1623920    0.1703360  
C     1.6643450    1.2929130    0.1021220  
N     1.3441070    0.0415040    0.1774430  
C     3.0174550    1.8547490   -0.0373990  
C     3.0661230    3.2267530   -0.0985690  
O     4.2250410    3.9289730   -0.2273670  
C     1.8791760    4.1043710   -0.0309690  
O     2.0653060    5.3297850   -0.0966010  
C     0.5447770    3.5081910    0.1072070  
H    -1.7020590    1.4820200    0.3737630  
H     3.9297910    4.8701320   -0.2399590  
H    -0.3040140    4.1840040    0.1487660  
C    -4.3708820   -0.9687100    0.2317080  
C    -4.3398400   -2.3390720    0.3402330  
C    -2.9524990   -2.6984160    0.4436920  
C    -2.2191350   -1.3904180    0.3603930  
N    -3.0489340   -0.3997120    0.2445730  
C    -0.7564760   -1.2989390    0.4028200  
C    -0.1069850   -2.5055120    0.5536020  
O     1.2113700   -2.6732560    0.6470810  
C    -0.8395070   -3.8284860    0.6561190  
O    -0.1351560   -4.8344910    0.7917250  
C    -2.2920120   -3.8709890    0.5906910  
H    -5.1773180   -3.0148550    0.4449820  
H     1.3215020   -3.6506810    0.7532230  
H    -2.7719350   -4.8421420    0.6596450  
C    -8.1780860   -1.7234220   -1.8352210  
C    -8.7730150   -0.5168170   -1.5773150  
C    -7.8390850    0.2538540   -0.8076060  
C    -6.6887360   -0.5497260   -0.6158250  
N    -6.9284420   -1.7522810   -1.2424540  
C    -5.5221420   -0.1038250    0.0625980  
C    -5.5692550    1.2185680    0.5506400  
O    -4.5396220    1.7372040    1.2620940  
C    -6.7262270    2.0220370    0.3714890  
O    -6.6086080    3.2798400    0.9318030  
C    -7.8490280    1.5628230   -0.2875640  
H    -9.7581240   -0.2091110   -1.8995300  
H    -6.2284220   -2.4650940   -1.3823350  
H    -4.7987470    2.6408000    1.5192110  
H    -7.4313280    3.7746570    0.8051760  
H    -8.7193140    2.2051690   -0.4062240  
H    -8.5420290   -2.5798520   -2.3847340  
