62


C     5.2464880   -0.1331150   -2.3296620  
C     6.5288100   -0.5477650   -2.5621350  
C     7.1448370   -0.7606780   -1.2830840  
C     6.1682420   -0.4599530   -0.2975220  
N     5.0052320   -0.0709890   -0.9587790  
C     6.4194320   -0.5851750    1.0784100  
C     7.6859170   -1.0040160    1.4620560  
O     7.9810880   -1.1428530    2.7865840  
C     8.6775900   -1.2963020    0.4894430  
O     9.8852390   -1.6968740    1.0280720  
C     8.4205770   -1.1859090   -0.8652000  
H     6.9856290   -0.6807510   -3.5333070  
H     5.6627420   -0.4052130    1.8346280  
H     8.9004170   -1.4553540    2.8458620  
H    10.5039690   -1.9105800    0.3141910  
H     9.1936040   -1.4266170   -1.5925190  
H     4.4639010    0.1516530   -3.0179100  
C     0.8412640   -1.5532640   -1.3048340  
C     2.1938560   -1.4073280   -1.4249980  
C     2.5669240   -0.2638300   -0.6391540  
C     1.3857240    0.2494370   -0.0510140  
N     0.3273710   -0.5537400   -0.4757150  
C     1.3815320    1.3375710    0.8293700  
C     2.6016220    1.9378020    1.1007990  
O     2.6605840    3.0038350    1.9460700  
C     3.8002850    1.4700730    0.4997850  
O     4.9160670    2.2022220    0.8288080  
C     3.7957690    0.3753430   -0.3608230  
H     2.8529130   -2.0371160   -2.0050890  
H     0.4810110    1.7124940    1.3019810  
H     3.5970610    3.2612840    2.0164830  
H     5.7217380    1.7093320    0.5958860  
H     0.1685250   -2.2731690   -1.7485950  
C    -1.7766200   -1.3090960    0.5715530  
C    -1.0222190   -0.4103820   -0.1180770  
C    -1.8854760    0.7128680   -0.4628490  
C    -3.2149430    0.3729290    0.0901150  
N    -3.0811060   -0.8465200    0.7184910  
C    -4.3205310    1.1703930   -0.0403360  
C    -4.1541230    2.4637790   -0.7258600  
O    -5.0641720    3.2682280   -0.8396640  
C    -2.7395830    2.8229420   -1.3152090  
O    -2.6143620    3.8879180   -1.8946600  
C    -1.6450890    1.8718240   -1.1293420  
H    -0.6691680    2.1263400   -1.5281170  
H    -1.4820390   -2.2612780    0.9910210  
H    -3.8584770   -1.4100010    1.0325090  
C    -6.4113410    1.6907870    1.2132920  
C    -7.5670300    1.0870180    1.5737250  
C    -7.5558180   -0.2482640    1.0177450  
C    -6.2728330   -0.3764730    0.2803470  
N    -5.5935760    0.8259560    0.4571500  
C    -5.9175510   -1.4770280   -0.4376950  
C    -6.8260100   -2.6235050   -0.4570220  
O    -6.5812690   -3.6484070   -1.0742040  
C    -8.1640580   -2.5228170    0.3579590  
O    -8.9173180   -3.4825190    0.3819840  
C    -8.4542600   -1.2658660    1.0543480  
H    -8.3592260    1.5254830    2.1630280  
H    -5.0212820   -1.5348590   -1.0451640  
H    -9.4023140   -1.1887860    1.5780230  
H    -6.0596290    2.6897860    1.4203630  
