64


C    -3.3356400    0.6158000   -1.8689640  
C    -4.6477440    0.9850270   -1.7671760  
C    -5.2076830    0.2638100   -0.6584360  
C    -4.1742120   -0.5443010   -0.1207790  
N    -3.0237250   -0.3141540   -0.8738520  
C    -4.3642830   -1.3633820    0.9980810  
C    -5.6245150   -1.3766280    1.5743460  
O    -5.8658980   -2.1630610    2.6649420  
C    -6.6734020   -0.5798040    1.0446380  
O    -7.8700140   -0.6988270    1.7296390  
C    -6.4802350    0.2342290   -0.0555740  
H    -5.1635580    1.6771470   -2.4192390  
H    -3.5842900   -1.9968940    1.4025550  
H    -6.8075240   -2.0631790    2.8865250  
H    -8.5608360   -0.2158890    1.2528110  
H    -7.2959680    0.8431250   -0.4411970  
H    -2.5824150    0.8949320   -2.5924270  
C     0.7832110    1.6771610   -0.3407820  
C     1.5861460    0.5583490   -0.3227760  
C     0.7468150   -0.6054310   -0.4089350  
C    -0.6346200   -0.0941150   -0.5101820  
N    -0.5520250    1.2759150   -0.4450070  
C    -1.7455920   -0.8755340   -0.6689640  
C    -1.5413860   -2.3284380   -0.7332030  
O    -2.4401860   -3.1204200   -0.9604320  
C    -0.0898260   -2.8900840   -0.4786940  
O     0.0249440   -4.0920950   -0.3160800  
C     1.0447940   -1.9466150   -0.3959460  
H     2.6637680    0.5395270   -0.3433320  
H    -1.3168960    1.9189470   -0.5947780  
C     4.3694790    3.5608820    1.4218160  
C     4.0611790    4.8585150    1.1143100  
C     2.7950890    4.8385060    0.4393030  
C     2.3869370    3.4813100    0.3532290  
N     3.3707310    2.7264290    0.9532590  
C     1.1590010    3.0795090   -0.2358860  
C     0.3391280    4.1209420   -0.6988640  
O    -0.8772050    3.8413760   -1.2615990  
C     0.7421980    5.4746380   -0.6233710  
O    -0.1859000    6.3529070   -1.1491800  
C     1.9547210    5.8438830   -0.0736510  
H     4.6598060    5.7292040    1.3428590  
H     3.3007730    1.7394940    1.1525600  
H    -1.2833440    4.6911600   -1.5103210  
H     0.1364420    7.2622030   -1.0645530  
H     2.2432170    6.8918240   -0.0269380  
H     5.2277300    3.1470650    1.9317830  
C     4.0092560   -1.2594760    2.8271880  
C     5.0141460   -2.0405380    2.3219890  
C     4.5407320   -2.5926950    1.0822970  
C     3.2279710   -2.0970750    0.8804720  
N     2.9368320   -1.2649370    1.9469690  
C     2.4191810   -2.4560970   -0.2214150  
C     2.9936380   -3.3418460   -1.1367360  
O     2.3027560   -3.6969330   -2.2532640  
C     4.3096020   -3.8400530   -0.9523280  
O     4.7253780   -4.6905690   -1.9607180  
C     5.0853500   -3.4790950    0.1325320  
H     5.9799010   -2.2085170    2.7790070  
H     2.0148890   -0.9093070    2.1488160  
H     2.8216900   -4.3818280   -2.7095860  
H     5.5633320   -5.1046670   -1.7072900  
H     6.0917720   -3.8766050    0.2479430  
H     3.9612200   -0.6876520    3.7435330  
