60


C     5.7854330   -2.3152660   -2.0793310  
C     7.1468410   -2.3847280   -2.1300560  
C     7.6572540   -1.5886310   -1.0461910  
C     6.5406240   -1.0494560   -0.3610380  
N     5.3885230   -1.4944400   -1.0192830  
C     6.6745780   -0.2722460    0.7958850  
C     7.9600880    0.0012680    1.2412140  
O     8.1397370    0.7608190    2.3593350  
C     9.0896950   -0.5073260    0.5494550  
O    10.2972820   -0.1479540    1.1123640  
C     8.9516450   -1.2990500   -0.5768960  
H     7.7259290   -2.9280190   -2.8642360  
H     5.8285340    0.1083310    1.3559840  
H     9.0979290    0.8304850    2.5119540  
H    11.0233100   -0.5403130    0.6051840  
H     9.8296550   -1.6969520   -1.0816680  
H     5.0325450   -2.7415030   -2.7261700  
C     3.0288090   -2.1345280   -0.6379020  
C     4.0598500   -1.2513340   -0.6708570  
C     3.4433120    0.0691790   -0.4237220  
C     2.0021970   -0.2420420   -0.2261100  
N     1.7790090   -1.5187730   -0.3651990  
C     1.0069290    0.7969660    0.0585290  
C     1.4973130    2.0783970    0.0740410  
O     0.7485900    3.1683560    0.3490680  
C     2.9237940    2.4121310   -0.1801240  
O     3.2568950    3.5995350   -0.1339050  
C     3.8979260    1.3326520   -0.4417220  
H     1.3798800    3.9226240    0.3012700  
H     4.9318790    1.6172600   -0.6073630  
H     3.0674110   -3.2047620   -0.7956760  
C    -0.8196390   -0.7718400    0.8059840  
C    -0.3810800    0.4247410    0.3055900  
C    -1.6295900    1.1785500    0.0491920  
C    -2.7164830    0.2509840    0.4832750  
N    -2.2223690   -0.8729750    0.9272020  
C    -4.1372650    0.5837840    0.3945140  
C    -4.4141060    1.8274230   -0.1060810  
O    -5.6556180    2.3406950   -0.2012880  
C    -3.3535860    2.7555900   -0.5875750  
O    -3.7074060    3.8491540   -1.0343700  
C    -1.9307860    2.3700600   -0.4966710  
H    -5.5313220    3.2319840   -0.5999030  
H    -1.2005760    3.0911130   -0.8390040  
H    -0.2095250   -1.6151110    1.0933980  
C    -4.9610130   -1.2907200    1.8453690  
C    -5.1441180   -0.3826740    0.8327790  
C    -6.4817670   -0.6425590    0.2914020  
C    -7.0487500   -1.7500940    1.1033950  
N    -6.0776470   -2.0780610    2.0302700  
C    -8.2722440   -2.3073190    0.9238200  
C    -9.1089740   -1.8070010   -0.1613100  
O   -10.2251490   -2.2417580   -0.4013120  
C    -8.5220420   -0.6633240   -1.0622490  
O    -9.1926830   -0.2400080   -1.9909130  
C    -7.1852530   -0.1401900   -0.7571760  
H    -8.6527230   -3.1179810    1.5378840  
H    -6.8142150    0.6605930   -1.3826760  
H    -4.0804370   -1.4394330    2.4510950  
H    -6.1516320   -2.8276770    2.7005730  
