62


C     1.5858820    2.7252290    0.2531660  
C     0.5600080    1.8012700    0.3436600  
C    -0.6837130    2.5179160    0.3453590  
C    -0.3589840    3.8976460    0.2368670  
N     1.0163480    3.9935320    0.2074110  
C    -1.3211190    4.9071940    0.1806670  
C    -2.6532040    4.5267100    0.2559130  
O    -3.6307850    5.4789430    0.2287780  
C    -3.0087340    3.1632880    0.3848430  
O    -4.3756300    2.9648730    0.4842820  
C    -2.0547590    2.1416720    0.4201890  
H     0.7031030    0.7356110    0.4462440  
H     1.5305610    4.8212850   -0.0530990  
H    -1.0681130    5.9591970    0.0972510  
H    -4.4826340    5.0198810    0.3281380  
H    -4.5623170    2.0575790    0.7675850  
C    -1.8600870   -0.1807300    1.3803380  
C    -2.4404470    0.7252380    0.5500990  
C    -3.4518810   -0.0118620   -0.2240850  
C    -3.3936900   -1.4207170    0.2233770  
N    -2.4506180   -1.4627790    1.2636300  
C    -4.1099920   -2.4368890   -0.3048290  
C    -5.0537010   -2.1293080   -1.3834240  
O    -5.7556330   -2.9758990   -1.9095900  
C    -5.1591050   -0.6381600   -1.8617670  
O    -5.9399870   -0.3557840   -2.7542030  
C    -4.3008930    0.3665840   -1.2155380  
H    -4.0221310   -3.4652690    0.0295130  
H    -4.3663100    1.3874450   -1.5755950  
H    -1.0673030   -0.0343620    2.1009870  
C    -1.8177510   -3.3431800    2.7192680  
C    -0.7756920   -4.1987110    2.8329290  
C     0.0945080   -3.9910230    1.6880740  
C    -0.5452430   -2.9368880    0.8674520  
N    -1.7240510   -2.6057270    1.5240690  
C    -0.0344760   -2.4067790   -0.2728170  
C     1.2631980   -2.8828910   -0.7050240  
O     1.8461440   -2.4131150   -1.6795220  
C     1.9599330   -4.0240200    0.1168830  
O     3.0438460   -4.4337340   -0.2629640  
C     1.2829990   -4.5327720    1.3160980  
H    -0.6153680   -4.9085840    3.6314310  
H    -0.5208680   -1.6257650   -0.8456670  
H     1.7825250   -5.3108400    1.8846590  
H    -2.6662880   -3.1726520    3.3675040  
C     3.8981580    3.5272360    0.7966680  
C     3.0308300    2.5809600    0.2795010  
C     3.8528160    1.4796910   -0.1830170  
C     5.1983570    1.8295250    0.0906150  
N     5.1931250    3.0811790    0.6791390  
C     6.2815000    0.9987910   -0.2234070  
C     5.9943270   -0.2117320   -0.8294650  
O     6.9968170   -1.0758670   -1.1494970  
C     4.6516510   -0.5815780   -1.1371410  
O     4.5663760   -1.7960300   -1.7648030  
C     3.5877430    0.2514410   -0.8278490  
H     6.0089520    3.5703720    1.0118710  
H     7.3110880    1.2657810   -0.0073780  
H     6.5628370   -1.8579620   -1.5390590  
H     3.6497150   -2.1445380   -1.7676520  
H     2.5776380   -0.0335470   -1.1032720  
H     3.6814650    4.4669430    1.2853360  
