60


C    -5.8180090    1.1972080   -1.9677890  
C    -7.1686100    1.0443110   -1.9834460  
C    -7.5228710    0.1981500   -0.8728190  
C    -6.3238320   -0.1630670   -0.2147000  
N    -5.2642270    0.4574730   -0.9074880  
C    -6.3225500   -0.9220180    0.9592080  
C    -7.5461920   -1.3588100    1.4467540  
O    -7.5860170   -2.1126540    2.5814460  
C    -8.7532190   -1.0289100    0.7804600  
O    -9.8835220   -1.5356860    1.3841970  
C    -8.7529030   -0.2541630   -0.3665910  
H    -7.8431310    1.4666870   -2.7158380  
H    -5.4205500   -1.2036180    1.4857580  
H    -8.5181950   -2.3289540    2.7558010  
H   -10.6670210   -1.2963480    0.8671620  
H    -9.6879430    0.0109610   -0.8553360  
H    -5.1599410    1.7146830   -2.6490080  
C    -2.1753930    3.6010070   -0.7989340  
C    -3.3856080    2.9963960   -0.8895320  
C    -3.1209300    1.5794810   -0.6686520  
C    -1.6551050    1.5133280   -0.4588360  
N    -1.1089970    2.6968180   -0.5349560  
C    -0.9533310    0.2621260   -0.1957190  
C    -1.7313140   -0.8544020   -0.1152840  
O    -1.2509320   -2.0671930    0.1899380  
C    -3.2150070   -0.8346810   -0.3327000  
O    -3.7975770   -1.9136110   -0.3139250  
C    -3.9068580    0.4674530   -0.6044180  
H    -4.3489760    3.4543940   -1.0597410  
H    -2.0057240   -2.6887350    0.0970100  
H    -1.9483200    4.6558790   -0.8937390  
C     2.0503900    2.3409160    2.3695190  
C     0.9065520    1.9235150    1.7800540  
C     1.2700200    0.9555820    0.7655590  
C     2.7453210    0.8535470    0.8076770  
N     3.1604930    1.7338990    1.7684970  
C     3.5242040   -0.0055210    0.0519730  
C     2.7776790   -0.9565620   -0.7772710  
O     3.2832750   -1.9185820   -1.3452260  
C     1.2379510   -0.7458530   -0.9750770  
O     0.7007010   -1.3444360   -1.8865400  
C     0.5106880    0.1890370   -0.0788820  
H    -0.0929390    2.2610730    2.0001870  
H     2.1988220    3.0496530    3.1726670  
H     4.0925780    1.7182500    2.1584100  
C     4.9722270   -0.0337080    0.1130170  
C     5.8671570    0.9277270    0.5500860  
C     7.1954800    0.4121400    0.3684710  
C     7.0324340   -0.9438610   -0.2142330  
N     5.6759800   -1.1517880   -0.3289030  
C     8.0635650   -1.7631330   -0.5434030  
C     9.4261770   -1.2921520   -0.3132190  
O    10.4152810   -1.9598630   -0.5768720  
C     9.6225190    0.1418020    0.3042050  
O    10.7583280    0.5487370    0.5044450  
C     8.4325300    0.9303980    0.6150460  
H     5.6333180    1.9390510    0.8483090  
H     7.9256230   -2.7514520   -0.9705760  
H     8.5806190    1.9199330    1.0373720  
H     5.2037740   -1.9136530   -0.8013620  
