62


C     4.1614310   -0.0089710   -0.1683390  
C     4.6187650   -1.2813370   -0.5378710  
C     5.9959100   -1.3564160   -0.2207060  
C     6.3602910   -0.0982140    0.3504130  
N     5.2399830    0.6851670    0.3680290  
C     7.6619280    0.1819100    0.7849980  
C     8.6085510   -0.8195820    0.6466630  
O     9.8880890   -0.6054740    1.0526460  
C     8.2621260   -2.0855170    0.0808930  
O     9.3237970   -2.9648710    0.0177680  
C     6.9834550   -2.3622620   -0.3481890  
H     4.0106620   -2.0837410   -0.9260500  
H     5.1240300    1.6102430    0.7642010  
H     7.9448330    1.1346350    1.2194620  
H    10.3908430   -1.4200260    0.8767820  
H     9.0289430   -3.8051410   -0.3634890  
H     6.7409760   -3.3325300   -0.7767070  
C     0.4693680   -1.0196140   -2.4672860  
C     1.7447090   -0.9640080   -1.9942290  
C     1.7953670    0.0778820   -0.9957960  
C     0.4403420    0.6415050   -0.9312580  
N    -0.3154540   -0.0663800   -1.8393120  
C     0.0284870    1.7044280   -0.1471330  
C     1.0583870    2.2682030    0.7301630  
O     0.8306770    3.0564630    1.6324080  
C     2.5439940    1.7986830    0.5530030  
O     3.4030810    2.4886470    1.0881150  
C     2.8440150    0.5711010   -0.2258710  
H     2.5741410   -1.5489830   -2.3561440  
H     0.0422020   -1.6559980   -3.2303740  
H    -1.3169650    0.0296260   -1.9327410  
C    -4.1458430   -0.0404980    0.0870830  
C    -2.7652860    0.0961490    0.0617960  
C    -2.4896900    1.4921770   -0.0640310  
C    -3.8321550    2.1354360   -0.0987970  
N    -4.7807770    1.2389510   -0.0126200  
C    -4.0134910    3.5544530   -0.1834650  
C    -2.8913450    4.3099250   -0.2342810  
O    -2.8856350    5.6412580   -0.3117710  
C    -1.4984150    3.7005680   -0.2599340  
O    -0.5830640    4.4941480   -0.4731650  
C    -1.3280390    2.2400460   -0.1204400  
H    -2.0346010   -0.6748940    0.2382830  
H    -5.0071040    3.9880590   -0.1964410  
H    -1.9322530    5.8838930   -0.3927020  
C    -3.3193960   -4.4957280    0.0921190  
C    -3.1764970   -3.1298640    0.0087610  
C    -4.4723510   -2.5464830    0.1996370  
C    -5.3692220   -3.6257740    0.3869630  
N    -4.6408110   -4.7955730    0.3241500  
C    -6.7494110   -3.4643850    0.5756730  
C    -7.2466170   -2.1755830    0.5633030  
O    -8.5784110   -1.9512920    0.7302200  
C    -6.3892250   -1.0553020    0.3779230  
O    -7.0465480    0.1244340    0.3927410  
C    -4.9845170   -1.2031930    0.2131490  
H    -2.2443140   -2.6272360   -0.1933960  
H    -5.0226900   -5.7228390    0.4267920  
H    -7.4245760   -4.3021880    0.7188480  
H    -8.6996870   -0.9844440    0.6891600  
H    -6.3647040    0.8504510    0.2266460  
H    -2.5799880   -5.2789620    0.0049810  
