62


C     4.3955910   -0.6534080   -2.0447120  
C     5.1330030   -1.8041030   -2.0212900  
C     5.8493550   -1.8243050   -0.7769830  
C     5.5037160   -0.6408180   -0.0764500  
N     4.6099010    0.0727500   -0.8719950  
C     6.0020510   -0.3458840    1.1976820  
C     6.8755550   -1.2573040    1.7693570  
O     7.3955110   -1.0162680    3.0112080  
C     7.2401490   -2.4431060    1.0799880  
O     8.1211440   -3.2501600    1.7792000  
C     6.7405380   -2.7344930   -0.1754860  
H     5.1658940   -2.5504290   -2.8033020  
H     5.7396380    0.5577070    1.7347700  
H     7.9736710   -1.7676970    3.2275720  
H     8.3083050   -4.0449200    1.2584840  
H     7.0276060   -3.6532990   -0.6836220  
H     3.7434970   -0.2540110   -2.8086860  
C     0.3356690    0.8269950   -0.4783920  
C     0.4428440    2.1793150   -0.1474660  
C     1.8274190    2.5127040   -0.1311610  
C     2.5357300    1.3236380   -0.4574620  
N     1.6162160    0.3277230   -0.6561670  
C     3.9411260    1.2731710   -0.5342350  
C     4.6331970    2.4564690   -0.2807790  
O     5.9888660    2.4811130   -0.3594990  
C     3.9302890    3.6466600    0.0631590  
O     4.7661400    4.7210870    0.2933840  
C     2.5537220    3.6936970    0.1361370  
H    -0.3754350    2.8767590   -0.0362150  
H     1.7869380   -0.6159450   -0.9839780  
H     6.2751910    3.3854970   -0.1415250  
H     4.2377560    5.5116320    0.4773140  
H     2.0458060    4.6190910    0.3990940  
C    -3.7667660    1.2560660    0.9973840  
C    -4.3606990    0.1787630    0.4004360  
C    -3.3029620   -0.5069830   -0.3479120  
C    -2.0762740    0.2818270   -0.1464960  
N    -2.4284040    1.3605510    0.6468370  
C    -0.8318340   -0.0158800   -0.6530710  
C    -0.7453100   -1.2955040   -1.3882330  
O     0.3124340   -1.7890320   -1.7576870  
C    -2.0685220   -2.0796910   -1.7216570  
O    -1.9864170   -3.0454900   -2.4639710  
C    -3.3163930   -1.6256790   -1.1229460  
H    -4.2076040   -2.2167720   -1.2943180  
H    -4.2032460    1.9763700    1.6774840  
H    -1.7412100    1.8845920    1.1719580  
C    -7.9905220    2.5620390   -0.2326960  
C    -8.9340810    1.6371620    0.0779590  
C    -8.2417140    0.4142690    0.4283530  
C    -6.7952680    0.7098690    0.2996890  
N    -6.7095050    2.0416030   -0.0672240  
C    -5.7798850   -0.1855450    0.4997570  
C    -6.1836030   -1.5519790    0.8909180  
O    -5.3779680   -2.4394470    1.1173030  
C    -7.7168750   -1.8808210    1.0425350  
O    -8.0362480   -3.0174340    1.3529890  
C    -8.6863860   -0.8175720    0.7965430  
H   -10.0044970    1.7822010    0.0678770  
H    -9.7401410   -1.0563690    0.9010830  
H    -8.1141420    3.5880430   -0.5536460  
H    -5.8603440    2.4667800   -0.4087220  
