60


C    -5.9137300   -1.3043600    1.6747580  
C    -5.2796300   -0.5700860    0.6787270  
C    -6.2753160   -0.3711420   -0.3656270  
C    -7.4666960   -0.9995960    0.0759220  
N    -7.2100460   -1.5427230    1.3242510  
C    -8.6416870   -1.0492150   -0.6795940  
C    -8.6204140   -0.4540990   -1.9316120  
O    -9.7370120   -0.4675110   -2.7141070  
C    -7.4366680    0.1659120   -2.4042950  
O    -7.5586550    0.7070370   -3.6707750  
C    -6.2775690    0.2081840   -1.6507730  
H    -7.8740310   -2.0569850    1.8825530  
H    -9.5474480   -1.5319270   -0.3270320  
H    -9.5186110    0.0105580   -3.5328850  
H    -6.7489450    1.1901000   -3.8926040  
H    -5.3945020    0.7034250   -2.0374210  
H    -5.5069700   -1.6718900    2.6022490  
C    -1.9053060   -2.4166550    2.7573760  
C    -0.8760940   -1.5916850    2.4476680  
C    -1.4623280   -0.5589890    1.6013630  
C    -2.9088930   -0.9318170    1.5084680  
N    -3.1456870   -2.0255650    2.1796230  
C    -3.8873940   -0.1429900    0.7520720  
C    -3.3745130    0.9879890    0.1677620  
O    -4.1256780    1.8713360   -0.5301820  
C    -1.9426620    1.3617630    0.2035140  
O    -1.5827710    2.3412260   -0.4536140  
C    -0.9642590    0.5441780    0.9917240  
H     0.1488530   -1.6486370    2.7863770  
H    -3.4876480    2.5557000   -0.8322810  
H    -1.8848940   -3.3010360    3.3834350  
C     2.7209070   -1.5648770   -0.1309960  
C     3.6438150   -0.5709060    0.0657280  
C     2.9026380    0.5886000    0.5621810  
C     1.4824040    0.1727980    0.6242840  
N     1.4517000   -1.1417520    0.1934180  
C     0.4408990    0.9728000    1.0010190  
C     0.7851360    2.3372780    1.4674670  
O    -0.0349330    3.0854180    1.9646570  
C     2.2797650    2.8015250    1.3841750  
O     2.5587290    3.9468870    1.6947770  
C     3.2890720    1.8356590    0.9407080  
H     4.3230480    2.1636720    0.9352060  
H     2.8809260   -2.5648540   -0.5115740  
H     0.6154260   -1.7060210    0.1494690  
C     5.0651730   -0.6863880   -0.1854270  
C     5.8735200   -1.7906040   -0.1185060  
C     7.2034980   -1.3990670   -0.5072570  
C     7.1280070    0.0493200   -0.8185300  
N     5.8218680    0.4381150   -0.5520950  
C     8.1661110    0.7909260   -1.2737890  
C     9.4633140    0.1357300   -1.4456140  
O    10.4535430    0.7246830   -1.8491620  
C     9.5772730   -1.3904250   -1.0829930  
O    10.6569600   -1.9479210   -1.2128610  
C     8.3767070   -2.0821900   -0.6160190  
H     5.5766250   -2.7700910    0.2288640  
H     8.0913010    1.8489790   -1.5058950  
H     8.4625870   -3.1397040   -0.3852790  
H     5.4075110    1.2674950   -0.9527330  
