62


C    -4.7278690   -0.1606460    0.1635250  
C    -5.9005250   -0.9119180    0.0005560  
C    -6.9826470   -0.0082940   -0.1145680  
C    -6.4363000    1.3090070   -0.0202170  
N    -5.0847450    1.1830070    0.1479470  
C    -7.2294330    2.4599490   -0.1004790  
C    -8.5914830    2.2825430   -0.2803330  
O    -9.4104770    3.3627260   -0.3665560  
C    -9.1563870    0.9727070   -0.3785890  
O   -10.5242600    0.9806610   -0.5552160  
C    -8.3779310   -0.1598550   -0.2992900  
H    -5.9542220   -1.9860170   -0.0896640  
H    -4.3863210    1.9155120    0.1683550  
H    -6.8213280    3.4624570   -0.0307770  
H   -10.3175530    3.0339420   -0.4952130  
H   -10.8502120    0.0712770   -0.6276970  
H    -8.8273620   -1.1476520   -0.3762310  
C    -2.7933320   -4.0503890    1.2112790  
C    -3.6850140   -3.0383110    1.0437230  
C    -2.9511580   -1.8769820    0.5946430  
C    -1.5520410   -2.2940850    0.5089670  
N    -1.5194430   -3.6290290    0.8431290  
C    -0.4659710   -1.4992120    0.1690890  
C    -0.7615630   -0.0823790    0.0459230  
O     0.0835690    0.8023710   -0.0851790  
C    -2.2617930    0.4000320    0.1023420  
O    -2.4412560    1.6060890    0.0030010  
C    -3.3575180   -0.5823620    0.2885140  
H    -4.7389230   -3.0846830    1.2652040  
H    -2.9494870   -5.0606970    1.5636320  
H    -0.6611600   -4.1041760    1.0837010  
C     0.8833350   -2.0038110   -0.0056030  
C     1.3728840   -3.2905230   -0.2164090  
C     2.7913330   -3.1953130   -0.3302680  
C     3.1315850   -1.8199080   -0.1946450  
N     1.9634530   -1.1352280    0.0051910  
C     4.4658930   -1.3412450   -0.2539710  
C     5.4516530   -2.3298550   -0.4106650  
O     6.7771820   -1.9880480   -0.4614470  
C     5.1214920   -3.7002580   -0.5469530  
O     6.2261280   -4.5149940   -0.7081220  
C     3.8145640   -4.1439770   -0.5190920  
H     0.7880580   -4.1850690   -0.3767440  
H     1.8325950   -0.1404400    0.1374820  
H     7.2811720   -2.8099080   -0.6019110  
H     5.9421840   -5.4268430   -0.8684470  
H     3.5873110   -5.2021900   -0.6287150  
C     4.7822600    0.0808960   -0.1649080  
C     3.9920340    1.1764790   -0.4291790  
C     4.7730760    2.3606820   -0.1895650  
C     6.1122220    1.8881900    0.2417440  
N     6.0449620    0.5142360    0.2602530  
C     7.1532190    2.7066820    0.5445460  
C     6.9529850    4.1479410    0.4495000  
O     7.8306920    4.9618470    0.7002440  
C     5.5368760    4.6722140    0.0039650  
O     5.3547550    5.8789700   -0.0760440  
C     4.4968720    3.6905820   -0.2977720  
H     2.9845530    1.1733560   -0.8167330  
H     8.1270340    2.3418280    0.8567140  
H     3.5245340    4.0628750   -0.6060470  
H     6.8309700   -0.1129390    0.3471220  
