60


C     4.6896780    2.4089020   -0.1911260  
C     5.9192910    2.9127270   -0.4583630  
C     6.8401840    1.8038680   -0.5556570  
C     6.1043980    0.6184940   -0.3344290  
N     4.7557200    1.0030960   -0.1061580  
C     6.7004840   -0.6433090   -0.3589720  
C     8.0677380   -0.7000650   -0.6129210  
O     8.6883580   -1.9110460   -0.6455790  
C     8.8170110    0.4793270   -0.8363690  
O    10.1550900    0.2617770   -1.0734920  
C     8.2157570    1.7295340   -0.8099040  
H     6.1581170    3.9611450   -0.5764780  
H     6.1359220   -1.5487200   -0.1903450  
H     9.6295100   -1.7549840   -0.8357850  
H    10.6064520    1.1062590   -1.2211200  
H     8.8019770    2.6292810   -0.9830820  
H     3.7472230    2.9118670   -0.0481920  
C     3.6771090    0.2135280    0.1487630  
C     2.3568620    0.6333220    0.3692150  
C     1.6244120   -0.5458310    0.5802640  
C     2.6498900   -1.6475340    0.4506680  
N     3.8485320   -1.1752680    0.2032370  
C     2.3097040   -3.0239690    0.5705260  
C     1.0026840   -3.3102780    0.8064950  
O     0.5293320   -4.5394840    0.9517470  
C    -0.0750030   -2.2354580    0.9746130  
O    -1.1779540   -2.6764540    1.3000330  
C     0.2770040   -0.8251330    0.8087220  
H     1.9732530    1.6396870    0.3452560  
H     3.0662740   -3.7941780    0.4731870  
H    -0.4336110   -4.4120440    1.1493580  
C    -0.7413650    0.1932370    0.9062920  
C    -0.6215960    1.4878600    1.3547840  
C    -1.9267660    2.0745000    1.2298820  
C    -2.7651230    0.9819310    0.6303570  
N    -2.0800940   -0.1052270    0.4552140  
C    -4.1669470    1.1875420    0.2968500  
C    -4.6864150    2.4020130    0.6382750  
O    -5.9698370    2.7325650    0.4759070  
C    -3.8682580    3.5055320    1.2734350  
O    -4.4650120    4.5558700    1.5242450  
C    -2.4542640    3.2850690    1.5425670  
H     0.2466370    1.9533350    1.7979660  
H    -6.0340170    3.6629070    0.7970030  
H    -1.8910710    4.1027180    1.9812680  
C    -5.2309180   -3.1295030    1.0119750  
C    -4.6404400   -1.9203980    1.1422830  
C    -5.1325450   -1.1311370    0.0160150  
C    -6.0421330   -2.0739380   -0.7106400  
N    -6.1055220   -3.2318230   -0.1202480  
C    -6.7595080   -1.6826040   -1.8969060  
C    -6.5788340   -0.4225630   -2.3495830  
O    -7.1614930    0.0768390   -3.4541490  
C    -5.6648360    0.5490740   -1.6534370  
O    -5.4997950    1.6400470   -2.1925460  
C    -4.9772030    0.1575520   -0.3821290  
H    -3.9121150   -1.6079950    1.8737580  
H    -7.4091710   -2.3919350   -2.3975020  
H    -6.8121870    0.9914910   -3.5360040  
H    -5.1134670   -3.9989340    1.6478090  
