62


C     8.1487070   -1.5067790    0.4171490  
C     6.7833430   -1.5923690    0.5395360  
C     6.2192320   -0.5620690   -0.2814070  
C     7.3056430    0.1300960   -0.8744970  
N     8.4666530   -0.4741180   -0.4386130  
C     7.1401610    1.2330710   -1.7195320  
C     5.8462340    1.6573310   -1.9751500  
O     5.6329230    2.7178110   -2.8026830  
C     4.7337740    0.9934650   -1.3987480  
O     3.5294350    1.5162470   -1.7927830  
C     4.8890430   -0.1188060   -0.5507210  
H     6.2534050   -2.2950360    1.1647820  
H     9.4004380   -0.1824260   -0.6815100  
H     7.9744580    1.7581030   -2.1735660  
H     4.6705070    2.8552220   -2.8519220  
H     2.8013390    0.9922270   -1.4031140  
H     8.9258400   -2.1019640    0.8751370  
C     3.7345910   -0.8118780   -0.0141230  
C     3.5438480   -2.1363220    0.2730470  
C     2.2048760   -2.3142670    0.7546180  
C     1.5781770   -0.9706330    0.7411380  
N     2.5231760   -0.0906970    0.2144020  
C     0.2975820   -0.6803690    1.1517500  
C    -0.4781060   -1.8460170    1.6199660  
O    -1.6527720   -1.7751460    1.9736030  
C     0.1738510   -3.2770270    1.6511500  
O    -0.5071570   -4.2007870    2.0728080  
C     1.5317750   -3.4234390    1.1709840  
H     4.2568600   -2.9282770    0.0979720  
H     1.9794070   -4.4118890    1.1881320  
H     2.5759730    0.8026340    0.7172480  
C    -3.7345820    0.8118720   -0.0141770  
C    -3.5438670    2.1363130    0.2730150  
C    -2.2048980    2.3142810    0.7545920  
C    -1.5781510    0.9706660    0.7410590  
N    -2.5231440    0.0907300    0.2143280  
C    -0.2975300    0.6804250    1.1516670  
C     0.4781040    1.8460770    1.6199490  
O     1.6528210    1.7752390    1.9734200  
C    -0.1738040    3.2771150    1.6509030  
O     0.5070740    4.2008350    2.0728520  
C    -1.5318270    3.4234560    1.1709880  
H    -4.2569080    2.9282500    0.0979760  
H    -1.9795100    4.4118810    1.1882320  
H    -2.5758880   -0.8026360    0.7171110  
C    -8.1486860    1.5067710    0.4171470  
C    -6.7833200    1.5923680    0.5395050  
C    -6.2192230    0.5620490   -0.2814240  
C    -7.3056440   -0.1301310   -0.8744810  
N    -8.4666470    0.4740890   -0.4385860  
C    -7.1401740   -1.2331220   -1.7194980  
C    -5.8462490   -1.6573840   -1.9751290  
O    -5.6329490   -2.7178780   -2.8026470  
C    -4.7337820   -0.9935040   -1.3987580  
O    -3.5294470   -1.5163160   -1.7927760  
C    -4.8890390    0.1187830   -0.5507510  
H    -6.2533700    2.2950500    1.1647260  
H    -9.4004350    0.1823910   -0.6814590  
H    -7.9744770   -1.7581630   -2.1735090  
H    -4.6705330   -2.8552850   -2.8519090  
H    -2.8013430   -0.9922680   -1.4031660  
H    -8.9258110    2.1019630    0.8751390  
