62


C     3.6467370    1.5185540   -0.5835320  
C     2.4653790    0.8256820   -0.7951330  
C     1.4222380    1.7823330   -0.9821660  
C     2.0174760    3.0666970   -0.8613730  
N     3.3686440    2.8757200   -0.6523410  
C     1.2905390    4.2539220   -0.9375650  
C    -0.0807000    4.1602410   -1.1453280  
O    -0.8231470    5.2982320   -1.2444020  
C    -0.7090920    2.9024120   -1.2766980  
O    -2.0625440    2.9905050   -1.5143260  
C     0.0145440    1.6945690   -1.2039790  
H     2.3840170   -0.2490640   -0.8438170  
H     4.0099350    3.5912940   -0.3446750  
H     1.7500110    5.2331940   -0.8499090  
H    -1.7421630    5.0298500   -1.4188070  
H    -2.4092380    2.1193480   -1.7805900  
C    -0.6404980    0.4154030   -1.3780290  
C    -0.1856790   -0.7549060   -1.9288840  
C    -1.2380870   -1.7301010   -1.8956080  
C    -2.3827150   -1.0602280   -1.2454180  
N    -2.0167040    0.2646880   -1.0151910  
C    -3.5599800   -1.6820990   -0.9516650  
C    -3.7414590   -3.0717980   -1.4181410  
O    -4.7935260   -3.6717490   -1.2720470  
C    -2.5449210   -3.7723520   -2.1558800  
O    -2.7042200   -4.9251990   -2.5310800  
C    -1.3195290   -3.0157930   -2.3485800  
H     0.7795000   -0.8909040   -2.3937890  
H    -0.4910550   -3.5126330   -2.8430100  
H    -2.3492080    0.7218570   -0.1672040  
C    -5.9600910   -1.0459710   -0.6814760  
C    -6.7409950   -0.3437150    0.1719160  
C    -5.8975530    0.1281250    1.2485730  
C    -4.5315230   -0.3726660    0.9498510  
N    -4.6159860   -1.0538530   -0.2583110  
C    -3.4596290   -0.1935880    1.7710220  
C    -3.6452900    0.5629280    3.0089580  
O    -2.7447880    0.7480520    3.8125210  
C    -5.0689400    1.1542850    3.3079260  
O    -5.2316880    1.8307470    4.3104660  
C    -6.1530860    0.8538670    2.3674840  
H    -7.8036170   -0.1754350    0.0740140  
H    -2.4902130   -0.6505310    1.6003210  
H    -7.1452160    1.2219910    2.6108980  
H    -6.2218680   -1.5679720   -1.5891660  
C     6.1636410    1.6629310   -0.7445930  
C     4.9944170    1.0367060   -0.3542250  
C     5.3886530   -0.1818720    0.3192070  
C     6.8038470   -0.2315660    0.2956530  
N     7.2447420    0.9073460   -0.3532780  
C     7.5360700   -1.2768990    0.8717060  
C     6.8217220   -2.2906590    1.4900500  
O     7.4826850   -3.3341780    2.0657070  
C     5.4016710   -2.2489150    1.5392150  
O     4.8391020   -3.3210170    2.2019560  
C     4.6839700   -1.2145970    0.9683880  
H     8.2082610    1.1286660   -0.5503460  
H     8.6203410   -1.3167700    0.8558080  
H     6.8123590   -3.9207720    2.4571780  
H     3.8784090   -3.2071950    2.2522420  
H     3.5992050   -1.1930310    1.0367990  
H     6.3038690    2.5720740   -1.3125190  
