62


C    -4.7886100   -0.3677360    2.3311790  
C    -5.9835750   -0.9387310    2.6545830  
C    -6.7156620   -1.1223570    1.4303970  
C    -5.9097740   -0.6213560    0.3789000  
N    -4.7169980   -0.1563870    0.9485380  
C    -6.3018050   -0.6931280   -0.9621060  
C    -7.5392830   -1.2532690   -1.2403340  
O    -7.9686710   -1.3372970   -2.5331260  
C    -8.3657800   -1.7436090   -0.1966100  
O    -9.5655110   -2.2727370   -0.6318120  
C    -7.9682140   -1.6864910    1.1266970  
H    -6.3173320   -1.1858210    3.6533870  
H    -5.7000990   -0.3099480   -1.7763860  
H    -8.8582660   -1.7298500   -2.5166090  
H   -10.1006790   -2.5313120    0.1328900  
H    -8.6083490   -2.0810830    1.9133590  
H    -3.9766090   -0.0353380    2.9608410  
C    -0.4487430   -1.0639520    1.2654020  
C    -1.7997150   -1.0981920    1.3790730  
C    -2.3265420   -0.0344390    0.5511660  
C    -1.1588940    0.6251900   -0.0698510  
N    -0.0323840   -0.0340830    0.4126810  
C    -1.2185130    1.6463900   -0.9678940  
C    -2.5263340    2.1568350   -1.3331080  
O    -2.7072370    3.0357670   -2.1633930  
C    -3.7925900    1.5463290   -0.6224700  
O    -4.8777990    2.0598770   -0.8192350  
C    -3.6049670    0.3859470    0.2888020  
H    -2.3757880   -1.7945040    1.9689970  
H    -0.3401040    2.0815600   -1.4302760  
H     0.3014840   -1.6915820    1.7271390  
C     2.1663580   -0.6459330   -0.5348770  
C     1.3061110    0.2402800    0.0599690  
C     2.0241530    1.4699000    0.3007190  
C     3.3406050    1.2740850   -0.1728540  
N     3.4044110   -0.0265330   -0.6724630  
C     4.3317820    2.2568040   -0.1044730  
C     3.9749360    3.4729530    0.4582700  
O     4.8928720    4.4704850    0.5473060  
C     2.6543000    3.6907550    0.9436090  
O     2.4644400    4.9462450    1.4744970  
C     1.6828950    2.7102990    0.8749990  
H     5.3416980    2.1015880   -0.4666670  
H     4.4557240    5.2373760    0.9573360  
H     1.5356200    5.0651320    1.7238230  
H     0.6794610    2.8953730    1.2487480  
H     2.0167840   -1.6591100   -0.8769440  
C     4.8662670   -0.5723800   -2.5702670  
C     6.0018290   -1.2758890   -2.7861070  
C     6.4334460   -1.8220040   -1.5115180  
C     5.4433730   -1.3748460   -0.5038520  
N     4.5140040   -0.6134460   -1.2106030  
C     5.4801540   -1.6774660    0.8149030  
C     6.5817680   -2.5131550    1.2942360  
O     6.7018030   -2.8478750    2.4614630  
C     7.6525790   -2.9986740    0.2486770  
O     8.5793550   -3.6940940    0.6304070  
C     7.4908970   -2.5952420   -1.1535020  
H     6.5010560   -1.4082160   -3.7351070  
H     4.7403400   -1.3299060    1.5279490  
H     8.2354070   -2.9382920   -1.8655030  
H     4.2377200   -0.0174010   -3.2534420  
