64


C     1.9054440   -0.6172910   -0.0250620  
C     3.1756350   -0.0990100   -0.0160230  
C     3.0269080    1.3382600   -0.1643430  
C     1.6420260    1.6164590   -0.2640000  
N     0.9630250    0.3948960   -0.1868140  
C     1.1470860    2.9196340   -0.3734600  
C     2.0683450    3.9568470   -0.4171770  
O     1.6305130    5.2459140   -0.5274530  
C     3.4585220    3.6934580   -0.3513000  
O     4.2505760    4.8236310   -0.4174520  
C     3.9454230    2.4039330   -0.2257300  
H     0.0915540    3.1450940   -0.4454500  
H     2.4191590    5.8142860   -0.5597030  
H     5.1836590    4.5637210   -0.4008800  
H     5.0151410    2.2197050   -0.1677820  
H     1.5813470   -1.6383010    0.0950740  
C    -1.4918710   -1.9867040    2.4523120  
C    -2.7312680   -1.7659550    1.9514890  
C    -2.5340270   -0.8609900    0.8219260  
C    -1.0624410   -0.6483700    0.7905710  
N    -0.4603770   -1.3042670    1.7422500  
C    -0.4276440    0.1919830   -0.2165750  
C    -1.2477580    0.7482060   -1.1532380  
O    -0.8115720    1.5188510   -2.1661150  
C    -2.7334160    0.5918670   -1.1098300  
O    -3.3816080    1.2389540   -1.9283640  
C    -3.3757280   -0.3016240   -0.0868080  
H    -3.6723020   -2.1784310    2.2863360  
H    -1.6287170    1.8160840   -2.6258660  
H    -1.2110200   -2.6116940    3.2914820  
C    -6.3782670    0.5185850    3.0724770  
C    -7.4951080    0.2095250    2.3424780  
C    -7.0466630   -0.2119550    1.0455990  
C    -5.6291170   -0.1390650    1.0509280  
N    -5.2515220    0.3159150    2.2955700  
C    -4.8396950   -0.4399600   -0.0846300  
C    -5.5306090   -0.8626930   -1.2259640  
O    -4.8348060   -1.2532280   -2.3270350  
C    -6.9448440   -0.9531200   -1.2361250  
O    -7.4597990   -1.3975980   -2.4388860  
C    -7.7039130   -0.6292120   -0.1279350  
H    -8.5186670    0.2774270    2.6840670  
H    -4.2988150    0.4299090    2.6055950  
H    -5.4833070   -1.4463590   -3.0266240  
H    -8.4275220   -1.3782440   -2.4057320  
H    -8.7889990   -0.7035080   -0.1633410  
H    -6.2828910    0.8683990    4.0905830  
C     4.7755830   -3.6966810   -2.1932410  
C     4.0011160   -2.6468160   -1.7742190  
C     4.7039120   -2.0014090   -0.6999500  
C     5.9188670   -2.7130190   -0.5161130  
N     5.9333260   -3.7420530   -1.4366310  
C     6.8754420   -2.3532190    0.4411590  
C     6.5917990   -1.2508920    1.2310120  
O     7.4759210   -0.8573140    2.1973490  
C     5.3855230   -0.5251080    1.0639760  
O     5.2487180    0.5314680    1.9482400  
C     4.4268820   -0.8700220    0.1122990  
H     3.0457040   -2.3569360   -2.1872360  
H     6.6745680   -4.4160810   -1.5428690  
H     7.8027560   -2.8979610    0.5869370  
H     7.0610030   -0.1125650    2.6665930  
H     4.3431960    0.8783060    1.8833090  
H     4.6025750   -4.4235770   -2.9744210  
