62


C     2.4352440   -1.5652330   -0.2849330  
C     3.4709850   -0.6628180   -0.5121660  
C     4.7003150   -1.3458730   -0.2934470  
C     4.3730140   -2.6829170    0.0675120  
N     3.0041060   -2.7832800    0.0712770  
C     5.3485310   -3.6472280    0.3515180  
C     6.6750360   -3.2548050    0.2713320  
O     7.6674550   -4.1504470    0.5388950  
C     7.0209090   -1.9198840   -0.0864100  
O     8.3837610   -1.6920440   -0.1190200  
C     6.0597690   -0.9712550   -0.3674330  
H     3.3718920    0.3558930   -0.8559810  
H     2.4624930   -3.6253270    0.1952440  
H     5.1058740   -4.6676840    0.6290390  
H     8.5133260   -3.6795780    0.4414630  
H     8.5499490   -0.7577300   -0.3132210  
H     6.3454820    0.0437300   -0.6357750  
C     0.0045240    2.1201260   -0.1479750  
C    -1.2342920    1.5082040   -0.3530690  
C    -1.0165780    0.1131530   -0.4780420  
C     0.3849610   -0.1011850   -0.3411440  
N     0.9681980    1.1226110   -0.1545470  
C     0.9947030   -1.3807230   -0.3670690  
C     0.0857640   -2.4474690   -0.4838100  
O     0.5471920   -3.7366680   -0.5238330  
C    -1.3080560   -2.2532720   -0.6059490  
O    -2.0046970   -3.4419160   -0.7548400  
C    -1.9091500   -0.9939860   -0.6157980  
H    -2.1943280    1.9968680   -0.3351200  
H     1.9188160    1.3120920    0.1391720  
H    -0.2264870   -4.3073250   -0.6863930  
H    -2.8541060   -3.2655330   -1.1894990  
C    -3.9971730    0.1602900   -1.4933950  
C    -3.3470510   -0.8087710   -0.7756770  
C    -4.4546830   -1.5549870   -0.1190960  
C    -5.6881310   -0.8763770   -0.5998160  
N    -5.4048630    0.1170940   -1.4037280  
C    -6.9956010   -1.3006350   -0.1820690  
C    -7.0824640   -2.3231110    0.7052790  
O    -8.2411120   -2.8121080    1.1833540  
C    -5.8608650   -3.0023480    1.2381750  
O    -6.0123900   -3.9251100    2.0409700  
C    -4.5257220   -2.5590040    0.7801140  
H    -7.8753650   -0.7932360   -0.5625300  
H    -7.9824440   -3.5327420    1.7986410  
H    -3.6676170   -3.0834790    1.1873400  
H    -3.5392400    0.9161000   -2.1196440  
C    -2.1833640    5.9684180   -0.7674560  
C    -1.8015200    4.6625510   -0.7911640  
C    -0.4993890    4.5735590   -0.1714060  
C    -0.1402510    5.9554370    0.2064150  
N    -1.2119730    6.7464120   -0.1547890  
C     1.0251560    6.3455080    0.7964390  
C     2.0205050    5.3314110    1.0496140  
O     3.1054250    5.5418330    1.5735610  
C     1.6976360    3.8529750    0.6099250  
O     2.6065630    3.0390180    0.7174730  
C     0.3496640    3.5070860    0.0803280  
H    -2.3621130    3.8587910   -1.2385990  
H     1.2379870    7.3713270    1.0792430  
H    -3.0859800    6.4269370   -1.1482710  
H    -1.2385450    7.7495470   -0.0610330  
