62


C     3.9768590   -0.1851400   -2.0831300  
C     4.6971540   -1.3058200   -2.3932840  
C     5.6597700   -1.4958060   -1.3449060  
C     5.4796710   -0.4412530   -0.4144560  
N     4.4378630    0.3588450   -0.8808620  
C     6.2369990   -0.3324760    0.7576080  
C     7.2051080   -1.2978460    0.9834880  
O     7.9774970   -1.2351860    2.1061870  
C     7.4063020   -2.3568030    0.0575540  
O     8.4051960   -3.2388640    0.4255400  
C     6.6499730   -2.4662800   -1.0935410  
H     4.5766040   -1.9106130   -3.2821110  
H     6.1164360    0.4808640    1.4628010  
H     8.6156570   -1.9676260    2.0582830  
H     8.5649030   -3.8645720   -0.2962430  
H     6.8150190   -3.2891150   -1.7864800  
H     3.2139990    0.3358730   -2.6457910  
C     0.3321240    0.8959100    0.3341150  
C     0.4249630    2.1874830    0.7915870  
C     1.7948060    2.6070230    0.6821600  
C     2.5227550    1.4567070    0.1049990  
N     1.6066750    0.4280270   -0.0357450  
C     3.8443800    1.4599490   -0.2261320  
C     4.6210460    2.6794230    0.0659360  
O     5.8050720    2.7880660   -0.1986280  
C     3.8730300    3.8824750    0.7569140  
O     4.5266660    4.8750290    1.0433570  
C     2.4438160    3.7614810    1.0131770  
H    -0.3826030    2.7617010    1.2222890  
H     1.9356200    4.6127010    1.4549240  
H     1.7532010   -0.3218550   -0.6989630  
C    -0.8055960    0.0239030    0.2478170  
C    -2.1558710    0.3262430    0.1992270  
C    -2.8751580   -0.8999110    0.0981860  
C    -1.9055170   -1.9431340    0.1066890  
N    -0.6568540   -1.3591960    0.1463660  
C    -2.2420640   -3.2974560    0.0948360  
C    -3.5939990   -3.6052670    0.0933930  
O    -3.9945530   -4.8978360    0.0992900  
C    -4.5919070   -2.5876380    0.0875100  
O    -5.8723330   -3.0852770    0.0621640  
C    -4.2669650   -1.2299140    0.0457410  
H    -2.5626770    1.3263510    0.1860440  
H     0.1795170   -1.8502310    0.4300650  
H    -1.5038750   -4.0922640    0.1066990  
H    -4.9711590   -4.8780790    0.1253860  
H    -6.3990330   -2.5661150    0.7075480  
C    -4.7706340    2.3949040   -2.5246650  
C    -4.3183250    1.2141770   -2.0441980  
C    -5.2067680    0.8853200   -0.9295230  
C    -6.1657000    2.0277790   -0.8925000  
N    -5.9041050    2.9106580   -1.8121520  
C    -7.2322620    2.0974690    0.0738340  
C    -7.3687740    1.0591660    0.9279880  
O    -8.3397510    0.9743070    1.8551680  
C    -6.4585080   -0.1300690    0.8679090  
O    -6.7467540   -1.0747470    1.6154640  
C    -5.2795330   -0.1555410   -0.0519910  
H    -3.4960960    0.6160620   -2.4069880  
H    -7.9041020    2.9482440    0.0846930  
H    -8.2235160    0.1060190    2.2941040  
H    -4.3883120    2.9660310   -3.3618950  
