60


C     4.6423450   -1.0132270   -0.1748360  
C     5.8006990   -1.3297770   -0.8684090  
C     6.6661880   -0.2039570   -0.8013470  
C     5.9940670    0.7953170   -0.0421080  
N     4.7500720    0.2998320    0.2921700  
C     6.5710390    2.0352400    0.2519930  
C     7.8426240    2.2771740   -0.2433260  
O     8.4508450    3.4629330    0.0093280  
C     8.5249810    1.2951340   -1.0246770  
O     9.7717730    1.7027440   -1.4418350  
C     7.9563760    0.0726770   -1.3087330  
H     5.9728920   -2.2531180   -1.4043540  
H     4.1873380    0.6707560    1.0443460  
H     6.0676230    2.8001850    0.8335480  
H     9.3221660    3.4478370   -0.4247150  
H    10.1882170    1.0075910   -1.9730470  
H     8.4925770   -0.6642600   -1.9021170  
C     3.4599380   -1.7937120    0.0327820  
C     3.2640560   -3.1509620   -0.0348280  
C     1.8810840   -3.4179600    0.2314740  
C     1.2466800   -2.1059770    0.4756340  
N     2.2495060   -1.1652070    0.4037730  
C    -0.0985140   -1.8919070    0.6751750  
C    -0.9476250   -3.1045410    0.7348800  
O    -2.1369850   -3.0864800    1.0101490  
C    -0.2835530   -4.5083930    0.4926620  
O    -1.0072900   -5.4937810    0.4952710  
C     1.1520580   -4.5724530    0.2680470  
H     4.0302440   -3.8905330   -0.2167660  
H     1.5938000   -5.5485050    0.0935000  
H     2.0355510   -0.2012410    0.1725370  
C    -0.6653430   -0.5680770    0.8452870  
C    -0.1040750    0.5626910    1.3898700  
C    -1.1351450    1.5732650    1.3524720  
C    -2.2935040    0.8998910    0.6755430  
N    -2.0023290   -0.3363200    0.3905840  
C    -3.5582040    1.5642700    0.4159270  
C    -3.6651150    2.8171970    0.9682810  
O    -4.7908660    3.5321460    0.9661570  
C    -2.5267990    3.5171230    1.6626110  
O    -2.7398970    4.6517430    2.0938460  
C    -1.2360580    2.8377630    1.8161140  
H     0.8476890    0.6511470    1.8955770  
H    -4.5596830    4.3898810    1.3897370  
H    -0.4410760    3.3780510    2.3204470  
C    -5.3342820   -2.5431880    0.0802350  
C    -6.3827610   -2.2499590   -0.7338470  
C    -6.2823320   -0.8481290   -1.0640290  
C    -5.0826920   -0.3392190   -0.3365090  
N    -4.5803210   -1.4129850    0.3638120  
C    -4.6542520    0.9690760   -0.3708140  
C    -5.3336370    1.8350200   -1.3678060  
O    -4.8792590    2.9078070   -1.7278840  
C    -6.6643530    1.3431060   -2.0377390  
O    -7.3100480    2.1406930   -2.7025090  
C    -7.0536600   -0.0449180   -1.8467440  
H    -7.1411600   -2.9335060   -1.0868370  
H    -7.9546870   -0.3969570   -2.3400090  
H    -5.0298870   -3.4907090    0.5048640  
H    -3.5976840   -1.4578350    0.6413500  
