62


C    -3.8449960   -0.9124860    1.6772150  
C    -4.5442490   -0.1170980    0.7707620  
C    -5.8423990   -0.7547840    0.6001230  
C    -5.8374150   -1.9184300    1.4073470  
N    -4.6104470   -1.9730120    2.0540680  
C    -6.9051090   -2.8184680    1.4739080  
C    -8.0189150   -2.5407560    0.6968430  
O    -9.0936050   -3.3752470    0.7233070  
C    -8.0442780   -1.3864940   -0.1291890  
O    -9.2156930   -1.2425790   -0.8435490  
C    -6.9824180   -0.5035410   -0.1883500  
H    -4.3509530   -2.6565750    2.7495770  
H    -6.8890340   -3.7069340    2.0965100  
H    -9.7638390   -3.0034050    0.1236220  
H    -9.1947790   -0.4095670   -1.3379210  
H    -7.0438480    0.3839600   -0.8078590  
H    -2.8720620   -0.7427380    2.1143420  
C    -0.4092360    1.0601680   -0.4774290  
C    -1.5030840    0.3060800   -0.1259440  
C    -2.6264280    1.2162790   -0.1109450  
C    -2.0374100    2.5085940   -0.5197260  
N    -0.7490820    2.4287670   -0.7141730  
C    -2.8404770    3.6949720   -0.6894060  
C    -4.1692330    3.5871050   -0.4713360  
O    -5.0420890    4.6029020   -0.6167010  
C    -4.8051430    2.2944060   -0.0492740  
O    -6.0270610    2.3068130    0.1036960  
C    -3.9621040    1.0761880    0.1874010  
H    -1.5170350   -0.7491220    0.1022200  
H    -2.3764520    4.6271210   -0.9917490  
H    -5.9174650    4.2264200   -0.3816040  
C     1.4642590   -2.6226900   -2.1221740  
C     0.5430310   -1.6963100   -1.7611690  
C     1.3066710   -0.6129340   -1.1625320  
C     2.7253050   -1.0644870   -1.2600110  
N     2.7998960   -2.2455100   -1.8136690  
C     3.8538990   -0.2533150   -0.7915540  
C     3.4993540    0.9810120   -0.3130590  
O     4.3945230    1.9050610    0.1094140  
C     2.0959870    1.4534140   -0.1736250  
O     1.9247500    2.5532300    0.3556450  
C     0.9582940    0.5951000   -0.6364270  
H    -0.5265610   -1.7269710   -1.9076200  
H     3.8362830    2.6604550    0.4052650  
H     1.2964150   -3.5756770   -2.6102760  
C     5.6440310   -1.6773180   -1.8294050  
C     5.2201920   -0.7613240   -0.8763700  
C     6.3843600   -0.4832910   -0.0454160  
C     7.4558330   -1.2540500   -0.5639940  
N     6.9707500   -1.9544640   -1.6548890  
C     8.7367040   -1.2745810   -0.0028820  
C     8.9507800   -0.5019870    1.1276530  
O    10.1810940   -0.4788240    1.7200590  
C     7.8921240    0.2637010    1.6757910  
O     8.2460980    0.9777700    2.8076790  
C     6.6277510    0.2779580    1.1155400  
H     7.5045390   -2.5997130   -2.2162590  
H     9.5479470   -1.8678420   -0.4126780  
H    10.1187090    0.1268040    2.4787700  
H     7.4991150    1.5307690    3.0803060  
H     5.8450260    0.8877990    1.5516730  
H     5.0679570   -2.1520450   -2.6062670  
