62


C    -5.4338890    2.5053020   -0.2221740  
C    -6.7971030    2.4444000   -0.3075830  
C    -7.1639510    1.0565810   -0.2802380  
C    -5.9608450    0.3114690   -0.1704280  
N    -4.9026270    1.2189400   -0.1407190  
C    -5.9449800   -1.0898840   -0.0866070  
C    -7.1660790   -1.7476970   -0.1342180  
O    -7.2052700   -3.1091240   -0.0563800  
C    -8.3774420   -1.0181500   -0.2573810  
O    -9.5056700   -1.8142940   -0.2939090  
C    -8.3888740    0.3634170   -0.3244910  
H    -7.4650100    3.2910680   -0.3886090  
H    -5.0328990   -1.6629620    0.0402570  
H    -8.1403580   -3.3736790   -0.1010540  
H   -10.2945270   -1.2569500   -0.3662690  
H    -9.3310250    0.9019100   -0.4067540  
H    -4.7653550    3.3538150   -0.2344330  
C    -1.7227610    2.4688340    2.6911480  
C    -2.9306630    2.2793410    2.0753570  
C    -2.6954480    1.4278610    0.9425300  
C    -1.3125760    1.1197920    0.9282430  
N    -0.7452660    1.7493870    2.0218680  
C    -0.7032090    0.3044230   -0.0506990  
C    -1.5505060   -0.1953910   -1.0430900  
O    -1.0503410   -1.0226600   -1.9965860  
C    -2.9347160    0.1134050   -1.0643630  
O    -3.6081360   -0.4331240   -2.1297650  
C    -3.5179820    0.9103190   -0.0832880  
H    -3.8797890    2.6883870    2.3901330  
H     0.2479680    1.8557500    2.1632370  
H    -1.7749780   -1.2250710   -2.6148810  
H    -4.5679160   -0.3381800   -2.0057280  
H    -1.4708710    3.0467230    3.5690280  
C     1.7836770   -1.6041000    3.0102340  
C     2.9957420   -1.5781910    2.3886270  
C     2.7992840   -0.9625940    1.0968330  
C     1.3633480   -0.6238170    1.0124460  
N     0.8060070   -1.0388620    2.2114290  
C     0.7365350   -0.0193080   -0.0408950  
C     1.6006150    0.3488010   -1.1814600  
O     1.2186430    1.0257340   -2.1172740  
C     3.1064100   -0.1100420   -1.1786720  
O     3.7628480    0.0316100   -2.1946910  
C     3.6532090   -0.7094080    0.0538650  
H     3.9298720   -1.9355660    2.7949150  
H     1.5272870   -1.9823650    3.9910960  
H    -0.1758940   -0.9669170    2.4314870  
C     5.4121660   -2.4594860    0.2881430  
C     6.7605120   -2.5778710    0.2255170  
C     7.2981120   -1.2618090   -0.0449900  
C     6.1312920   -0.3510690   -0.1423180  
N     4.9956320   -1.1382040    0.0720050  
C     6.2259210    0.9845250   -0.3487530  
C     7.5560520    1.5714160   -0.5084070  
O     7.7353630    2.7668180   -0.6825450  
C     8.8040290    0.6187300   -0.4368660  
O     9.9211490    1.0925240   -0.5748540  
C     8.5697910   -0.8054090   -0.1899280  
H     7.3292380   -3.4893580    0.3407950  
H     5.3680870    1.6431230   -0.4174550  
H     9.4368500   -1.4552700   -0.1197710  
H     4.6603760   -3.2195140    0.4533830  
