64


C    -7.2586910   -2.3779860    0.6137140  
C    -6.3421020   -1.3929700    0.3417030  
C    -5.0771160   -2.0365130    0.1365360  
C    -5.2918410   -3.4277020    0.3103400  
N    -6.6306950   -3.6058640    0.5910220  
C    -4.2670340   -4.3761750    0.2185950  
C    -2.9898540   -3.9141520   -0.0534030  
O    -1.9592290   -4.7982550   -0.1642450  
C    -2.7350430   -2.5295330   -0.2323800  
O    -1.4210720   -2.2638840   -0.5297230  
C    -3.7585280   -1.5702240   -0.1443910  
H    -6.5484920   -0.3335680    0.3147960  
H    -7.0732710   -4.4925740    0.7746610  
H    -4.4345760   -5.4403690    0.3500240  
H    -1.1580270   -4.2806140   -0.3597690  
H    -1.2923850   -1.3122710   -0.7099290  
H    -8.3161520   -2.3042320    0.8243160  
C    -3.4860000   -0.1615060   -0.3765330  
C    -4.2526470    0.8117130   -0.9603630  
C    -3.5069250    2.0428980   -0.9824880  
C    -2.2062710    1.7387240   -0.3568180  
N    -2.2021950    0.3666860   -0.0612880  
C    -1.2124880    2.6329350   -0.1086160  
C    -1.4519170    4.0235930   -0.5744040  
O    -0.6046290    4.8939010   -0.5020270  
C    -2.8336530    4.3684650   -1.2450720  
O    -3.0392850    5.5256690   -1.5839020  
C    -3.8026060    3.2965310   -1.4300110  
H    -5.2298870    0.6598640   -1.3948430  
H    -4.7527940    3.5456390   -1.8923110  
H    -1.7432020    0.0747270    0.7978250  
C     1.9010230   -0.2292580   -1.3985340  
C     2.7679770   -0.0758830   -0.3381970  
C     2.1556160    0.8949540    0.5447840  
C     0.9236860    1.2767530   -0.0353860  
N     0.7708070    0.5489980   -1.2028000  
C     0.0681570    2.2511220    0.5231820  
C     0.5045530    2.8423350    1.7107270  
O    -0.2850920    3.7545830    2.3371950  
C     1.7367850    2.4655700    2.3052080  
O     2.0063010    3.1328710    3.4853260  
C     2.5592340    1.5075750    1.7455600  
H     0.0933460    0.7714650   -1.9169750  
H     0.2181940    4.1017770    3.0942710  
H     2.8915180    2.8912400    3.7954700  
H     3.4864480    1.2178170    2.2307930  
H     1.9699040   -0.8914690   -2.2506060  
C     6.0603480   -0.5059360   -3.2194890  
C     6.9040700   -1.2595190   -2.4452890  
C     6.2515810   -1.4599490   -1.1817720  
C     4.9965230   -0.8026260   -1.2547070  
N     4.9019010   -0.2425760   -2.5128850  
C     4.0679980   -0.7559510   -0.1913300  
C     4.4639030   -1.4041550    0.9802470  
O     3.6316510   -1.4261040    2.0684080  
C     5.7160250   -2.0652490    1.0723190  
O     5.9398460   -2.6556780    2.3063910  
C     6.6060060   -2.1097340    0.0167860  
H     7.8767130   -1.6296860   -2.7395220  
H     4.1601780    0.3791170   -2.7966910  
H     4.0699270   -1.9743530    2.7426170  
H     6.7495070   -3.1852790    2.2650350  
H     7.5597810   -2.6238450    0.1185990  
H     6.1820070   -0.1378050   -4.2285960  
