64


C     2.2251480   -0.7076920   -0.8320720  
C     3.5031770   -0.2316690   -0.6883010  
C     3.4383970    0.9412100    0.1466300  
C     2.0764890    1.1235950    0.4832020  
N     1.3425080    0.1115880   -0.1356960  
C     1.6388050    2.1659670    1.3097250  
C     2.5976240    3.0450350    1.7890570  
O     2.2275150    4.0758760    2.6005030  
C     3.9679250    2.8826390    1.4469540  
O     4.7953910    3.8407060    1.9967720  
C     4.3970530    1.8487300    0.6369450  
H     0.5981930    2.3044020    1.5802770  
H     3.0346710    4.5695970    2.8268000  
H     5.7154900    3.6471970    1.7632090  
H     5.4494340    1.7326570    0.3908290  
H     1.8587020   -1.5570490   -1.3896300  
C    -0.6738360   -1.1612070    0.5139460  
C    -0.0469800   -0.0873560   -0.0467100  
C    -1.0746130    0.7876030   -0.5893990  
C    -2.3537050    0.1377800   -0.2742960  
N    -2.0490760   -1.0234760    0.4192760  
C    -3.5982150    0.6139600   -0.6226280  
C    -3.5849070    1.8170110   -1.4883310  
O    -4.5886710    2.2642600   -2.0285140  
C    -2.2244720    2.5684780   -1.7588740  
O    -2.2728600    3.6183040   -2.3820910  
C    -0.9956250    1.9642180   -1.2758480  
H    -0.0550190    2.4632830   -1.4810100  
H    -0.2358470   -2.0247940    0.9958980  
H    -2.7102770   -1.7805390    0.5215870  
C    -4.8440750   -0.0054140   -0.2233290  
C    -5.1233810   -0.9182770    0.7979710  
C    -6.5203600   -1.1822320    0.7699440  
C    -7.0667510   -0.4066720   -0.2940730  
N    -6.0337140    0.2835780   -0.8741880  
C    -8.4311960   -0.4169240   -0.6103110  
C    -9.2581190   -1.2182240    0.1596350  
O   -10.5931740   -1.2660370   -0.1011340  
C    -8.7296010   -1.9994330    1.2297070  
O    -9.6862970   -2.7404860    1.8942480  
C    -7.3861470   -1.9912530    1.5400080  
H    -4.4282260   -1.2702880    1.5472040  
H    -6.0814200    1.0022250   -1.5862850  
H    -8.8519540    0.1723760   -1.4179820  
H   -10.9951660   -1.8699240    0.5473120  
H    -9.2744960   -3.2214220    2.6272890  
H    -7.0056560   -2.5951450    2.3614020  
C     4.8319050   -0.9379780   -2.6710120  
C     6.0537990   -1.5004840   -2.9205950  
C     6.6923890   -1.7032140   -1.6507110  
C     5.7929970   -1.2406240   -0.6550790  
N     4.6536370   -0.7697270   -1.3007620  
C     6.0811780   -1.3105640    0.7145370  
C     7.3080850   -1.8400960    1.0839110  
O     7.6428290   -1.9264030    2.4072210  
C     8.2252360   -2.2970200    0.1017150  
O     9.4056700   -2.7951390    0.6260350  
C     7.9325450   -2.2374590   -1.2483600  
H     6.4568940   -1.7354220   -3.8963740  
H     5.3875900   -0.9726880    1.4762370  
H     8.5243660   -2.3347470    2.4515560  
H     9.9669770   -3.1145150   -0.0956150  
H     8.6490020   -2.6006350   -1.9831200  
H     4.0554000   -0.6115560   -3.3480730  
