60


C     3.7373110   -1.2354910   -2.6368570  
C     3.7035180   -0.7545730   -1.3445390  
C     4.7934050   -1.3977320   -0.6408070  
C     5.4396010   -2.2528880   -1.5687210  
N     4.7688670   -2.1369590   -2.7717580  
C     6.5406100   -3.0488860   -1.2291240  
C     6.9985810   -2.9824920    0.0770030  
O     8.0728580   -3.7286520    0.4607040  
C     6.3551600   -2.1431590    1.0263060  
O     6.9163590   -2.1984500    2.2870840  
C     5.2642170   -1.3645510    0.6881880  
H     5.0397340   -2.5837530   -3.6338690  
H     7.0393440   -3.6990530   -1.9405950  
H     8.2500510   -3.5187700    1.3942170  
H     6.5421420   -1.4978090    2.8417590  
H     4.7847920   -0.7394620    1.4373210  
H     3.1143680   -0.9741400   -3.4807400  
C     1.3733080    0.1466530   -1.0170620  
C     2.7197100    0.1913840   -0.8219160  
C     2.9767020    1.4023530   -0.0460160  
C     1.6645890    2.0511440    0.1846590  
N     0.7089090    1.2473700   -0.4502870  
C     1.4950450    3.1727530    0.9246310  
C     2.6770890    3.8154110    1.5005860  
O     2.6116510    4.8167930    2.1958620  
C     4.0819450    3.1779940    1.2139090  
O     5.0813670    3.7062090    1.6754540  
C     4.1302150    1.9489770    0.4171510  
H     0.5335630    3.6410280    1.0963970  
H     5.1006980    1.4996970    0.2351840  
H     0.7956470   -0.5929220   -1.5544070  
C    -2.5620040   -1.4746580    0.5439010  
C    -1.3445270   -0.9013230    0.3836720  
C    -1.5547320    0.4246980   -0.1499780  
C    -3.0145880    0.5896680   -0.2985150  
N    -3.5909450   -0.6244570    0.1151700  
C    -3.6255920    1.7427740   -0.6658540  
C    -2.7906360    2.8873710   -1.0080630  
O    -3.2422780    3.9818790   -1.3021850  
C    -1.2309670    2.7090690   -0.9931880  
O    -0.5276670    3.6038080   -1.4225000  
C    -0.6819680    1.4324250   -0.4722820  
H    -0.3947230   -1.3569770    0.6207750  
H    -4.6994270    1.8638990   -0.7308500  
H    -2.8179890   -2.4567270    0.9160240  
C    -6.1534090   -2.3767410    3.2585300  
C    -5.0668580   -1.8476140    2.6427300  
C    -5.5230980   -1.5138940    1.2986540  
C    -6.9541630   -1.9337620    1.2843860  
N    -7.3157930   -2.4348490    2.4321860  
C    -7.7928770   -1.7613000    0.1255110  
C    -7.2438130   -1.2040110   -0.9774280  
O    -7.9130430   -0.9794810   -2.1201420  
C    -5.7994660   -0.7937850   -1.0239220  
O    -5.3531850   -0.3801240   -2.0880340  
C    -4.9539810   -0.9429430    0.2057510  
H    -4.0859930   -1.6727060    3.0611120  
H    -8.8309730   -2.0720150    0.1587860  
H    -7.2590810   -0.6156200   -2.7540750  
H    -6.2278760   -2.7354840    4.2780640  
