66


C     3.6412800   -1.4559730   -2.0892130  
C     4.8502800   -2.0911110   -2.0126710  
C     5.4307190   -1.7469490   -0.7456340  
C     4.5072190   -0.8936170   -0.0860720  
N     3.4121180   -0.7222840   -0.9275520  
C     4.7399170   -0.3775810    1.1994540  
C     5.9356390   -0.7166480    1.8186170  
O     6.2091360   -0.2436910    3.0684520  
C     6.8746050   -1.5581400    1.1673840  
O     8.0151720   -1.8003010    1.9094370  
C     6.6333790   -2.0770620   -0.0921530  
H     5.2817010   -2.7271960   -2.7734920  
H     4.0118570    0.2241100    1.7337290  
H     7.0718250   -0.6079290    3.3319440  
H     8.5877890   -2.4176780    1.4308810  
H     7.3640920   -2.7298430   -0.5660610  
H     2.9066010   -1.4349740   -2.8809470  
C    -0.9528900   -1.5154190   -0.9452550  
C     0.4139400   -1.6661620   -0.9774690  
C     0.9740720   -0.3679680   -0.7455780  
C    -0.1046510    0.5352920   -0.5532050  
N    -1.2693050   -0.1928470   -0.6966470  
C     0.0534000    1.9138690   -0.2872450  
C     1.3785710    2.3490470   -0.2603730  
O     1.6553140    3.6859690   -0.0514000  
C     2.4781530    1.4859790   -0.4686410  
O     3.7016570    2.1210720   -0.4536040  
C     2.2953300    0.1257190   -0.7007650  
H     0.9467340   -2.5949740   -1.1164180  
H    -2.2007120    0.1915840   -0.6370020  
H     2.6277510    3.7681360   -0.0350690  
H     4.4098770    1.4816560   -0.2605180  
C    -1.8779730   -3.4566870   -2.1508430  
C    -2.9727690   -4.2689470   -2.0769810  
C    -3.7900210   -3.7864130   -0.9981100  
C    -3.1278910   -2.6630470   -0.4409880  
N    -1.9508200   -2.4670790   -1.1695670  
C    -3.6354410   -1.9606990    0.6589880  
C    -4.8425980   -2.3884200    1.1905010  
O    -5.3823660   -1.7319890    2.2629730  
C    -5.5259650   -3.5011850    0.6380050  
O    -6.7158200   -3.8022440    1.2749790  
C    -5.0147030   -4.2003660   -0.4404110  
H    -3.1830000   -5.1083770   -2.7255920  
H    -3.1366460   -1.1082480    1.1037220  
H    -6.2095640   -2.1905280    2.4902220  
H    -7.1139880   -4.5827070    0.8622530  
H    -5.5498590   -5.0574620   -0.8448070  
H    -1.0403350   -3.4613080   -2.8326520  
C    -3.5899630    1.6145800    2.3324450  
C    -2.3562870    1.4274410    1.7623180  
C    -2.1660730    2.4773970    0.7955800  
C    -3.3274300    3.2934310    0.8481480  
N    -4.1790190    2.7353740    1.7808500  
C    -3.4801580    4.4541950    0.0810520  
C    -2.4216580    4.8030450   -0.7415020  
O    -2.4839540    5.9325690   -1.5003830  
C    -1.2528030    3.9980720   -0.8265870  
O    -0.3155230    4.4688980   -1.7237720  
C    -1.1107900    2.8153520   -0.0983260  
H    -1.6521060    0.6506310    2.0235160  
H    -5.0852820    3.0989670    2.0299660  
H    -4.3637820    5.0825850    0.1268930  
H    -1.6284430    5.9760540   -1.9690090  
H     0.5656460    4.4008580   -1.2972230  
H    -4.1085350    1.0260870    3.0758050  
