64


C    -2.2431120    1.6047930    1.8022490  
C    -3.3619620    2.3849640    1.8960680  
C    -3.2222390    3.4467000    0.9389280  
C    -1.9788830    3.2585760    0.2842450  
N    -1.3854990    2.1207170    0.8277100  
C    -1.5271630    4.1027170   -0.7365120  
C    -2.3421740    5.1652110   -1.0936420  
O    -1.9472010    6.0239830   -2.0799930  
C    -3.5874300    5.3749890   -0.4442240  
O    -4.2838030    6.4749660   -0.9118070  
C    -4.0331050    4.5342470    0.5582310  
H    -4.1853850    2.2298400    2.5800000  
H    -0.5742140    3.9644310   -1.2332220  
H    -2.6405040    6.7008140   -2.1644820  
H    -5.0938450    6.5869130   -0.3929620  
H    -4.9939620    4.7095150    1.0385050  
H    -1.9421130    0.7373450    2.3728100  
C    -0.7541650   -1.8456710   -0.8229300  
C     0.6139000   -1.7787980   -0.9496750  
C     1.0046000   -0.4707650   -0.5074710  
C    -0.1740110    0.2060180   -0.1063240  
N    -1.2342120   -0.6532860   -0.3056160  
C    -0.1780910    1.5102520    0.4150280  
C     1.0574440    2.1521700    0.5234020  
O     1.1289370    3.4097470    1.0264280  
C     2.2479400    1.5117630    0.0928290  
O     3.3751930    2.2990460    0.1849870  
C     2.2358770    0.2125390   -0.4140710  
H     1.2565350   -2.5867760   -1.2669760  
H    -2.2090580   -0.4022730   -0.2237210  
H     2.0719060    3.6587340    1.0191910  
H     4.1475010    1.7620690    0.4420800  
C    -1.5228240   -3.6552530   -2.3154550  
C    -2.5149800   -4.5916990   -2.3358180  
C    -3.2964220   -4.4147750   -1.1422060  
C    -2.7198920   -3.3414050   -0.4187970  
N    -1.6291240   -2.8763450   -1.1604490  
C    -3.2116670   -2.9212020    0.8237020  
C    -4.3215810   -3.5816580    1.3302020  
O    -4.8390980   -3.2066740    2.5352640  
C    -4.9228730   -4.6464150    0.6100940  
O    -6.0196700   -5.1981350    1.2422750  
C    -4.4226690   -5.0690420   -0.6079150  
H    -2.6818380   -5.3194550   -3.1180960  
H    -2.7579830   -2.1267830    1.4049450  
H    -5.5942640   -3.7913820    2.7200190  
H    -6.3617400   -5.9354970    0.7155410  
H    -4.8904630   -5.8958410   -1.1386830  
H    -0.7454790   -3.4335910   -3.0317260  
C     3.6754020   -0.8220970   -2.1824400  
C     4.9439840   -1.2687130   -2.3427030  
C     5.6124020   -1.1315060   -1.0650300  
C     4.6024140   -0.5678030   -0.1329260  
N     3.4398650   -0.3970520   -0.8637320  
C     4.8398690   -0.2959160    1.1826280  
C     6.1698010   -0.5748530    1.7217630  
O     6.4670690   -0.3873110    2.8909780  
C     7.2580300   -1.1492860    0.7439750  
O     8.3830790   -1.3610190    1.1660470  
C     6.8728380   -1.4147060   -0.6473130  
H     5.3812340   -1.6485520   -3.2546450  
H     4.0669940    0.0351900    1.8704820  
H     7.6279960   -1.8342370   -1.3053240  
H     2.8698540   -0.7457920   -2.8999120  
