64


C    -2.9827420   -1.3262760   -1.3594690  
C    -2.0076600   -2.0104620   -0.6534230  
C    -2.6509150   -3.1997240   -0.1314700  
C    -4.0018700   -3.1664610   -0.5563110  
N    -4.1709010   -2.0169950   -1.3063340  
C    -4.9359350   -4.1512990   -0.2113340  
C    -4.4935860   -5.1957090    0.5839720  
O    -5.3549360   -6.1881290    0.9486350  
C    -3.1438970   -5.2434320    1.0256330  
O    -2.8556830   -6.3442380    1.8101820  
C    -2.2285490   -4.2668800    0.6856660  
H    -5.0193320   -1.7543990   -1.7829330  
H    -5.9704160   -4.1236340   -0.5380590  
H    -4.8501620   -6.8213540    1.4879770  
H    -1.9121300   -6.3439220    2.0294870  
H    -1.1967100   -4.3369880    1.0145460  
H    -2.8913650   -0.4262920   -1.9512600  
C    -0.5331810    1.9563690    0.4607590  
C     0.8235410    1.6748790    0.3967960  
C     0.9783740    0.3130730    0.0019190  
C    -0.3267810   -0.2048850   -0.1700140  
N    -1.2207390    0.8193320    0.0807770  
C    -0.6253000   -1.5509840   -0.4798570  
C     0.4868040   -2.3922650   -0.6012990  
O     0.3179060   -3.7140340   -0.9005430  
C     1.8122820   -1.9202630   -0.4613530  
O     2.7420620   -2.8845180   -0.6506440  
C     2.1114680   -0.5518550   -0.1923580  
H     1.5960760    2.3939150    0.6166160  
H    -2.2069150    0.6687280    0.2387140  
H     1.2184480   -4.0806720   -0.9880230  
H     3.6485620   -2.4566400   -0.5128360  
C     3.4674750   -0.0994020   -0.1326060  
C     4.0147590    1.1713510   -0.0217290  
C     5.4252230    1.0144550   -0.0220190  
C     5.6460520   -0.4662280   -0.1443080  
N     4.5070330   -1.0970980   -0.2131830  
C     6.9567700   -1.0418490   -0.1788970  
C     8.0026990   -0.1811290   -0.1015130  
O     9.2827000   -0.5479320   -0.1209240  
C     7.8219660    1.3295000    0.0183260  
O     8.8735150    1.9834580    0.0789520  
C     6.4903490    1.8748790    0.0528320  
H     3.4910340    2.1121820    0.0092750  
H     7.0927640   -2.1141610   -0.2647320  
H     9.7766940    0.3076410   -0.0491180  
H     6.3839080    2.9514550    0.1374670  
C    -0.7972940    4.0506530    1.8329920  
C    -1.2221230    3.1711070    0.8581330  
C    -2.4640000    3.7061960    0.3399630  
C    -2.7302460    4.9045790    1.0501020  
N    -1.6941810    5.0890400    1.9453080  
C    -3.8534340    5.7016800    0.8000210  
C    -4.7238400    5.2868860   -0.1959050  
O    -5.8314430    6.0285400   -0.4838800  
C    -4.4653810    4.0997530   -0.9309320  
O    -5.4163620    3.8223580   -1.8970950  
C    -3.3573190    3.3123050   -0.6764190  
H    -1.6228740    5.8477690    2.6051150  
H    -4.0551280    6.6213040    1.3397060  
H    -6.2785820    5.5980160   -1.2330940  
H    -5.0736460    3.1494410   -2.5033090  
H    -3.1739260    2.4180880   -1.2681420  
H     0.0708930    3.9941280    2.4737820  
