66


C     2.0668700   -0.1876590    3.1803900  
C     3.2438830   -0.1032840    2.4820250  
C     2.8986410    0.0254320    1.0957790  
C     1.4790210    0.0232400    1.0175410  
N     1.0043020   -0.1244760    2.3031000  
C     0.7536310    0.1184450   -0.1941220  
C     1.5483550    0.1931480   -1.3369740  
O     0.9550560    0.2374750   -2.5876980  
C     2.9608850    0.2061560   -1.2874380  
O     3.5595320    0.2826580   -2.5290450  
C     3.6699780    0.1328640   -0.0894680  
H     4.2405550   -0.1452670    2.8961790  
H     0.0283810   -0.0774300    2.5558560  
H     1.6808960    0.2639380   -3.2389220  
H     4.5174550    0.1482840   -2.4194980  
H     1.8930740   -0.2955280    4.2418630  
C     6.7603460   -2.9297330    1.1254910  
C     5.5827830   -2.2758620    0.8726650  
C     5.9228570   -0.9796940    0.3567200  
C     7.3409920   -0.9073440    0.3159220  
N     7.8233710   -2.1099520    0.7900820  
C     8.0345080    0.2173280   -0.1489390  
C     7.2794710    1.2962830   -0.5786380  
O     7.8975650    2.4277210   -1.0281410  
C     5.8612180    1.2442760   -0.5541600  
O     5.2509850    2.3986000   -1.0041000  
C     5.1589080    0.1272020   -0.0977730  
H     4.5884600   -2.6637690    1.0395270  
H     8.7976320   -2.3508240    0.8809430  
H     9.1180040    0.2746330   -0.1750450  
H     7.1971390    3.0732090   -1.2278220  
H     4.3051080    2.3548150   -0.7801110  
H     6.9364670   -3.9201340    1.5210680  
C    -2.3944980    2.3616680    2.1179040  
C    -1.2088630    1.9398750    1.5713380  
C    -1.5234690    0.9071760    0.6188140  
C    -2.9383530    0.7668010    0.6247240  
N    -3.4328730    1.6449900    1.5659360  
C    -3.6502990   -0.1390780   -0.1958420  
C    -2.8382440   -0.8995090   -1.0330440  
O    -3.4007460   -1.8317630   -1.8808900  
C    -1.4266750   -0.7900500   -1.0623790  
O    -0.8244140   -1.6615030   -1.9485250  
C    -0.7296430    0.0869340   -0.2318640  
H    -0.2299420    2.3338610    1.8021790  
H    -4.4166770    1.8196930    1.7097070  
H    -2.6438390   -2.2106350   -2.3743640  
H    -0.1384450   -1.1559940   -2.4393140  
H    -2.5866080    3.1242500    2.8596220  
C    -6.9993840    2.8815040   -0.3226700  
C    -5.7737840    2.2690160   -0.3823390  
C    -5.9869710    0.8592960   -0.1696180  
C    -7.3861020    0.6832290    0.0004890  
N    -7.9723590    1.9305770   -0.0825230  
C    -7.9850690   -0.5690870    0.1811870  
C    -7.1444570   -1.6688160    0.1622390  
O    -7.6504870   -2.9249490    0.3048820  
C    -5.7386520   -1.5251530   -0.0001230  
O    -5.0522710   -2.7211680    0.0382640  
C    -5.1269500   -0.2770340   -0.1357900  
H    -4.8339660    2.7597540   -0.5905480  
H    -8.9627930    2.1089690   -0.0299680  
H    -9.0550830   -0.7020510    0.3043290  
H    -6.8800280   -3.5209990    0.2321910  
H    -4.3954950   -2.7113620   -0.6929500  
H    -7.2647310    3.9226170   -0.4413500  
