62


C     4.9668040    1.3572570   -1.9341600  
C     6.2308740    1.0165070   -2.3302280  
C     6.7049190    0.0128090   -1.4200610  
C     5.6643690   -0.2215370   -0.4829020  
N     4.6021030    0.6183820   -0.8110120  
C     5.7736590   -1.1703140    0.5463200  
C     6.9623900   -1.8804440    0.6382530  
O     7.1197290   -2.8151820    1.6202080  
C     8.0171420   -1.6493910   -0.2830030  
O     9.1347400   -2.4309220   -0.0585960  
C     7.8996660   -0.7235880   -1.3039280  
H     6.7665490    1.4366080   -3.1705440  
H     4.9657910   -1.3847480    1.2376730  
H     8.0055860   -3.2015880    1.5097980  
H     9.8054010   -2.2371470   -0.7299730  
H     8.7182220   -0.5718330   -2.0050130  
H     4.2760210    2.0844350   -2.3357870  
C     0.3986250    0.0864940   -2.1221330  
C     1.7637840    0.1301470   -2.0850580  
C     2.1364030    0.5373960   -0.7589480  
C     0.9413710    0.7256990   -0.0226180  
N    -0.1228990    0.4485060   -0.8794160  
C     0.9268750    1.0729110    1.3334130  
C     2.1527940    1.2589970    1.9536900  
O     2.2023030    1.6014790    3.2714600  
C     3.3686920    1.1121850    1.2352500  
O     4.4956500    1.3771840    1.9766780  
C     3.3726690    0.7499890   -0.1091440  
H     2.4306750   -0.0964470   -2.9044850  
H     0.0119830    1.1966900    1.9013570  
H     3.1424820    1.6767350    3.5126520  
H     5.2869270    1.0671610    1.5040550  
H    -0.2765280   -0.1499260   -2.9321050  
C    -2.3426190   -0.5777500   -0.5859670  
C    -1.4876590    0.4789250   -0.5478640  
C    -2.2610180    1.6546100   -0.1765570  
C    -3.6530700    1.1825640   -0.0031080  
N    -3.6502570   -0.1918020   -0.2810900  
C    -4.6739840    1.9766300    0.3972300  
C    -4.4008790    3.3955820    0.6347360  
O    -5.2592060    4.1784680    1.0086260  
C    -2.9392840    3.9222260    0.4024220  
O    -2.7008530    5.1069870    0.5693610  
C    -1.9122680    2.9535020    0.0037900  
H    -5.6904340    1.6264950    0.5317370  
H    -0.8947480    3.3087550   -0.1218490  
H    -2.1335210   -1.6076730   -0.8405690  
C    -4.2620900   -3.9769910    1.8386860  
C    -3.7573910   -2.7917550    1.3998160  
C    -4.7264530   -2.2279750    0.4886250  
C    -5.8510430   -3.1914050    0.4272760  
N    -5.4964370   -4.2353760    1.2618320  
C    -6.9862600   -3.0229120   -0.2982880  
C    -7.1190160   -1.8108680   -1.0948200  
O    -8.1140570   -1.5365500   -1.7452690  
C    -5.9141180   -0.7980270   -1.1203900  
O    -5.9596250    0.1562390   -1.8745030  
C    -4.7530370   -1.0686960   -0.2412960  
H    -2.8187270   -2.3500980    1.6984790  
H    -7.8015060   -3.7391430   -0.3093210  
H    -3.8366020   -4.6819650    2.5405200  
H    -6.0796680   -5.0325770    1.4632370  
