62


C     4.9882120   -0.9092410   -0.0312380  
C     5.8591420   -1.8785870    0.3986360  
C     7.1781730   -1.4407680    0.0385730  
C     7.0429210   -0.1816170   -0.6032550  
N     5.6941890    0.1291730   -0.6226570  
C     8.1376410    0.5448160   -1.0841520  
C     9.3971110   -0.0107890   -0.9159100  
O    10.4988020    0.6524190   -1.3731700  
C     9.5537120   -1.2653750   -0.2695500  
O    10.8683350   -1.6814810   -0.1726090  
C     8.4692620   -1.9789790    0.2069030  
H     5.5864840   -2.7734470    0.9400620  
H     5.2676390    0.8745550   -1.1518750  
H     8.0374790    1.5071520   -1.5754650  
H    11.2737560    0.1052560   -1.1582480  
H    10.9039090   -2.5394980    0.2751900  
H     8.6151240   -2.9381700    0.6997440  
C     2.7528610   -1.9201420   -0.3462130  
C     1.4470240   -1.5703810   -0.1403990  
C     1.4405460   -0.2365000    0.3900040  
C     2.7945660    0.1770420    0.4856260  
N     3.5895580   -0.8721190    0.0248410  
C     3.1756480    1.4303430    0.9744500  
C     2.1600070    2.2948570    1.3601000  
O     2.4744230    3.5211080    1.8648420  
C     0.8020730    1.9133860    1.2532790  
O    -0.0847310    2.8865990    1.6889020  
C     0.4067350    0.6623990    0.7713190  
H     0.5881130   -2.1864240   -0.3632610  
H     4.2109210    1.7317810    1.0853070  
H     1.6377960    3.9409920    2.1323480  
H    -0.9048940    2.4613470    1.9845280  
H     3.1855390   -2.8249830   -0.7472070  
C    -1.5920580   -0.9000760    1.0281640  
C    -1.0085880    0.2825140    0.6808610  
C    -2.1196880    1.0571550    0.0769850  
C    -3.3007650    0.1498230    0.1754890  
N    -2.9802060   -0.9827990    0.7333140  
C    -4.6104970    0.5315090   -0.3244700  
C    -4.7021040    1.7615390   -0.9072500  
O    -5.8453780    2.2744650   -1.3800030  
C    -3.5229300    2.6805490   -1.0415080  
O    -3.7088150    3.7698620   -1.5810750  
C    -2.2072790    2.2614420   -0.5191430  
H    -5.6061040    3.1529390   -1.7511750  
H    -1.3812850    2.9562290   -0.6275090  
H    -1.1133620   -1.7503860    1.4979290  
C    -6.8283180   -1.5908340    2.9499940  
C    -5.9111940   -0.8337840    2.3056360  
C    -6.2565820   -0.9362100    0.8914730  
C    -7.4581000   -1.8316270    0.8800630  
N    -7.7892360   -2.2056360    2.0817790  
C    -8.1348150   -2.1809360   -0.3418910  
C    -7.6468930   -1.6722680   -1.4954310  
O    -8.1652720   -1.9211830   -2.7094530  
C    -6.4359730   -0.7769800   -1.5237410  
O    -6.0308370   -0.4198140   -2.6258900  
C    -5.7652120   -0.3858910   -0.2460350  
H    -5.0820390   -0.2850820    2.7258160  
H    -9.0009000   -2.8327560   -0.3164100  
H    -7.5884360   -1.4392560   -3.3420320  
H    -6.9099370   -1.7746940    4.0147480  
