62


C     2.6341640   -3.9283600   -2.6473960  
C     3.5481570   -4.7150160   -1.9971700  
C     3.9449460   -4.0090740   -0.8113680  
C     3.2236120   -2.7870710   -0.7931330  
N     2.4335500   -2.7663510   -1.9239170  
C     3.3855560   -1.8056140    0.2118660  
C     4.3015020   -2.1100700    1.2242780  
O     4.4687700   -1.2451960    2.2602180  
C     5.0212890   -3.3317450    1.2232570  
O     5.8691820   -3.4758930    2.3067980  
C     4.8578960   -4.2757060    0.2276980  
H     3.9044330   -5.6816220   -2.3259800  
H     1.8265100   -2.0066410   -2.1882870  
H     5.2106940   -1.5759250    2.7961450  
H     6.4488790   -4.2381870    2.1627390  
H     5.4240180   -5.2047890    0.2510030  
H     2.1012270   -4.0949230   -3.5729080  
C    -0.9462410   -0.7621710    0.0113630  
C     0.2648020   -1.4064960    0.0805170  
C     1.3027180   -0.4101840    0.1171620  
C     0.6186110    0.8982230    0.0690750  
N    -0.7284810    0.6251050    0.0283190  
C     1.2337750    2.1249560    0.0449910  
C     2.7003010    2.1167820    0.1896000  
O     3.3499290    3.1314710    0.3757090  
C     3.4553220    0.7433570    0.1592330  
O     4.6687470    0.7678410    0.0602630  
C     2.6730000   -0.5161440    0.1970640  
H     0.4082010   -2.4724270    0.1716670  
H    -1.4221500    1.3179410   -0.2140340  
C    -2.2860050    4.0667760    2.0882500  
C    -1.3183690    3.1650850    1.7768740  
C    -0.5721000    3.7724550    0.6783490  
C    -1.2543450    5.0822260    0.4695440  
N    -2.2593210    5.2431340    1.2899030  
C    -0.7995880    6.0326420   -0.5112370  
C     0.2791310    5.6994730   -1.2556920  
O     0.8093110    6.4837330   -2.2073590  
C     0.9565170    4.3609670   -1.1200730  
O     1.8101480    4.0836820   -1.9540390  
C     0.5154200    3.3968060   -0.0540380  
H    -1.0969020    2.2293200    2.2699600  
H    -1.3141370    6.9798370   -0.6286670  
H     1.5341970    5.9556770   -2.6084760  
H    -3.0348060    3.9909760    2.8687750  
C    -2.2848270   -1.2778590   -0.0167340  
C    -2.7476090   -2.5343240   -0.3709700  
C    -4.1650390   -2.5256730   -0.2396300  
C    -4.5353660   -1.2261860    0.2070600  
N    -3.3829290   -0.4725130    0.2989410  
C    -5.8620570   -0.8679770    0.4707820  
C    -6.8341170   -1.8344890    0.2666890  
O    -8.1392310   -1.5425010    0.5062120  
C    -6.4845440   -3.1372330   -0.1981260  
O    -7.5703670   -3.9715840   -0.3548940  
C    -5.1762930   -3.4889860   -0.4539410  
H    -2.1303140   -3.3486090   -0.7250970  
H    -3.3162260    0.3854720    0.8289480  
H    -6.1508150    0.1191770    0.8158890  
H    -8.6607270   -2.3388310    0.3032450  
H    -7.2753140   -4.8419140   -0.6615490  
H    -4.9297280   -4.4888040   -0.8042260  
