60


C    -1.1030580   -4.0811310   -0.7768610  
C    -2.1815660   -4.9001900   -0.6960980  
C    -3.3211790   -4.0914420   -0.3347480  
C    -2.8738290   -2.7562440   -0.2108240  
N    -1.4825570   -2.7570820   -0.4895870  
C    -3.7324310   -1.7153160    0.1494260  
C    -5.0647250   -2.0372530    0.3837200  
O    -5.9376880   -1.0525980    0.7463460  
C    -5.5281080   -3.3680710    0.2561090  
O    -6.8711950   -3.5262430    0.5189410  
C    -4.6693190   -4.3965930   -0.1004220  
H    -2.1781830   -5.9667290   -0.8764530  
H    -3.3919950   -0.6944080    0.2421840  
H    -6.8161560   -1.4626220    0.8292120  
H    -7.1294590   -4.4484350    0.3722600  
H    -5.0348960   -5.4172070   -0.1897620  
H    -0.0790020   -4.3022060   -1.0317500  
C    -0.6044820   -1.7102280   -0.4758950  
C     0.7748090   -1.7583120   -0.6287390  
C     1.1981030   -0.4106790   -0.5223320  
C    -0.0694550    0.3788790   -0.3173580  
N    -1.1134490   -0.4070800   -0.2862410  
C    -0.0830000    1.8155720   -0.1742150  
C     1.1447490    2.4146630   -0.2060940  
O     1.3294360    3.7162130   -0.0281170  
C     2.4506940    1.6628280   -0.4297770  
O     3.4677320    2.3563690   -0.4867620  
C     2.4199980    0.2141500   -0.5695060  
H     1.4056870   -2.6254030   -0.7465280  
H     2.2982960    3.8619500   -0.1535740  
C    -3.5952740    1.7487670    2.5902480  
C    -2.4011390    1.5123560    1.9876250  
C    -2.3044650    2.4043850    0.8528170  
C    -3.5576380    3.2025430    0.8541310  
N    -4.2885880    2.7624270    1.9396030  
C    -3.8661460    4.1714020   -0.0449290  
C    -2.9042070    4.4594940   -1.0977490  
O    -3.0713400    5.3266640   -1.9415290  
C    -1.5848650    3.6056020   -1.1525020  
O    -0.8202370    3.7840620   -2.0843970  
C    -1.3347560    2.5945480   -0.0940160  
H    -1.6677110    0.7812240    2.2883030  
H    -4.7847580    4.7489200   -0.0110190  
H    -4.0300590    1.2727380    3.4589530  
H    -5.2258480    3.0606200    2.1588470  
C     3.8202190   -1.2665310   -1.9970230  
C     5.0557980   -1.8229350   -2.0065950  
C     5.7316240   -1.3966440   -0.7999250  
C     4.7716890   -0.5289670   -0.0737840  
N     3.6161830   -0.4768970   -0.8566410  
C     5.0201010    0.0344910    1.1334330  
C     6.3221270   -0.1986100    1.7559090  
O     6.6286070    0.2652350    2.8435620  
C     7.3636340   -1.0926920    0.9901710  
O     8.4578330   -1.2926180    1.4943120  
C     6.9667340   -1.6621530   -0.2992680  
H     5.4664880   -2.4570270   -2.7790960  
H     4.3099360    0.6615990    1.6595210  
H     7.6830540   -2.2961230   -0.8131050  
H     3.0244510   -1.3372740   -2.7263610  
