62


C    -3.1486050    1.4402670   -1.3454270  
C    -2.9565660    0.2076310   -0.7378230  
C    -4.2435570   -0.1593190   -0.1689880  
C    -5.1458950    0.8920880   -0.4665800  
N    -4.4507210    1.8441250   -1.1888700  
C    -6.4831890    0.8998610   -0.0502830  
C    -6.9244390   -0.1850080    0.6885590  
O    -8.2179670   -0.2427180    1.1154320  
C    -6.0356350   -1.2472580    1.0037950  
O    -6.6182120   -2.2587360    1.7439410  
C    -4.7174410   -1.2460120    0.5937340  
H    -4.8474340    2.6864680   -1.5754360  
H    -7.1684580    1.7074220   -0.2866640  
H    -8.3256580   -1.0901250    1.5817500  
H    -6.0068420   -3.0086910    1.7971550  
H    -4.0714930   -2.0861080    0.8223250  
H    -2.4611610    2.0333180   -1.9306250  
C     1.1138880    1.7094680   -0.0819980  
C     1.7809390    0.5157810   -0.1140820  
C     0.8443590   -0.5329220   -0.4147710  
C    -0.4678700    0.1184620   -0.5456290  
N    -0.2479410    1.5010240   -0.4332110  
C    -1.6775930   -0.5057880   -0.6829120  
C    -1.5993290   -1.9812580   -0.7958490  
O    -2.5828690   -2.6950170   -0.8980750  
C    -0.1925770   -2.6857750   -0.8297700  
O    -0.1667500   -3.8704850   -1.1199050  
C     1.0085980   -1.8914360   -0.5404310  
H     2.8476780    0.3946740   -0.0104220  
H    -0.9712950    2.0468400    0.0313820  
C     4.3012460    3.3580550    2.6165130  
C     3.4306390    2.5201800    1.9658360  
C     2.6614690    3.3275730    1.0644470  
C     3.1105770    4.6645730    1.2234160  
N     4.1140980    4.6502190    2.1698040  
C     2.5648560    5.7431070    0.5185420  
C     1.5366010    5.4717990   -0.3703350  
O     0.9823350    6.4847360   -1.0959450  
C     1.0577740    4.1502820   -0.5471390  
O     0.0581890    4.0479120   -1.4900810  
C     1.6004110    3.0610620    0.1521430  
H     3.3399890    1.4564500    2.1276010  
H     4.6182720    5.4599830    2.4952800  
H     2.9165140    6.7631170    0.6355990  
H     0.3245930    6.0834180   -1.6903570  
H    -0.1165590    3.1022320   -1.6613670  
H     5.0456940    3.1387770    3.3686870  
C     2.2707800   -5.1409550    2.1074000  
C     3.5148830   -5.4226400    1.6596360  
C     3.7581320   -4.4582690    0.5900290  
C     2.4875870   -3.6689480    0.5142690  
N     1.6373270   -4.0541220    1.4167910  
C     2.3064600   -2.5780460   -0.4383780  
C     3.3933070   -2.2682150   -1.2015500  
O     3.4082530   -1.2785520   -2.1157390  
C     4.6818170   -3.0311060   -1.1304120  
O     5.5915510   -2.6854740   -1.8863590  
C     4.8145300   -4.1573880   -0.1878390  
H     4.2015420   -6.1794120    2.0126820  
H     4.3020000   -1.3258420   -2.5236590  
H     5.7688240   -4.6749920   -0.1641450  
H     1.7212900   -5.6286540    2.9037030  
