62


C     3.2392340   -1.5797550    0.1485080  
C     4.1599860   -0.5523750    0.1259090  
C     3.3902620    0.6713920    0.0895410  
C     2.0203300    0.3141170    0.0989330  
N     1.9586610   -1.0631500    0.1352330  
C     0.9710060    1.2602690    0.0088620  
C     1.3604730    2.6024620   -0.0723910  
O     0.4143590    3.5760970   -0.0810360  
C     2.7299080    2.9702700   -0.0736760  
O     2.9330490    4.3353580   -0.1395520  
C     3.7397780    2.0322050    0.0013620  
H     1.1089960   -1.6044840    0.1588910  
H     0.8708420    4.4248790   -0.2174560  
H     3.8822630    4.5170220   -0.2039690  
H     4.7818770    2.3366970    0.0196270  
H     3.4014450   -2.6461410    0.2224010  
C    -1.5703410   -1.1254020    2.7576320  
C    -0.5410500   -0.4744330    2.1603150  
C    -1.0463660    0.0817410    0.9179690  
C    -2.4649350   -0.3067210    0.8416950  
N    -2.7125730   -1.0648310    1.9608640  
C    -3.3714140    0.0947810   -0.1224510  
C    -2.8219580    0.9304550   -1.2110110  
O    -3.4625310    1.2959900   -2.1774110  
C    -1.2914190    1.3035580   -1.1801700  
O    -0.8299780    1.8796390   -2.1453830  
C    -0.4472420    0.8773320   -0.0272630  
H     0.4613800   -0.3628020    2.5448800  
H    -1.6019280   -1.6498820    3.7031480  
H    -3.6493780   -1.3058800    2.2555260  
C    -4.7700260   -0.2665180   -0.0696410  
C    -5.3391520   -1.4189630    0.4344630  
C    -6.7613390   -1.2566820    0.2809690  
C    -6.9069460    0.1080800   -0.3242630  
N    -5.7556180    0.6745520   -0.5335800  
C    -8.2027840    0.6682330   -0.6121610  
C    -9.2883420   -0.0946750   -0.3450930  
O   -10.5543000    0.2854730   -0.5681720  
C    -9.1713120   -1.4835130    0.2453730  
O   -10.2244300   -2.0913860    0.4521470  
C    -7.8474870   -2.0249540    0.5475010  
H    -4.8346320   -2.3252510    0.7425290  
H    -8.2818960    1.6609080   -1.0408730  
H   -11.1027390   -0.4781900   -0.2759310  
H    -7.8029480   -3.0194680    0.9809200  
C     6.6540560   -3.1221750   -2.4257340  
C     7.8762060   -2.8031600   -1.8932030  
C     7.6449880   -1.8415530   -0.8519530  
C     6.2447160   -1.6212690   -0.7946380  
N     5.6656400   -2.4261980   -1.7552960  
C     5.6245600   -0.7174240    0.0964850  
C     6.4897190   -0.0197650    0.9418500  
O     5.9890450    0.8757370    1.8503620  
C     7.8927740   -0.2256420    0.8975610  
O     8.5938620    0.5484440    1.8090570  
C     8.4794520   -1.1233220    0.0267960  
H     8.8304390   -3.2056460   -2.2047460  
H     4.6909200   -2.3836070   -2.0109170  
H     6.7463460    1.1962570    2.3709330  
H     9.5240780    0.2793150    1.8082060  
H     9.5592560   -1.2581900    0.0153950  
H     6.3983190   -3.8005190   -3.2276480  
