62


C    -3.1398350    1.3671830   -1.6488440  
C    -3.0681020    0.2797080   -0.7903490  
C    -4.4186990    0.0719180   -0.2942780  
C    -5.2334730    1.0722620   -0.8804580  
N    -4.4238480    1.8376830   -1.7034110  
C    -6.5995870    1.2087980   -0.6088780  
C    -7.1634800    0.3116200    0.2837190  
O    -8.4914310    0.3890030    0.5840030  
C    -6.3648460   -0.6932640    0.8900220  
O    -7.0644500   -1.5119310    1.7563700  
C    -5.0162500   -0.8201630    0.6178550  
H    -4.7430840    2.5836500   -2.3021670  
H    -7.2165930    1.9767430   -1.0640990  
H    -8.6858880   -0.3319770    1.2077730  
H    -6.4821170   -2.2198530    2.0697740  
H    -4.4377360   -1.6150170    1.0763720  
H    -2.3616660    1.8010570   -2.2595840  
C     1.1998660    1.5469420   -0.3334330  
C    -0.1726810    1.5705910   -0.4000350  
C    -0.6014360    0.1917840   -0.3866870  
C     0.6677060   -0.5683830   -0.2561170  
N     1.7110620    0.2082600   -0.2563000  
C     0.6976480   -2.0194820   -0.1576110  
C    -0.5013840   -2.6476050   -0.2443450  
O    -0.6549390   -3.9796410   -0.1623440  
C    -1.8031830   -1.9051490   -0.4001830  
O    -2.8182150   -2.6056480   -0.4396340  
C    -1.8227950   -0.4234860   -0.5016400  
H    -0.8074430    2.4375430   -0.5110210  
H    -1.6231430   -4.1243170   -0.2596270  
C     0.7270530    5.4075510    1.7063550  
C     1.9238940    5.9656550    1.3394960  
C     2.6047560    5.0000840    0.5243630  
C     1.7578320    3.8692120    0.4213440  
N     0.6160200    4.1510460    1.1400640  
C     2.1102600    2.6814310   -0.2692160  
C     3.3786980    2.6833780   -0.8749140  
O     3.7940120    1.6236670   -1.6127770  
C     4.2286150    3.8178740   -0.7857440  
O     5.4303630    3.6573950   -1.4535330  
C     3.8639610    4.9636770   -0.1070670  
H     2.2814000    6.9475420    1.6179600  
H    -0.0999190    3.4699940    1.3452050  
H     4.6888210    1.8340580   -1.9335530  
H     5.9613640    4.4617150   -1.3607040  
H     4.5400870    5.8152600   -0.0595850  
H    -0.0707420    5.8039290    2.3184540  
C     3.5735980   -1.9739960    3.1572660  
C     4.5594560   -2.7807910    2.7034460  
C     4.1016080   -3.2342940    1.3934010  
C     2.7789790   -2.5506270    1.2128740  
N     2.4703270   -1.8338100    2.2517140  
C     1.9734210   -2.7422630    0.0177920  
C     2.4545640   -3.6191100   -0.9043250  
O     1.8282580   -3.9121660   -2.0544670  
C     3.7712490   -4.3266910   -0.7384300  
O     4.1262420   -5.0861780   -1.6395080  
C     4.5812620   -4.0880040    0.4696460  
H     5.4841770   -3.0537470    3.1925580  
H     2.4164380   -4.5543460   -2.5101750  
H     5.5207660   -4.6261430    0.5522460  
H     3.5295920   -1.4425150    4.1006630  
