64


C     4.9268930   -0.3404710   -0.0832010  
C     5.3329890    0.9873120   -0.0584840  
C     6.7222630    1.0122570    0.2784450  
C     7.1266350   -0.3389560    0.4535520  
N     6.0212700   -1.1294790    0.2404640  
C     8.4398700   -0.6971010    0.7842980  
C     9.3623460    0.3252190    0.9408370  
O    10.6571260    0.0321470    1.2627930  
C     8.9760370    1.6821770    0.7703200  
O    10.0084630    2.5837390    0.9614060  
C     7.6799270    2.0342520    0.4451440  
H     4.7320370    1.8401590   -0.3418710  
H     6.0056800   -2.1362310    0.1700240  
H     8.7525530   -1.7274760    0.9187330  
H    11.1352500    0.8769540    1.3228860  
H     9.6799630    3.4832020    0.8171250  
H     7.4100930    3.0814090    0.3196300  
C     0.9110400    1.3930370    0.3608140  
C     0.1733150    0.3361550   -0.1340800  
C     1.1294760   -0.6953390   -0.4736030  
C     2.4175730   -0.1896550   -0.1772540  
N     2.2546390    1.0902870    0.3159440  
C     3.6155340   -0.9202470   -0.3683930  
C     3.4396580   -2.2272490   -0.8377670  
O     4.5256780   -3.0494980   -1.0157890  
C     2.1578160   -2.7421970   -1.1490510  
O     2.1889680   -4.0421550   -1.6224400  
C     1.0063330   -1.9974450   -0.9929170  
H     2.9853680    1.5979200    0.7925710  
H     4.1847510   -3.9004890   -1.3440020  
H     1.2830450   -4.3633810   -1.7408430  
H     0.0325010   -2.4202170   -1.2188050  
H     0.5718210    2.3302120    0.7804550  
C    -2.4508600    3.3339530   -1.9743340  
C    -3.6562420    2.7190080   -1.7495360  
C    -3.3720270    1.4779220   -1.0862780  
C    -1.9649920    1.3998990   -0.9234680  
N    -1.4342340    2.5488300   -1.4707770  
C    -1.2901330    0.3257800   -0.3034350  
C    -2.1120320   -0.7104710    0.1469640  
O    -1.5699450   -1.7964200    0.7701810  
C    -3.5208510   -0.6811250   -0.0255040  
O    -4.1704860   -1.8187390    0.4135980  
C    -4.1589400    0.3991430   -0.6291320  
H    -4.6285770    3.1117670   -2.0111360  
H    -0.4440960    2.7247360   -1.5517900  
H    -2.3222220   -2.3539840    1.0438450  
H    -5.0253290   -1.5855340    0.8208280  
H    -2.2314730    4.2812030   -2.4463310  
C    -6.2100390    0.4519870   -2.0647310  
C    -7.5536930    0.3275620   -1.9430710  
C    -7.8433460    0.1688050   -0.5330380  
C    -6.5317270    0.2242880    0.1626530  
N    -5.5699860    0.3951490   -0.8156850  
C    -6.3758360    0.1225690    1.5146820  
C    -7.5676500   -0.0519290    2.3416270  
O    -7.5289310   -0.1273460    3.5599910  
C    -8.9615780   -0.1385600    1.6200570  
O    -9.9666070   -0.3154780    2.2893190  
C    -8.9993150    0.0032750    0.1598870  
H    -8.2757960    0.3374850   -2.7465420  
H    -5.4196410    0.2539340    2.0133020  
H    -9.9716860   -0.0326370   -0.3223340  
H    -5.6008670    0.5743200   -2.9498560  
