64


C     6.8312660    2.2936870    1.0772590  
C     7.8571010    1.5883640    0.5041090  
C     7.2895240    0.3865510   -0.0360670  
C     5.8947010    0.4249780    0.2358750  
N     5.6502220    1.5956960    0.9225830  
C     4.9990590   -0.6087550   -0.1264510  
C     5.5909180   -1.7032970   -0.7548150  
O     4.8120470   -2.7906330   -1.1117530  
C     6.9754950   -1.7631180   -1.0379070  
O     7.3584320   -2.9310010   -1.6732080  
C     7.8297380   -0.7334950   -0.6965760  
H     8.8969530    1.8832070    0.4777880  
H     4.7393430    1.9013910    1.2282760  
H     5.4027410   -3.4313550   -1.5488400  
H     8.3089860   -2.9063950   -1.8569610  
H     8.8928210   -0.7976290   -0.9182640  
H     6.8404960    3.2443730    1.5915510  
C     1.9598990    2.5949220   -0.8734640  
C     3.0834200    1.8273250   -0.8597410  
C     2.7778310    0.6112700   -0.1432630  
C     1.4198960    0.6929040    0.2496110  
N     0.9227580    1.9246460   -0.2104870  
C     0.7838350   -0.3129530    0.9847310  
C     1.5271650   -1.4536350    1.2532180  
O     0.9622610   -2.4870210    1.9308080  
C     2.8812320   -1.5727660    0.8448680  
O     3.4708360   -2.7585170    1.2146410  
C     3.5474090   -0.5377260    0.1827230  
H     4.0197340    2.0760160   -1.3376760  
H    -0.2316620   -0.2351760    1.3518500  
H     1.6556120   -3.1724480    1.9900440  
H     4.0056220   -3.0777700    0.4542820  
H     1.7612820    3.5458520   -1.3441220  
C    -0.3559040    2.4331660   -0.0890130  
C    -0.7622290    3.7396100   -0.0413940  
C    -2.1990450    3.7434000   -0.0199480  
C    -2.6147640    2.3313240   -0.0372740  
N    -1.4499190    1.5675640   -0.0220680  
C    -3.9099060    1.8757550   -0.0770780  
C    -4.9400560    2.9410240   -0.1767660  
O    -6.1256900    2.7062350   -0.3737520  
C    -4.5184560    4.4521620   -0.0316890  
O    -5.4145030    5.2857560    0.0039340  
C    -3.1083430    4.7649250    0.0209670  
H    -0.1199250    4.6056660    0.0181370  
H    -2.8156280    5.8084970    0.0719830  
H    -1.4278590    0.6444410   -0.4397870  
C    -4.2828720    0.4744410   -0.0580000  
C    -3.5515750   -0.6640590    0.2882900  
C    -4.4112590   -1.7885500    0.1469280  
C    -5.6719200   -1.2934190   -0.2947290  
N    -5.5606140    0.0677770   -0.4142820  
C    -6.7679090   -2.1327480   -0.5349620  
C    -6.5899290   -3.4900750   -0.3237000  
O    -7.6217500   -4.3539520   -0.5393360  
C    -5.3356950   -4.0022550    0.1195660  
O    -5.3251110   -5.3749420    0.2799090  
C    -4.2559310   -3.1771570    0.3543340  
H    -2.5477740   -0.6890130    0.6860700  
H    -6.2880790    0.7434140   -0.6147880  
H    -7.7305290   -1.7613090   -0.8699270  
H    -7.2996700   -5.2470730   -0.3269440  
H    -4.4606280   -5.6534790    0.6164620  
H    -3.3073280   -3.5891990    0.6928550  
