60


C     4.3699170    0.2223820    2.5137020  
C     3.2094590   -0.2610790    1.9647580  
C     3.5752250   -1.0900800    0.8459190  
C     4.9941040   -1.0761840    0.7808760  
N     5.4474070   -0.2524810    1.7925980  
C     5.7256970   -1.8251260   -0.1467840  
C     4.9998990   -2.6284750   -1.0107030  
O     5.6385430   -3.4082870   -1.9237180  
C     3.5784060   -2.6639980   -0.9760470  
O     3.0260310   -3.4967550   -1.9187540  
C     2.8360050   -1.8782560   -0.0887780  
H     2.2136210   -0.0704230    2.3376880  
H     6.4163380   -0.1125240    2.0322850  
H     6.8101840   -1.8217920   -0.1877420  
H     4.9306920   -3.9078450   -2.3759650  
H     2.2873290   -3.9803310   -1.4733240  
H     4.5200150    0.8664200    3.3687150  
C     0.1109210    1.5595580   -0.1021420  
C    -1.0955570    0.8982380   -0.0328360  
C    -0.8278600   -0.5113350   -0.0488780  
C     0.6442590   -0.6548230   -0.1146160  
N     1.1453400    0.6171860   -0.1643250  
C     1.3542860   -1.8382690   -0.1157570  
C     0.5338960   -3.0396500   -0.1768540  
O     0.9837870   -4.1729940   -0.3637890  
C    -1.0292250   -2.9349230   -0.0435520  
O    -1.6720090   -3.9672380   -0.0930080  
C    -1.6636690   -1.6000380    0.0298440  
H    -2.0580440    1.3775060    0.0237800  
H     2.1293380    0.8472040   -0.1402360  
C    -2.6307890    5.0071460    0.0938090  
C    -1.7692360    6.0473510    0.0710200  
C    -0.4450140    5.4436530   -0.0138280  
C    -0.7107820    3.9677760   -0.0315100  
N    -1.9857070    3.7285790    0.0287800  
C     0.3776150    2.9857900   -0.1086520  
C     1.6409580    3.5208530   -0.1741020  
O     2.7631390    2.7848790   -0.2548280  
C     1.9207380    4.9909730   -0.1561270  
O     3.1016410    5.3400130   -0.2099940  
C     0.8038520    5.9423920   -0.0735370  
H    -1.9906050    7.1047480    0.1080910  
H     3.5030590    3.4364140   -0.2713750  
H     1.0470450    7.0004430   -0.0644470  
H    -3.7117830    5.0308750    0.1548100  
C    -4.8974270    0.2306920   -2.4451470  
C    -3.6964210   -0.1680820   -1.9521860  
C    -3.9502320   -0.8873810   -0.7213180  
C    -5.4219990   -0.8821080   -0.5416420  
N    -5.9339000   -0.1676160   -1.6079200  
C    -6.0895110   -1.4974990    0.4692170  
C    -5.3126050   -2.2166930    1.4669650  
O    -5.8147020   -2.8300410    2.3964340  
C    -3.7468200   -2.1860040    1.3460570  
O    -3.0846090   -2.6445440    2.2582660  
C    -3.1226370   -1.5322390    0.1615260  
H    -2.7305040    0.0190600   -2.3952510  
H    -7.1716270   -1.4981850    0.5571980  
H    -5.1179900    0.7856610   -3.3473820  
H    -6.9163430   -0.0645540   -1.8078190  
