64


C    -3.2930500    1.3420040   -1.3851850  
C    -3.1282410    0.1993820   -0.6204560  
C    -4.4318280   -0.0817160   -0.0427840  
C    -5.3150590    0.9335690   -0.4859010  
N    -4.5916160    1.7837400   -1.3037630  
C    -6.6609230    1.0008920   -0.1048900  
C    -7.1301430    0.0139440    0.7465420  
O    -8.4353840    0.0161760    1.1452590  
C    -6.2609360   -1.0101570    1.2062740  
O    -6.8708250   -1.9244130    2.0468200  
C    -4.9331810   -1.0664060    0.8309490  
H    -4.9792080    2.5516590   -1.8291130  
H    -7.3335990    1.7785950   -0.4521740  
H    -8.5619760   -0.7736020    1.6996210  
H    -6.2804610   -2.6821810    2.1739330  
H    -4.3006210   -1.8790230    1.1715490  
H    -2.5805150    1.8383820   -2.0280050  
C     1.0796760    1.6130990   -0.1452240  
C    -0.2917440    1.5136570   -0.2413630  
C    -0.6429530    0.1203960   -0.3451910  
C     0.6353550   -0.6186110   -0.2967400  
N     1.6278960    0.3322210   -0.2089330  
C     0.7869230   -1.9800710   -0.3190510  
C    -0.4553060   -2.7569980   -0.3515270  
O    -0.4970640   -3.9719240   -0.2448150  
C    -1.8306350   -1.9951950   -0.4819100  
O    -2.8347380   -2.6813220   -0.5993460  
C    -1.8624970   -0.5160580   -0.4598850  
H    -0.9985910    2.3203950   -0.1253160  
H     2.6086920    0.1383180   -0.0657410  
C     3.9871590   -1.8312340    2.7501830  
C     4.8629500   -2.6959960    2.1471850  
C     4.2572390   -3.1220850    0.9165280  
C     3.0000190   -2.4697520    0.8242470  
N     2.8657490   -1.6855260    1.9539020  
C     2.1008260   -2.6552180   -0.2492460  
C     2.5179760   -3.5372060   -1.2484150  
O     1.7310100   -3.7387340   -2.3409560  
C     3.7700660   -4.2002950   -1.1690660  
O     4.0288520   -5.0285890   -2.2479710  
C     4.6388160   -4.0049120   -0.1125910  
H     5.8256920   -2.9998460    2.5352690  
H     2.0450920   -1.1510170    2.1916910  
H     2.1411530   -4.4498030   -2.8630160  
H     4.8129430   -5.5643950   -2.0586220  
H     5.5946750   -4.5243810   -0.0811480  
H     4.0634710   -1.2995760    3.6882790  
C     0.3728090    5.8029040   -1.3488440  
C     1.5353650    6.3333040   -0.8579830  
C     2.2767640    5.2514260   -0.2744520  
C     1.4956520    4.0773970   -0.4312120  
N     0.3359050    4.4467220   -1.0761790  
C     1.9211880    2.7953520   -0.0003170  
C     3.2024310    2.7479370    0.5717200  
O     3.7174500    1.5556350    1.0043560  
C     3.9852670    3.9144390    0.7425970  
O     5.2048040    3.6726590    1.3463700  
C     3.5398460    5.1585700    0.3394950  
H     1.8339050    7.3712670   -0.9064800  
H    -0.3326180    3.7912020   -1.4498650  
H     4.6149660    1.7279500    1.3408130  
H     5.7180590    4.4928420    1.3878350  
H     4.1603290    6.0406930    0.4822890  
H    -0.4487550    6.2783390   -1.8656260  
