62


C     3.3626720    1.7454640   -0.8373720  
C     2.0818790    1.2611270   -0.8602390  
C     2.1480020   -0.1297380   -0.5090060  
C     3.5135230   -0.4306730   -0.2741370  
N     4.2468970    0.7310260   -0.4854030  
C     3.9534020   -1.6936340    0.1348220  
C     2.9919850   -2.6765010    0.2990900  
O     3.3647010   -3.9319820    0.6830410  
C     1.6201900   -2.4049780    0.0572120  
O     0.8063030   -3.5071990    0.2372520  
C     1.1700970   -1.1471510   -0.3421200  
H     1.1960200    1.8335130   -1.0971410  
H     4.9980290   -1.9206830    0.3110880  
H     2.5572190   -4.4731970    0.7195580  
H    -0.1047360   -3.2904590   -0.0130210  
H     3.7451970    2.7299020   -1.0677260  
C    -0.7747650   -0.3006060   -1.7327210  
C    -0.2564960   -0.8866200   -0.6123810  
C    -1.3965870   -1.1491220    0.2649030  
C    -2.6037790   -0.6855840   -0.4529430  
N    -2.1587410   -0.2092170   -1.6675140  
C    -3.8918620   -0.7112380    0.0337680  
C    -4.0417440   -1.2443160    1.4055670  
O    -5.1168120   -1.3213370    1.9780060  
C    -2.7673450   -1.7510380    2.1809460  
O    -2.9181840   -2.1778890    3.3144870  
C    -1.4692930   -1.6737040    1.5215810  
H    -0.5958150   -2.0081680    2.0711170  
H    -0.2494210    0.0518420   -2.6102130  
H    -2.7392030    0.3179520   -2.3037650  
C    -5.2025960   -0.3892410   -2.1106860  
C    -5.0396390   -0.2791540   -0.7528410  
C    -6.2707870    0.4293350   -0.3142650  
C    -7.0259530    0.6594780   -1.5774000  
N    -6.3970040    0.1671660   -2.6132080  
C    -8.2924150    1.3402170   -1.5996770  
C    -8.7890810    1.7933280   -0.4236720  
O    -9.9518560    2.4511350   -0.2949810  
C    -8.0475130    1.5909420    0.8662470  
O    -8.5517450    2.0392800    1.8938070  
C    -6.7539980    0.8688410    0.8630840  
H    -8.8125240    1.4810360   -2.5406380  
H   -10.0369080    2.6455570    0.6644470  
H    -6.2773080    0.7066300    1.8215530  
H    -4.5447880   -0.8975900   -2.8069270  
C     6.3737560    3.1886450    2.4115590  
C     7.6457340    2.8885100    1.9982710  
C     7.5290960    1.9710490    0.8992900  
C     6.1424080    1.7566470    0.6942070  
N     5.4609430    2.5116170    1.6223290  
C     5.6454610    0.9006160   -0.3053800  
C     6.5747790    0.2459790   -1.1109860  
O     6.1519490   -0.5880080   -2.1008330  
C     7.9655390    0.4439740   -0.9024090  
O     8.7558940   -0.2789110   -1.7765240  
C     8.4495370    1.2920400    0.0757050  
H     8.5604470    3.2747590    2.4263470  
H     4.4585820    2.5194820    1.7328170  
H     6.9483980   -0.9504560   -2.5268710  
H     9.6897890   -0.1015010   -1.5914530  
H     9.5215400    1.4236280    0.2075200  
H     6.0335810    3.8355300    3.2077490  
