60


C    -6.9595960   -1.3617030    3.0509060  
C    -8.1363060   -1.0398920    2.4306460  
C    -7.8022860   -0.4765430    1.1514560  
C    -6.3882440   -0.4903930    1.0482050  
N    -5.8977070   -1.0624100    2.2099010  
C    -5.6855530    0.0211950   -0.0656500  
C    -6.4688460    0.5547300   -1.0934870  
O    -5.8692420    1.0224120   -2.2201820  
C    -7.8847860    0.5703700   -1.0055570  
O    -8.5002030    1.1159360   -2.1160920  
C    -8.5558100    0.0616790    0.0902840  
H    -9.1287320   -1.1864120    2.8344130  
H    -4.9315890   -1.0206130    2.4976060  
H    -6.5617600    1.4284700   -2.7703910  
H    -9.4446130    1.2358760   -1.9377710  
H    -9.6429320    0.0834420    0.1297990  
H    -6.7789050   -1.7981390    4.0231240  
C    -2.8514900   -3.2974680    0.1921940  
C    -1.6762790   -2.6282160    0.0304300  
C    -1.9905130   -1.2294870   -0.1486000  
C    -3.4623560   -1.1342460   -0.0619450  
N    -3.9227920   -2.4244180    0.1315630  
C    -4.2123760    0.0067040   -0.1589880  
C    -3.4503560    1.2564010   -0.3056330  
O    -3.9594950    2.3619730   -0.2715770  
C    -1.8833300    1.1832530   -0.4626280  
O    -1.2979430    2.2344000   -0.6677140  
C    -1.1908520   -0.1224740   -0.3666040  
H    -0.6906740   -3.0655140    0.0562900  
H    -3.0218620   -4.3534430    0.3551210  
H    -4.8980360   -2.6670180    0.2194960  
C     0.9229250   -1.2239000   -1.2081900  
C     0.2462660   -0.2157570   -0.5758580  
C     1.3256380    0.7017840   -0.1319250  
C     2.5816850    0.0421840   -0.5816760  
N     2.3239880   -1.0712150   -1.2174900  
C     3.9091380    0.5988070   -0.3293150  
C     3.9242220    1.7946810    0.3364490  
O     5.0463680    2.4910520    0.6046920  
C     2.6848990    2.4651560    0.8173100  
O     2.8061630    3.5352940    1.4177830  
C     1.3628280    1.8608420    0.5479440  
H     4.7373560    3.2917640    1.0863730  
H     0.4900270    2.4087860    0.8796480  
H     0.4938630   -2.0781950   -1.7165590  
C     5.1610120   -0.8795900   -1.9251280  
C     5.1022650   -0.1128650   -0.7893830  
C     6.4199050   -0.2226140   -0.1564370  
C     7.2354900   -1.0901900   -1.0451230  
N     6.4114260   -1.4371550   -2.0982700  
C     8.5221940   -1.4550260   -0.8179310  
C     9.1703730   -0.9858280    0.4014630  
O    10.3245050   -1.2596370    0.6944390  
C     8.3216650   -0.0986970    1.3801580  
O     8.8329850    0.2887120    2.4194070  
C     6.9405700    0.2341830    1.0127420  
H     9.0877570   -2.0921130   -1.4912260  
H     6.3858740    0.8648610    1.6946940  
H     4.3699530   -1.0801270   -2.6312640  
H     6.6722020   -2.0488470   -2.8560920  
