60


C    -2.5618200   -2.9644650    1.9808310  
C    -3.5147340   -3.8343960    1.5206700  
C    -4.3975240   -3.0747400    0.6816570  
C    -3.9325580   -1.7319760    0.6986620  
N    -2.8265910   -1.6872770    1.5235940  
C    -4.5801160   -0.6816500    0.0007580  
C    -5.6480180   -1.0757870   -0.8233270  
O    -6.2542470   -0.1721320   -1.6427740  
C    -6.1109530   -2.4151300   -0.8500370  
O    -7.1939760   -2.6103570   -1.6929780  
C    -5.5237890   -3.4078530   -0.0931320  
H    -3.5857870   -4.8894490    1.7482540  
H    -2.1112100   -0.9781850    1.3796410  
H    -6.9742430   -0.6432990   -2.0974060  
H    -7.4030890   -3.5549250   -1.7308360  
H    -5.9081490   -4.4258650   -0.1194490  
H    -1.7052720   -3.1457470    2.6156450  
C    -0.6811360    1.5089460   -0.0046490  
C    -1.1231230    2.8020020   -0.0819050  
C    -2.5622180    2.7319660    0.0010940  
C    -2.8715240    1.2652260    0.0701730  
N    -1.7729800    0.5697570    0.0923380  
C    -4.2364140    0.7537390    0.1228780  
C    -5.1964460    1.7160100    0.3085330  
O    -6.4898220    1.4481820    0.5208900  
C    -4.9099170    3.1911990    0.2853960  
O    -5.8639050    3.9579290    0.4409040  
C    -3.5347360    3.6630990    0.0966720  
H    -0.5175970    3.6882310   -0.1791630  
H    -6.9224560    2.3294700    0.5920080  
H    -3.3652140    4.7351300    0.0792030  
C     3.0147420    3.5398540   -1.1615450  
C     3.9424720    2.5613400   -1.0224780  
C     3.2057110    1.4079760   -0.5236570  
C     1.7915540    1.8849600   -0.4356060  
N     1.6999360    3.1325600   -0.8058140  
C     0.6853110    1.0199450   -0.0188310  
C     1.0541610   -0.2548870    0.3456810  
O     0.2276260   -1.1808540    0.8395870  
C     2.4797140   -0.7377360    0.3123950  
O     2.6961420   -1.8485190    0.7882940  
C     3.5725490    0.1398260   -0.2022090  
H     4.9931580    2.5997510   -1.2725800  
H     0.7996570   -1.9631730    1.0225920  
H     3.1616600    4.5526930   -1.5176250  
C     7.4022030    1.5442840    1.5179640  
C     8.2061450    0.5263260    1.1229380  
C     7.3884150   -0.3965770    0.3623860  
C     6.0199600    0.1800150    0.3456130  
N     6.0969770    1.3486870    1.0675820  
C     4.9317670   -0.4090380   -0.2451630  
C     5.1717950   -1.6705760   -0.9793200  
O     4.3136170   -2.2064670   -1.6575750  
C     6.6033190   -2.3104360   -0.9314970  
O     6.7824960   -3.3885910   -1.4727130  
C     7.6691050   -1.5805520   -0.2428930  
H     9.2587970    0.4158310    1.3379760  
H     8.6584710   -2.0273880   -0.2271590  
H     7.6389270    2.4230580    2.1028560  
H     5.3341370    1.9987560    1.1847580  
