64


C    -5.3391170   -1.1170780   -1.9656690  
C    -4.9606260   -0.5532910   -0.7652850  
C    -5.9806030    0.4279500   -0.4456780  
C    -6.9384210    0.3985100   -1.4924970  
N    -6.5171490   -0.5490330   -2.4032240  
C    -8.0612290    1.2353370   -1.5166910  
C    -8.2206300    2.1233310   -0.4646430  
O    -9.2995620    2.9580670   -0.4356150  
C    -7.2664740    2.1769520    0.5867770  
O    -7.5584460    3.1185370    1.5553720  
C    -6.1580430    1.3515760    0.6077800  
H    -7.0073590   -0.8055830   -3.2458140  
H    -8.7949860    1.2138130   -2.3160670  
H    -9.2263620    3.4942100    0.3728140  
H    -6.8828640    3.0882260    2.2489780  
H    -5.4377010    1.4159170    1.4195570  
H    -4.8586330   -1.9024580   -2.5315190  
C    -0.6222280   -0.8821950   -1.8749320  
C    -1.9741790   -0.6813730   -1.8920420  
C    -2.4669160   -0.9651780   -0.5722940  
C    -1.3504070   -1.3383350    0.2167840  
N    -0.2193720   -1.2859280   -0.5983350  
C    -1.4504620   -1.6295320    1.5814610  
C    -2.7128770   -1.5601010    2.1477530  
O    -2.8810790   -1.8515790    3.4709380  
C    -3.8450660   -1.2026750    1.3722180  
O    -5.0303360   -1.2080130    2.0839410  
C    -3.7574160   -0.8996430    0.0148320  
H    -2.5590150   -0.3756630   -2.7479170  
H    -0.6042080   -1.9322160    2.1857090  
H    -3.8374000   -1.8187230    3.6475210  
H    -5.7691920   -1.1014170    1.4612670  
H     0.1055150   -0.8335820   -2.6730780  
C     3.1632670    1.3683690   -0.9174540  
C     4.1587750    0.5500530   -0.4660520  
C     3.5160780   -0.7159130   -0.1110200  
C     2.0775250   -0.5467080   -0.4044650  
N     1.9264110    0.7326820   -0.8905520  
C     1.1203530   -1.5036390   -0.2145890  
C     1.5538760   -2.8005850    0.3278750  
O     0.7972530   -3.7403240    0.5010960  
C     3.0778230   -2.9700150    0.6986930  
O     3.4310950   -4.0198010    1.2116640  
C     3.9993540   -1.8680930    0.4217290  
H     5.0498140   -2.0132540    0.6448680  
H     3.2402300    2.3818850   -1.2894470  
H     1.0462080    1.1239490   -1.1909900  
C     6.0899500    3.9236840    1.6199000  
C     7.3883010    3.6266700    1.2995320  
C     7.3648430    2.4310410    0.5040970  
C     6.0052120    2.0501740    0.3686760  
N     5.2489390    2.9869950    1.0446910  
C     5.5844290    0.9007150   -0.3345780  
C     6.5982040    0.1291840   -0.9058410  
O     6.2774240   -0.9914520   -1.6183040  
C     7.9628760    0.4964100   -0.7796340  
O     8.8280810   -0.3764390   -1.4139410  
C     8.3567210    1.6295630   -0.0943820  
H     8.2613260    4.1932640    1.5930900  
H     4.2609620    2.8972330    1.2246160  
H     7.1135090   -1.3851780   -1.9235860  
H     9.7408290   -0.0808180   -1.2822130  
H     9.4107370    1.8880670   -0.0148920  
H     5.6839940    4.7363640    2.2056820  
