66


C     4.0206940    0.6612450   -0.0401860  
C     2.7509790    0.1544240   -0.1961080  
C     1.8645930    1.2448300   -0.4920990  
C     2.6492220    2.4217690   -0.4975270  
N     3.9535530    2.0643880   -0.1640840  
C     2.1229350    3.6900490   -0.7517510  
C     0.7600660    3.7695970   -0.9992230  
O     0.1888550    4.9779760   -1.2711610  
C    -0.0557520    2.6108890   -0.9802700  
O    -1.3808990    2.8764750   -1.2549840  
C     0.4652420    1.3352140   -0.7268450  
H     2.4727990   -0.8776930   -0.0436240  
H     4.7500510    2.5951470   -0.4952040  
H     2.7259930    4.5921030   -0.7581860  
H    -0.7584280    4.8126290   -1.4237440  
H    -1.8772930    2.0401860   -1.3311150  
C     5.7726660   -3.2943410   -1.2459890  
C     4.9587660   -2.1988780   -1.1168650  
C     5.6072760   -1.2910680   -0.2125110  
C     6.8316590   -1.8980400    0.1715710  
N     6.9020810   -3.1190260   -0.4683490  
C     7.7512080   -1.2875370    1.0328120  
C     7.4234770   -0.0321200    1.5187760  
O     8.2710640    0.6091500    2.3763150  
C     6.2094670    0.5993210    1.1501120  
O     6.0334650    1.8408270    1.7358250  
C     5.2827410   -0.0012610    0.2914350  
H     4.0155840   -2.0469350   -1.6203610  
H     7.6643200   -3.7730960   -0.3884220  
H     8.6851960   -1.7538990    1.3291640  
H     7.8319270    1.4385200    2.6348700  
H     5.1044330    2.1127050    1.6225200  
H     5.6444400   -4.1932170   -1.8324960  
C    -0.3909030    0.1492070   -0.7537480  
C    -0.1607850   -1.1189710   -1.2341860  
C    -1.3604720   -1.8894900   -1.0574490  
C    -2.3157740   -1.0339580   -0.4632730  
N    -1.7346530    0.2258730   -0.3294780  
C    -3.6128070   -1.4364840   -0.0979090  
C    -3.9358380   -2.7694850   -0.3670600  
O    -5.1777520   -3.2405770   -0.0716630  
C    -2.9943700   -3.6392710   -0.9768990  
O    -3.4792990   -4.9166220   -1.1896240  
C    -1.7234530   -3.2217680   -1.3296610  
H     0.7499430   -1.4468390   -1.7156810  
H    -2.0144940    0.8393520    0.4280050  
H    -5.1874560   -4.1858570   -0.3016510  
H    -2.7690740   -5.4781760   -1.5333860  
H    -1.0242640   -3.9132640   -1.7954110  
C    -5.3642990    2.2488130   -1.7576200  
C    -6.1068590    2.6207690   -0.6687110  
C    -5.8969070    1.6268470    0.3480310  
C    -5.0014000    0.6683720   -0.1893860  
N    -4.6721720    1.0833920   -1.4667820  
C    -4.5722640   -0.4796750    0.5090530  
C    -5.0813160   -0.6383640    1.7983380  
O    -4.6970070   -1.7040840    2.5552590  
C    -5.9772370    0.3138320    2.3530420  
O    -6.3765830    0.0098770    3.6429590  
C    -6.3849530    1.4347730    1.6553770  
H    -6.7283050    3.5027840   -0.5948640  
H    -4.1822910    0.5095060   -2.1364560  
H    -5.1785620   -1.6427400    3.3983110  
H    -7.0108670    0.6749440    3.9481390  
H    -7.0708950    2.1474650    2.1093220  
H    -5.2528080    2.7243780   -2.7219030  
