62


C     5.5791300   -1.6281870    2.2250420  
C     4.9191830   -0.7453180    1.4032520  
C     5.9130690    0.0807850    0.7673170  
C     7.1708240   -0.3581500    1.2507680  
N     6.9356900   -1.3881430    2.1419610  
C     8.3775590    0.2259930    0.8433710  
C     8.3070810    1.2697460   -0.0653400  
O     9.4518520    1.8721520   -0.5004370  
C     7.0513550    1.7239790   -0.5537560  
O     7.1491910    2.7743660   -1.4462790  
C     5.8622790    1.1483400   -0.1504000  
H     7.6462930   -1.9016080    2.6386590  
H     9.3452100   -0.1062530    1.2054450  
H     9.1887750    2.5603350   -1.1358180  
H     6.2691230    2.9870870   -1.7909850  
H     4.9102740    1.5068510   -0.5340490  
H     5.1813750   -2.4081640    2.8577940  
C     2.6176390   -0.3705630    2.2781480  
C     1.3421590   -0.3523870    1.7853650  
C     1.4239390   -0.6183590    0.3778170  
C     2.7989310   -0.8094380    0.0802900  
N     3.5199480   -0.6429400    1.2564680  
C     3.2689630   -1.1518060   -1.1923160  
C     2.3208940   -1.3164190   -2.1887260  
O     2.7035580   -1.6588630   -3.4519070  
C     0.9378050   -1.1440400   -1.9250250  
O     0.1327980   -1.3174770   -3.0341060  
C     0.4609770   -0.7689150   -0.6609950  
H     0.4503920   -0.1431150    2.3559440  
H     4.3207280   -1.3058730   -1.4051010  
H     1.8733480   -1.7375470   -3.9593180  
H    -0.6015730   -1.9169760   -2.7833120  
H     2.9879760   -0.1905770    3.2772830  
C    -1.7256330    2.6015490    1.1747140  
C    -3.0101920    2.1917800    1.0985620  
C    -2.9575320    0.8881260    0.4430210  
C    -1.4960590    0.6556260    0.2102590  
N    -0.7905000    1.6603220    0.6340970  
C    -0.9824800   -0.5584550   -0.4304500  
C    -1.9497160   -1.4247040   -0.8437030  
O    -1.6744130   -2.5858220   -1.5078860  
C    -3.4064930   -1.2258470   -0.6372330  
O    -4.1656270   -2.0838980   -1.0928910  
C    -3.8991390   -0.0153640    0.0842170  
H    -3.9018980    2.7157190    1.4074880  
H    -2.5588220   -2.9893850   -1.6717290  
H    -1.3399900    3.5280110    1.5825260  
C    -6.7645200    3.0845790   -1.1973370  
C    -7.9373120    2.6026170   -0.7283160  
C    -7.5929110    1.3556460   -0.0521330  
C    -6.1062200    1.2469170   -0.2245880  
N    -5.6330300    2.2560270   -0.8923670  
C    -5.3532920    0.1186190    0.3016990  
C    -6.0702630   -0.8240860    0.9760430  
O    -5.5217540   -1.8946440    1.5602500  
C    -7.5635660   -0.7319220    1.1642980  
O    -8.1084610   -1.6379930    1.7904990  
C    -8.2980240    0.4152880    0.6050920  
H    -8.9258380    3.0294400   -0.8245780  
H    -6.2723940   -2.3961700    1.9508400  
H    -9.3729170    0.4406220    0.7557770  
H    -6.5925900    3.9944100   -1.7596660  
