60


C    -0.0116440   -2.7382030    1.4568410  
C    -0.1012570   -3.8423790    0.6494320  
C    -1.3205860   -3.7197860   -0.0983510  
C    -1.9314430   -2.5020310    0.2959010  
N    -1.1127440   -1.9263160    1.2440600  
C    -3.1838960   -2.0684070   -0.2044700  
C    -3.7955410   -2.9046830   -1.1459600  
O    -4.9595300   -2.5199990   -1.7300990  
C    -3.1873270   -4.1192920   -1.5549130  
O    -3.9217810   -4.8092800   -2.4984130  
C    -1.9716700   -4.5338970   -1.0466860  
H     0.6083920   -4.6567960    0.6023030  
H    -1.2992180   -1.0557780    1.7174910  
H    -5.2446130   -3.2426400   -2.3167230  
H    -3.4738130   -5.6386830   -2.7209370  
H    -1.5278770   -5.4710600   -1.3762820  
H     0.7399760   -2.4595570    2.1820770  
C    -1.8391560    2.1958050    0.0526740  
C    -1.8948190    0.8467160   -0.2226720  
C    -3.1868100    0.4022760    0.2342470  
C    -3.8264040    1.6373850    0.7667260  
N    -3.0466600    2.6761040    0.6623360  
C    -5.1585360    1.6207480    1.3129140  
C    -5.8156750    0.4381540    1.3185820  
O    -7.0606850    0.2747510    1.7900880  
C    -5.1838070   -0.8420120    0.8253590  
O    -5.8264360   -1.8739070    0.9902550  
C    -3.8110460   -0.8137600    0.2345080  
H    -1.1667990    0.2531620   -0.7541890  
H    -5.6054360    2.5334400    1.6906060  
H    -7.2449570   -0.6874990    1.7084500  
C     2.6056400    1.6761380   -0.1302380  
C     1.2515640    1.4299630    0.0244030  
C     0.5940060    2.6763430   -0.2095840  
C     1.7196690    3.6284160   -0.4760880  
N     2.8827240    3.0427050   -0.4294320  
C     1.4878470    5.0227390   -0.7290650  
C     0.2062410    5.4568660   -0.7166520  
O    -0.1547180    6.7263160   -0.9417940  
C    -0.9669240    4.5299200   -0.4840290  
O    -2.0798830    5.0307270   -0.5980270  
C    -0.7250030    3.0837540   -0.1942480  
H     0.7931470    0.4904560    0.2928450  
H     2.3229370    5.6872530   -0.9201550  
H    -1.1385110    6.7249550   -0.9098400  
C     3.6695650    0.7186650   -0.0153200  
C     3.5512040   -0.6451420    0.1463220  
C     4.8980070   -1.1498340    0.2053230  
C     5.7542350    0.0729210    0.0597550  
N     5.0423890    1.1511850   -0.0706620  
C     7.1933170   -0.0137890    0.0720790  
C     7.7495380   -1.2395890    0.2147950  
O     9.0700340   -1.4707180    0.2423950  
C     6.9122500   -2.4887730    0.3591660  
O     7.5104920   -3.5581780    0.4837200  
C     5.4486700   -2.3802470    0.3466890  
H     2.6437860   -1.2323100    0.1955290  
H     7.7914430    0.8843550   -0.0331680  
H     9.1601790   -2.4435480    0.3549520  
H     4.8802080   -3.2991100    0.4532810  
