64


C     1.5309470    0.4966200   -1.3469120  
C     2.8414020    0.4618190   -0.9367300  
C     2.9696450    1.3620380    0.1795330  
C     1.6856480    1.9160420    0.4005580  
N     0.8186220    1.3852870   -0.5506480  
C     1.4293050    2.8289630    1.4306290  
C     2.4931080    3.1921070    2.2402640  
O     2.3003250    4.0777000    3.2607810  
C     3.7907480    2.6533340    2.0221750  
O     4.7436160    3.1193920    2.9073070  
C     4.0410470    1.7496730    1.0079350  
H     0.4484970    3.2574200    1.5998470  
H     3.1601150    4.2028430    3.6981900  
H     5.5941330    2.6962420    2.7175680  
H     5.0375250    1.3423000    0.8563660  
H     1.0474560   -0.0133310   -2.1678740  
C    -2.3883870   -1.4451930    0.1319090  
C    -3.4605710   -0.6059270   -0.1300060  
C    -2.8848740    0.6806330   -0.4772490  
C    -1.4803210    0.5376030   -0.3920140  
N    -1.2057990   -0.7624170   -0.0259760  
C    -0.5831330    1.5942320   -0.6342760  
C    -1.1278220    2.8303690   -0.9694060  
O    -0.3160280    3.8869420   -1.2334540  
C    -2.5384860    2.9878440   -1.0408300  
O    -2.9258640    4.2686800   -1.3816690  
C    -3.4124070    1.9459980   -0.8040950  
H    -0.2788410   -1.1493230    0.0717430  
H    -0.8926640    4.6369430   -1.4646860  
H    -3.8732370    4.2759860   -1.5855080  
H    -4.4822370    2.0922100   -0.9032540  
H    -2.3847510   -2.5028190    0.3557420  
C     4.2584120   -0.1837300   -2.8803920  
C     5.2679400   -1.0688030   -3.1451280  
C     5.5448300   -1.7704660   -1.9235520  
C     4.6554250   -1.2605080   -0.9418680  
N     3.8728770   -0.2824490   -1.5470250  
C     4.6281640   -1.7403080    0.3745620  
C     5.5262090   -2.7419070    0.7097470  
O     5.5447340   -3.2438690    1.9825740  
C     6.4302790   -3.2566350   -0.2555840  
O     7.2642950   -4.2491630    0.2307950  
C     6.4480200   -2.7876580   -1.5563400  
H     5.7628680   -1.2005900   -4.0977430  
H     3.9426000   -1.3571180    1.1220380  
H     6.2319780   -3.9316150    2.0061960  
H     7.8387530   -4.5625960   -0.4830760  
H     7.1462760   -3.2028270   -2.2810690  
H     3.7720030    0.5411180   -3.5175030  
C    -5.5292640   -3.0750230    2.8351130  
C    -6.7809840   -3.0828890    2.3060170  
C    -6.7441930   -2.2874750    1.0979810  
C    -5.3483630   -1.8171460    0.9586920  
N    -4.6514930   -2.3662500    2.0247700  
C    -4.8706020   -0.9945570   -0.0283980  
C    -5.8737030   -0.5469630   -1.0188000  
O    -5.6093090    0.2100070   -1.9397410  
C    -7.3620480   -1.0618830   -0.9030740  
O    -8.1658040   -0.6774080   -1.7401380  
C    -7.7087550   -1.9467180    0.1976840  
H    -7.6463810   -3.5881170    2.7096870  
H    -8.7356550   -2.2894780    0.2759030  
H    -5.1646010   -3.5419870    3.7407930  
H    -3.7342870   -2.0436190    2.2982750  
