60


C     1.8543180    2.0204420   -0.0503870  
C     1.7616550    3.4161110   -0.0114860  
C     3.0745840    3.9318240   -0.0641060  
C     3.9656720    2.8108480   -0.1417230  
N     3.2006440    1.6785010   -0.1165960  
C     5.3553170    2.9601710   -0.2217920  
C     5.8562050    4.2511790   -0.2178370  
O     7.1926020    4.4572400   -0.2927110  
C     4.9822730    5.3844760   -0.1335690  
O     5.6548860    6.5846500   -0.1392170  
C     3.6174080    5.2409460   -0.0567010  
H     0.8411730    3.9791760    0.0580300  
H     3.5063770    0.7226270   -0.2310480  
H     6.0369570    2.1190900   -0.2866730  
H     7.3468580    5.4187550   -0.2806680  
H     5.0246420    7.3194250   -0.0945770  
H     2.9690160    6.1117690    0.0050570  
C     0.8617440    1.0060100   -0.0372270  
C    -0.5222020    1.1120840   -0.0619610  
C    -1.0199920   -0.2112220   -0.0556350  
C     0.2119420   -1.0758140   -0.0209370  
N     1.3038720   -0.3433250   -0.0052380  
C     0.1637140   -2.5141070    0.0115290  
C    -1.1030770   -3.0356060    0.1058460  
O    -1.3475800   -4.3261580    0.2539890  
C    -2.3840470   -2.2073310    0.0474320  
O    -3.4184290   -2.8720160    0.0388510  
C    -2.3035700   -0.7440560   -0.0342570  
H    -1.1000160    2.0230680   -0.0699560  
H    -2.3351430   -4.4015170    0.2265550  
C     4.0881420   -2.4582030    2.0792540  
C     4.6151310   -3.6111420    1.5919760  
C     3.6484340   -4.1674940    0.6694610  
C     2.4946260   -3.2329990    0.6792650  
N     2.8031600   -2.2371570    1.5902180  
C     1.3505150   -3.3891560   -0.0548360  
C     1.3517240   -4.5152340   -1.0205480  
O     0.4989560   -4.6488200   -1.8804030  
C     2.5212030   -5.5648440   -0.9680470  
O     2.4397330   -6.5609770   -1.6703090  
C     3.6555820   -5.2942160   -0.0923460  
H     5.5721210   -4.0425780    1.8477300  
H     4.4725040   -6.0092440   -0.0801880  
H     4.5185630   -1.7547700    2.7808320  
H     2.3866380   -1.3159150    1.4692320  
C    -3.5047010    0.0555890   -0.0910780  
C    -3.6835030    1.2705530   -0.7139090  
C    -5.0484100    1.6483870   -0.4591310  
C    -5.5861770    0.5295600    0.3816290  
N    -4.6966910   -0.3949280    0.5865130  
C    -6.9406500    0.5445830    0.8743290  
C    -7.7217000    1.5952500    0.5309960  
O    -9.0005660    1.7419630    0.9067890  
C    -7.2118590    2.7293900   -0.3299710  
O    -8.0042110    3.6401860   -0.5815910  
C    -5.8291870    2.7014960   -0.8084840  
H    -2.9781770    1.7993490   -1.3381810  
H    -7.3051230   -0.2723890    1.4869220  
H    -9.2879620    2.5919130    0.5021000  
H    -5.4951530    3.5362190   -1.4171410  
