64


C    -5.4439230    2.0701640    0.1183120  
C    -5.1020620    0.7340060   -0.0327670  
C    -6.2699950   -0.0251410    0.3855570  
C    -7.2530180    0.9129430    0.7877790  
N    -6.7193650    2.1776110    0.6058790  
C    -8.5093320    0.5469970    1.2849000  
C    -8.7850910   -0.8073760    1.3801090  
O    -9.9954820   -1.2288590    1.8461750  
C    -7.8132040   -1.7652720    0.9890000  
O    -8.2300430   -3.0751790    1.1383030  
C    -6.5738780   -1.3958180    0.5037820  
H    -7.2172040    3.0435730    0.7434110  
H    -9.2575580    1.2729220    1.5864040  
H    -9.9943400   -2.2009350    1.7999550  
H    -7.5933000   -3.6639740    0.7061780  
H    -5.8643410   -2.1498010    0.1816530  
H    -4.8745740    2.9511030   -0.1401180  
C    -0.9996430    2.2389390    0.6878730  
C    -2.3284510    1.9890320    0.7495830  
C    -2.6191790    0.9143810   -0.1784660  
C    -1.3236540    0.5482720   -0.7890210  
N    -0.3679740    1.3857030   -0.2314590  
C    -1.1469890   -0.4323020   -1.7241880  
C    -2.3042390   -1.2029480   -2.1217620  
O    -2.2697850   -2.1215780   -2.9304760  
C    -3.6947220   -0.8577250   -1.4635780  
O    -4.6487030   -1.5514010   -1.7731470  
C    -3.7979160    0.2850160   -0.5136510  
H    -3.0375020    2.4789630    1.3986320  
H    -0.1954080   -0.6358260   -2.2019240  
H    -0.4002570    2.9569320    1.2281750  
C     2.5751310   -1.8594700    0.0890050  
C     3.6716570   -1.1145270   -0.2731470  
C     3.2135380    0.2246200   -0.5438850  
C     1.8146640    0.2184510   -0.3203620  
N     1.4547670   -1.0534890    0.0723770  
C     1.0271240    1.3750120   -0.4895970  
C     1.6810000    2.5419210   -0.8840690  
O     0.9692780    3.6928680   -1.0495190  
C     3.0839460    2.5494980   -1.0960280  
O     3.5699820    3.7838600   -1.4759930  
C     3.8545890    1.4144930   -0.9362280  
H     0.5028820   -1.3793710    0.1519530  
H     1.6008960    4.3789510   -1.3295990  
H     4.5275410    3.7293470   -1.6129100  
H     4.9290170    1.4407380   -1.0963020  
H     2.5118800   -2.9017190    0.3653350  
C     5.4027060   -2.6162510   -1.2439470  
C     6.7470870   -2.8285440   -1.1076610  
C     7.2251490   -1.8949640   -0.1268920  
C     6.1062880   -1.1360290    0.3040570  
N     4.9924280   -1.5908000   -0.3959140  
C     6.2016340   -0.1396620    1.2846810  
C     7.4537910    0.1071070    1.8264510  
O     7.6043230    1.0728010    2.7829290  
C     8.5865650   -0.6340190    1.3995530  
O     9.7640440   -0.2694000    2.0292440  
C     8.4863580   -1.6247330    0.4401370  
H     7.3317220   -3.5604940   -1.6482300  
H     5.3435100    0.4258970    1.6300350  
H     8.5403280    1.0679410    3.0471650  
H    10.4787140   -0.8533670    1.7357590  
H     9.3680470   -2.1846720    0.1334280  
H     4.6764700   -3.0907100   -1.8884930  
