62


C     2.1489880   -1.7414130   -1.5976950  
C     1.9968850   -3.0831640   -1.3873240  
C     2.9507040   -3.4688530   -0.3852690  
C     3.6610970   -2.2974780   -0.0158770  
N     3.1579410   -1.2408790   -0.7733710  
C     4.6592680   -2.2988320    0.9722110  
C     4.9568840   -3.5119850    1.5790020  
O     5.9166250   -3.5663910    2.5441620  
C     4.2654380   -4.6956400    1.2097760  
O     4.6775950   -5.8175340    1.8995630  
C     3.2701320   -4.6843910    0.2490130  
H     1.2917700   -3.7278350   -1.8940160  
H     5.1627870   -1.3977760    1.3063110  
H     5.9599440   -4.4859430    2.8592730  
H     4.1334680   -6.5771690    1.6441370  
H     2.7439900   -5.6016110   -0.0078440  
H     1.6493320   -1.0762620   -2.2869420  
C     1.0595490    2.6473380   -0.1530650  
C     1.3813560    1.2834270   -0.2578030  
C     2.7521520    1.1866100   -0.5682340  
C     3.2653220    2.5200860   -0.6379810  
N     2.2254130    3.3696380   -0.3885780  
C     4.6121190    2.7994840   -0.8914690  
C     5.4540560    1.7155240   -1.0833030  
O     6.7686710    1.9164330   -1.3323130  
C     4.9675370    0.3692280   -1.0455790  
O     5.9317350   -0.5681320   -1.3132580  
C     3.6345390    0.0936860   -0.7901000  
H     0.7108400    0.4604340   -0.0710210  
H     2.2537010    4.3771470   -0.2982220  
H     5.0103560    3.8071270   -0.9304110  
H     7.1872010    1.0399110   -1.4168950  
H     5.6360470   -1.4523570   -1.0316650  
C    -3.2448490    1.3029550    0.1701690  
C    -1.8897640    1.3199730   -0.1233660  
C    -1.4243480    2.6310150    0.2049400  
C    -2.6405040    3.3260030    0.6842790  
N    -3.6947400    2.5577040    0.6762210  
C    -2.6269340    4.7087210    1.0943890  
C    -1.4620500    5.3854770    0.9974490  
O    -1.3216060    6.6882770    1.3121870  
C    -0.2110860    4.7323720    0.5040150  
O     0.7829990    5.4649040    0.4073130  
C    -0.1927290    3.2718060    0.1633150  
H    -1.3231040    0.5137970   -0.5636570  
H    -3.5401330    5.1776320    1.4434310  
H    -0.3842720    6.9061410    1.1254940  
C    -4.1551790    0.2097940    0.0044590  
C    -3.8712880   -1.0658320   -0.4417880  
C    -5.1173400   -1.7747940   -0.4282710  
C    -6.1084300   -0.7620330    0.0694780  
N    -5.5505210    0.3836050    0.3199700  
C    -7.5028330   -1.0930170    0.2269820  
C    -7.8890620   -2.3511990   -0.0878010  
O    -9.1480570   -2.8029200    0.0082440  
C    -6.9128160   -3.3927500   -0.5900850  
O    -7.3719130   -4.5088780   -0.8473030  
C    -5.5037780   -3.0387070   -0.7447690  
H    -2.9098000   -1.4638260   -0.7353780  
H    -8.2006710   -0.3455330    0.5873760  
H    -9.1027320   -3.7405750   -0.2884500  
H    -4.8319790   -3.8103150   -1.1081630  
