62


C     4.3608050   -0.8170260   -1.9962750  
C     4.8583890   -0.2930330   -0.8208790  
C     5.9606890   -1.1527100   -0.4329000  
C     6.0706760   -2.1667190   -1.4190990  
N     5.0809640   -1.9360810   -2.3534660  
C     7.0272300   -3.1874750   -1.3538980  
C     7.8899140   -3.1876250   -0.2693380  
O     8.8424860   -4.1557310   -0.1593410  
C     7.7879440   -2.1880630    0.7365270  
O     8.7089220   -2.3308350    1.7546450  
C     6.8418250   -1.1826100    0.6710030  
H     4.9259630   -2.4850560   -3.1848010  
H     7.1122830   -3.9644030   -2.1067300  
H     9.3331550   -3.9880960    0.6638770  
H     8.5819320   -1.6291750    2.4104270  
H     6.7762770   -0.4359820    1.4586730  
H     3.5566160   -0.4536740   -2.6201840  
C     0.7559880    0.9869840    0.4903000  
C     1.8184190    0.2872600   -0.0225020  
C     2.9858670    1.0962100    0.1782860  
C     2.5626530    2.2883980    0.8217170  
N     1.1925920    2.2067280    0.9902900  
C     3.4458820    3.3085270    1.1931570  
C     4.7860630    3.1119060    0.9020060  
O     5.6978520    4.0693420    1.2292300  
C     5.2294530    1.9297180    0.2509590  
O     6.5880570    1.9115570    0.0120570  
C     4.3609020    0.9076790   -0.1245230  
H     1.7665030   -0.6805790   -0.4995910  
H     0.6257540    2.8457540    1.5268960  
H     3.1265130    4.2219760    1.6833880  
H     6.5621390    3.7649290    0.9007160  
H     6.8052110    1.1297770   -0.5241410  
C    -1.0827780   -0.4976670    1.2466430  
C    -2.4321220   -0.6256780    1.0946860  
C    -2.8865380    0.4719900    0.2861050  
C    -1.6778550    1.2659500   -0.0273140  
N    -0.5986900    0.6205310    0.5816210  
C    -1.6513820    2.3943910   -0.7803740  
C    -2.9196640    2.9031870   -1.2793300  
O    -3.0177310    3.8913540   -1.9877880  
C    -4.2349410    2.1511780   -0.8671580  
O    -5.2948060    2.7003200   -1.1416880  
C    -4.1413880    0.8462710   -0.1717380  
H    -3.0418220   -1.3848290    1.5565270  
H    -0.7389290    2.9249540   -1.0290110  
H    -0.3889500   -1.1152490    1.8009810  
C    -5.3339750    0.0367090    0.0066020  
C    -5.4548650   -1.3167820    0.2602110  
C    -6.8519060   -1.6409910    0.2949800  
C    -7.5750520   -0.3707390    0.0358600  
N    -6.6080580    0.5968690   -0.1123010  
C    -8.9270570   -0.2613390   -0.0271770  
C    -9.7322330   -1.4616220    0.1756720  
O   -10.9538340   -1.4601110    0.1382850  
C    -8.9862610   -2.8184310    0.4566560  
O    -9.6466220   -3.8326300    0.6312210  
C    -7.5248560   -2.8102260    0.4973170  
H    -4.6484600   -2.0278600    0.3415550  
H    -9.4400840    0.6755410   -0.2203900  
H    -7.0201270   -3.7526020    0.6884720  
H    -6.7351570    1.5463820   -0.4397410  
