62


C     4.1238170    0.6419870   -0.1714470  
C     3.7841530   -0.5003090    0.5593200  
C     4.9205860   -1.3508670    0.5889220  
C     5.9519240   -0.6896080   -0.1430140  
N     5.4408390    0.4992560   -0.5900680  
C     7.2270460   -1.2432380   -0.3145120  
C     7.4698720   -2.4795210    0.2617630  
O     8.6939980   -3.0641290    0.1296380  
C     6.4526110   -3.1545670    0.9975910  
O     6.8559200   -4.3762400    1.5050700  
C     5.1959580   -2.6120380    1.1652380  
H     2.8491950   -0.6682770    1.0716870  
H     5.9260770    1.2605810   -1.0498940  
H     8.0146880   -0.7433200   -0.8681970  
H     8.6645050   -3.9084820    0.6119260  
H     6.1426440   -4.7533320    2.0406720  
H     4.4357070   -3.1468180    1.7316970  
C    -0.2640640    1.5670640   -0.1182190  
C     0.9612530    0.9394590   -0.1282940  
C     1.9779670    1.9183900   -0.3697270  
C     1.2681680    3.2014740   -0.5271340  
N    -0.0718130    2.9466640   -0.2846290  
C     1.8415600    4.3922670   -0.8505190  
C     3.2712170    4.4140040   -1.0664360  
O     3.9075520    5.4195680   -1.3485120  
C     4.0605370    3.0580780   -0.9335550  
O     5.2467960    3.0837320   -1.2479340  
C     3.3626830    1.8367320   -0.4685350  
H     1.1119490   -0.1167700    0.0255130  
H     1.2843410    5.3190290   -0.9430940  
H    -0.8057840    3.5461680   -0.6350590  
C    -1.9769140   -0.2454740   -0.3481750  
C    -1.5913570    1.0265210    0.0242250  
C    -2.7821100    1.6869390    0.5257470  
C    -3.8480850    0.7668330    0.4099000  
N    -3.3302290   -0.4196860   -0.1314970  
C    -5.1394990    1.0493190    0.8635850  
C    -5.3627620    2.2959230    1.4273460  
O    -6.6057200    2.6209810    1.8763330  
C    -4.3030410    3.2318430    1.5560840  
O    -4.6749120    4.4160930    2.1534460  
C    -3.0226270    2.9408170    1.1197790  
H    -5.9618030    0.3507470    0.7761870  
H    -6.5626030    3.5254680    2.2317450  
H    -3.9078680    5.0030040    2.2294140  
H    -2.2171350    3.6548320    1.2725770  
H    -1.4020880   -1.0224320   -0.8300460  
C    -2.5320170   -4.5993920    0.9209020  
C    -2.4889010   -3.2424400    0.8371110  
C    -3.5924970   -2.8311870   -0.0009040  
C    -4.2924390   -4.0717600   -0.4056120  
N    -3.5892000   -5.1078650    0.1793350  
C    -5.4099200   -4.1262860   -1.1769830  
C    -5.9720180   -2.8747640   -1.6580720  
O    -6.9986580   -2.8007310   -2.3146830  
C    -5.2191690   -1.5360420   -1.3119420  
O    -5.6152410   -0.4948740   -1.8028930  
C    -4.0368070   -1.6040170   -0.4207780  
H    -1.7741610   -2.5945850    1.3209460  
H    -5.9090450   -5.0528230   -1.4418040  
H    -1.8830450   -5.2721260    1.4655970  
H    -3.8413560   -6.0814890    0.1124910  
