62


C     4.0718600   -1.7613180    2.7114140  
C     4.9330070   -2.6322290    2.0973270  
C     4.2939350   -3.0796440    0.8915180  
C     3.0326220   -2.4325130    0.8242360  
N     2.9279830   -1.6302200    1.9440860  
C     2.1042230   -2.6450100   -0.2200050  
C     2.4961520   -3.5459390   -1.2139630  
O     1.6804280   -3.7676340   -2.2793730  
C     3.7534990   -4.2009460   -1.1589750  
O     3.9841480   -5.0464280   -2.2291920  
C     4.6502940   -3.9799100   -0.1314330  
H     5.9072130   -2.9274920    2.4624500  
H     2.1095950   -1.1026610    2.2042810  
H     2.0770220   -4.4857000   -2.8027610  
H     4.7765930   -5.5757010   -2.0565550  
H     5.6095840   -4.4935170   -0.1169430  
H     4.1722640   -1.2152350    3.6388090  
C     1.0533820    1.6105360   -0.1426940  
C    -0.3239270    1.4946190   -0.2148760  
C    -0.6626640    0.1051470   -0.2927160  
C     0.6213840   -0.6213470   -0.2536820  
N     1.6091370    0.3380510   -0.1892940  
C     0.7865620   -1.9805040   -0.2713440  
C    -0.4531590   -2.7712130   -0.2719330  
O    -0.4757010   -3.9836700   -0.1546580  
C    -1.8380500   -2.0267580   -0.3743790  
O    -2.8346990   -2.7290880   -0.4579430  
C    -1.8845570   -0.5503770   -0.3748350  
H    -1.0316270    2.3002690   -0.1031860  
H     2.5963930    0.1543520   -0.0783410  
C    -3.3526420    1.3467150   -1.1748580  
C    -3.1452180    0.1545320   -0.5274830  
C    -4.4948880   -0.1826910    0.0065250  
C    -5.3509770    0.9541750   -0.4260950  
N    -4.6736880    1.8287170   -1.1271070  
C    -6.7477120    1.0317460   -0.0955340  
C    -7.2786990    0.0357420    0.6540830  
O    -8.5634660   -0.0183340    1.0467860  
C    -6.4420050   -1.1160940    1.1219140  
O    -6.9875840   -1.9792640    1.8096810  
C    -5.0112730   -1.1821450    0.7470380  
H    -7.3369750    1.8753450   -0.4378560  
H    -8.6360630   -0.8481370    1.5683740  
H    -4.4579920   -2.0564990    1.0653460  
H    -2.6211460    1.9071200   -1.7433570  
C     0.2403970    5.7989450   -1.3146600  
C     1.4106110    6.3423380   -0.8589400  
C     2.1856030    5.2668650   -0.3090050  
C     1.4162860    4.0819200   -0.4477330  
N     0.2322460    4.4400030   -1.0523890  
C     1.8784530    2.8048020   -0.0349190  
C     3.1822380    2.7755980    0.4901980  
O     3.7318010    1.5907120    0.8974920  
C     3.9512630    3.9527700    0.6405580  
O     5.1944130    3.7274730    1.1994230  
C     3.4697900    5.1909720    0.2604700  
H     1.6935020    7.3844340   -0.9098820  
H    -0.4434100    3.7848500   -1.4135810  
H     4.6359740    1.7771440    1.2084910  
H     5.6956860    4.5554970    1.2323680  
H     4.0795650    6.0830010    0.3866490  
H    -0.6053900    6.2642300   -1.8004310  
