60


C    -3.8827020   -1.1776550    1.6968620  
C    -4.6228950   -2.3176140    1.7127890  
C    -5.6678570   -2.1701180    0.7322060  
C    -5.5304750   -0.8859440    0.1548500  
N    -4.4188330   -0.2695830    0.7663760  
C    -6.3453570   -0.4555230   -0.8961180  
C    -7.3406660   -1.3170680   -1.3357300  
O    -8.1648990   -0.9281630   -2.3484270  
C    -7.5083010   -2.5950430   -0.7454290  
O    -8.5377150   -3.3325550   -1.2876240  
C    -6.6813770   -3.0291530    0.2765280  
H    -4.4623040   -3.1659160    2.3642740  
H    -6.2537520    0.5165010   -1.3615760  
H    -8.7913440   -1.6542350   -2.5113540  
H    -8.6033020   -4.1870280   -0.8358230  
H    -6.8052640   -4.0214680    0.7047710  
H    -3.0474540   -0.8722970    2.3082240  
C    -0.2451840    1.1268460    0.2572130  
C    -1.3265230    0.3009570    0.4428030  
C    -2.4854510    1.1664450    0.4211920  
C    -1.9221770    2.5216340    0.2260380  
N    -0.6223770    2.4998500    0.1227450  
C    -2.7536970    3.6967380    0.1361250  
C    -4.0923650    3.5286190    0.2095450  
O    -4.9834870    4.5318730    0.1240530  
C    -4.7155250    2.1777720    0.4087620  
O    -5.9335960    2.1301710    0.5450260  
C    -3.8363920    0.9618500    0.4882910  
H    -1.3238710   -0.7775230    0.4996660  
H    -2.2999910    4.6715230   -0.0020460  
H    -5.8644390    4.1208240    0.2560970  
C     2.2998950   -1.8946900    2.3294420  
C     1.2327460   -1.1400460    1.9657690  
C     1.7263330   -0.2542470    0.9233720  
C     3.1703580   -0.6188570    0.8001280  
N     3.4941880   -1.5787130    1.6206050  
C     4.0695610    0.0688450   -0.1088180  
C     3.5167150    1.0620590   -0.8594880  
O     4.1952100    1.7544050   -1.7808820  
C     2.0562100    1.4322790   -0.7894880  
O     1.6697990    2.2712580   -1.5944540  
C     1.1548780    0.7408060    0.1836220  
H     0.2330950   -1.1628690    2.3729850  
H     3.5398800    2.3713840   -2.1791300  
H     2.3391940   -2.6724650    3.0829050  
C     6.4594850   -3.6220370   -1.0079480  
C     5.4113340   -2.8005170   -0.7721930  
C     6.0046020   -1.5030980   -0.4638330  
C     7.4785420   -1.7491040   -0.5685520  
N     7.7376520   -2.9831930   -0.8908470  
C     8.4422810   -0.7012670   -0.3520160  
C     7.9718490    0.5283530   -0.0457060  
O     8.7499830    1.5968530    0.1955590  
C     6.4975380    0.8112380    0.0761830  
O     6.1733450    1.9430140    0.4232850  
C     5.5031580   -0.2726640   -0.1923430  
H     4.3585430   -3.0381840   -0.7788570  
H     9.5026430   -0.9126940   -0.4332530  
H     8.1280220    2.3264100    0.4106280  
H     6.4355750   -4.6741280   -1.2662980  
