62


C    -4.3519620    0.4343650   -0.0180270  
C    -3.6296720   -0.6501110    0.4616820  
C    -4.4149260   -1.8251300    0.2522890  
C    -5.6231690   -1.4065440   -0.3672660  
N    -5.5521350   -0.0421080   -0.5272390  
C    -6.6423290   -2.3029210   -0.7149850  
C    -6.4378220   -3.6439450   -0.4324130  
O    -7.3973450   -4.5615110   -0.7503160  
C    -5.2342150   -4.0806050    0.1866710  
O    -5.1832270   -5.4457880    0.4008870  
C    -4.2301480   -3.1960660    0.5287990  
H    -2.6881360   -0.6018710    0.9899300  
H    -6.2980540    0.5667440   -0.8288550  
H    -7.5663510   -1.9888880   -1.1893440  
H    -7.0607100   -5.4331630   -0.4799460  
H    -4.3313290   -5.6779010    0.7990230  
H    -3.3178320   -3.5541360    1.0020730  
C    -0.3970610    2.3924990   -0.1017500  
C    -0.8551570    3.6998710   -0.0844840  
C    -2.2797600    3.6633850   -0.0528870  
C    -2.6609910    2.2948470   -0.0376040  
N    -1.5024020    1.5436280   -0.0300670  
C    -4.0046970    1.8535560   -0.0516560  
C    -4.9600530    2.8775110   -0.1119560  
O    -6.2952210    2.5692710   -0.1690200  
C    -4.5953620    4.2484730   -0.1057120  
O    -5.6816730    5.1015850   -0.1435320  
C    -3.2788160    4.6585950   -0.0631200  
H    -0.2283530    4.5807090   -0.0572900  
H    -1.4890870    0.5748140   -0.3182570  
H    -6.7834420    3.4117040   -0.1810930  
H    -5.3758880    6.0202960   -0.1241690  
H    -3.0230180    5.7155220   -0.0647070  
C     2.0639750    2.4894030   -0.6823770  
C     0.9498200    1.8873880   -0.1692400  
C     1.4485770    0.5857500    0.3386930  
C     2.9008180    0.5956370    0.0128100  
N     3.2409900    1.7146240   -0.5711060  
C     3.7703630   -0.5211810    0.3346620  
C     3.1933080   -1.5676680    0.9982460  
O     3.8750980   -2.6502260    1.4037080  
C     1.7489500   -1.5845550    1.3724560  
O     1.3139760   -2.5669550    1.9758770  
C     0.8909170   -0.4359520    1.0119640  
H     3.2095200   -3.2366890    1.8247920  
H    -0.1467960   -0.4816810    1.3264310  
H     2.1209840    3.4562870   -1.1670260  
C     7.2798160    2.1270030    1.1067240  
C     6.0410390    1.5746460    1.0791840  
C     6.1144000    0.3849230    0.2580700  
C     7.5263840    0.2865670   -0.1929040  
N     8.1763390    1.3749940    0.3517190  
C     8.0313200   -0.7082310   -0.9670910  
C     7.1289080   -1.7630620   -1.3997620  
O     7.4838500   -2.7154510   -2.0778720  
C     5.6175660   -1.6685220   -0.9746020  
O     4.8423900   -2.4984110   -1.4146360  
C     5.1848220   -0.5578980   -0.0863390  
H     5.1558250    1.9630200    1.5567010  
H     9.0737320   -0.7637540   -1.2654170  
H     7.6208170    3.0225800    1.6090590  
H     9.1567170    1.5761680    0.2357220  
