62


C    -4.4170070    0.8228680   -1.5682310  
C    -5.5799990    1.3967040   -1.1372920  
C    -6.0648920    0.6050970   -0.0411890  
C    -5.1449690   -0.4567820    0.1477320  
N    -4.1309400   -0.3089770   -0.7989920  
C    -5.2925720   -1.4082900    1.1634130  
C    -6.3982860   -1.2939130    1.9909260  
O    -6.5934580   -2.2002490    2.9931270  
C    -7.3351080   -0.2421830    1.8103090  
O    -8.3811840   -0.2613540    2.7149610  
C    -7.1810650    0.7015640    0.8124050  
H    -6.0506550    2.2720720   -1.5644910  
H    -4.6030110   -2.2316190    1.3036200  
H    -7.4333080   -1.9720440    3.4270960  
H    -9.0281200    0.4171230    2.4720530  
H    -7.9060860    1.5049840    0.6960120  
H    -3.7703900    1.0830720   -2.3945950  
C     0.0356480    0.8612450   -0.7929310  
C     0.5866780   -0.3714080   -1.0702250  
C    -0.4797260   -1.3315090   -1.1722580  
C    -1.7251320   -0.5710620   -0.9300030  
N    -1.3512930    0.7317440   -0.7020620  
C    -2.9803280   -1.1102220   -0.9510550  
C    -3.0986930   -2.5508390   -1.2402580  
O    -4.1702650   -3.1238390   -1.3310790  
C    -1.7723090   -3.3779000   -1.4493450  
O    -1.8699370   -4.5834020   -1.6251190  
C    -0.4975140   -2.6729390   -1.4185590  
H     1.6257970   -0.5743090   -1.2799750  
H     0.4052820   -3.2508630   -1.5898090  
H    -1.9816880    1.5148230   -0.6027190  
C     4.1328070    1.7944490    0.6028760  
C     4.0249220    3.1689660    0.5118180  
C     2.7120070    3.4720660    0.0414450  
C     2.0430580    2.2357990   -0.1606110  
N     2.9347950    1.2318980    0.1528470  
C     0.6936130    2.1454850   -0.5822850  
C     0.0365570    3.3732010   -0.7707010  
O    -1.2755010    3.4004420   -1.1506300  
C     0.7042760    4.6106220   -0.5978800  
O    -0.0978630    5.7022760   -0.8571830  
C     2.0267440    4.6770550   -0.2073410  
H     4.8162390    3.8742980    0.7243040  
H     2.6432960    0.2897780    0.3730570  
H    -1.5401390    4.3359060   -1.2180780  
H     0.3924470    6.5215040   -0.6936820  
H     2.5178980    5.6382390   -0.0747530  
C     6.2077950    1.2968900    1.9605810  
C     5.2306070    0.9778290    1.0606620  
C     5.5745850   -0.3964230    0.6301310  
C     6.7992410   -0.7269700    1.4138090  
N     7.1607650    0.2718440    2.1743440  
C     7.4596120   -1.9967330    1.2806170  
C     6.9525720   -2.8898930    0.3951120  
O     7.4706930   -4.1092860    0.1747250  
C     5.7439690   -2.5732530   -0.4344680  
O     5.3400270   -3.4248560   -1.2236920  
C     5.0797970   -1.2584880   -0.2767580  
H     8.3419010   -2.2118810    1.8731570  
H     6.9025170   -4.5189720   -0.5132540  
H     4.2289320   -1.0627590   -0.9220670  
H     6.3043610    2.2210220    2.5176010  
