60


C     3.8228450   -2.3269050    2.6378060  
C     4.4595800   -3.4116770    2.0943020  
C     3.6364770   -3.8846420    1.0186710  
C     2.4960760   -3.0408560    0.9638690  
N     2.6211950   -2.1198080    1.9839580  
C     1.4442780   -3.2249810    0.0371580  
C     1.6191630   -4.2658750   -0.8861680  
O     0.7025940   -4.4652400   -1.8700560  
C     2.7583540   -5.1118960   -0.8411980  
O     2.7540900   -6.0879000   -1.8199970  
C     3.7532840   -4.9459060    0.0993150  
H     5.3985920   -3.8331960    2.4255630  
H     2.0999900   -1.2556700    2.0046660  
H     1.0013770   -5.2344270   -2.3871640  
H     3.5620780   -6.6180240   -1.7559060  
H     4.6129930   -5.6125000    0.1195690  
H     4.1170050   -1.6835200    3.4552640  
C     0.8838910    1.1202070   -0.1346820  
C    -0.4893040    1.2254650   -0.2081870  
C    -0.9855150   -0.1101020   -0.1238490  
C     0.2450630   -0.9605490   -0.0273950  
N     1.3268680   -0.2235040   -0.0071820  
C     0.2126530   -2.4081290    0.0203280  
C    -1.0398680   -2.9596670    0.0083910  
O    -1.2610470   -4.2746530    0.0854190  
C    -2.2953700   -2.1510160   -0.1052220  
O    -3.3506900   -2.7963400   -0.1817480  
C    -2.2508500   -0.6675520   -0.0974380  
H    -1.0598500    2.1279450   -0.3622060  
H    -2.2346120   -4.3873540    0.0149990  
C     1.8885790    2.1410400   -0.1890190  
C     1.7762120    3.5142140   -0.2777040  
C     3.1033080    4.0582420   -0.3024890  
C     4.0324930    2.8995650   -0.2226600  
N     3.2338010    1.7804930   -0.1480620  
C     5.3855930    3.0057270   -0.2269710  
C     5.9807250    4.3362260   -0.3094500  
O     7.1867660    4.5291150   -0.3170660  
C     5.0175900    5.5766440   -0.3891320  
O     5.4950420    6.6988810   -0.4566750  
C     3.5718350    5.3375470   -0.3799400  
H     0.8541300    4.0762770   -0.3144510  
H     6.0501770    2.1493940   -0.1705680  
H     2.9160530    6.2009630   -0.4389210  
H     3.5308750    0.8151180   -0.1250360  
C    -3.4861060    0.0835420   -0.0384060  
C    -3.6814370    1.4060810    0.3244850  
C    -5.0867960    1.6794400    0.2748180  
C    -5.7395900    0.4147540   -0.1419650  
N    -4.7236470   -0.4964300   -0.3255300  
C    -7.0798700    0.2611380   -0.2908120  
C    -7.9457040    1.4084160   -0.0323310  
O    -9.1613690    1.3652700   -0.1402870  
C    -7.2743880    2.7610730    0.4060640  
O    -7.9798690    3.7335780    0.6259990  
C    -5.8154700    2.8030590    0.5368840  
H    -2.9209570    2.0949200    0.6552540  
H    -7.5427090   -0.6726710   -0.5939220  
H    -5.3619850    3.7409190    0.8433190  
H    -4.8212010   -1.4908940   -0.4798990  
