62


C     4.5667120   -0.2170420   -0.0219190  
C     5.7423060   -0.9221620   -0.1825400  
C     6.8290740    0.0067210   -0.1379040  
C     6.2675410    1.2930360    0.0608590  
N     4.8840310    1.1554390    0.0646540  
C     7.0462040    2.4458490    0.1929010  
C     8.4232940    2.2980190    0.1067240  
O     9.2294460    3.3865990    0.2297430  
C     9.0044440    1.0182060   -0.1168060  
O    10.3811710    1.0433940   -0.1891260  
C     8.2300350   -0.1186780   -0.2425710  
H     5.8083180   -1.9832880   -0.3771670  
H     4.2861540    1.7983670    0.5696620  
H     6.6220700    3.4319060    0.3512710  
H    10.1490430    3.0821280    0.1368790  
H    10.7188450    0.1469870   -0.3336120  
H     8.6947330   -1.0882940   -0.4080010  
C     2.6410360   -3.9702320    1.4789910  
C     3.5420590   -2.9864770    1.1655200  
C     2.8201280   -1.9611840    0.4684010  
C     1.4731580   -2.3842370    0.3859230  
N     1.3975590   -3.6164290    0.9935880  
C     0.4192440   -1.5968220   -0.1557680  
C     0.8098760   -0.3193890   -0.6228410  
O    -0.0776570    0.4956100   -1.2346200  
C     2.1543880    0.1110740   -0.5509890  
O     2.3491830    1.3724870   -1.0876250  
C     3.1862230   -0.6774530   -0.0279940  
H     4.5895350   -2.9792870    1.4261430  
H     0.5301090   -4.0878330    1.2014720  
H     0.4240980    1.2768330   -1.5359310  
H     3.2862400    1.4743350   -1.3345350  
H     2.7797320   -4.9040830    2.0046460  
C    -0.9364160   -2.0824290   -0.2197400  
C    -1.3885560   -3.3847040   -0.2913550  
C    -2.8186800   -3.3145210   -0.2770970  
C    -3.1152210   -1.8476370   -0.1725340  
N    -2.0272360   -1.1450220   -0.1487450  
C    -4.4873690   -1.3346490   -0.1076470  
C    -5.4622390   -2.2970240   -0.1604870  
O    -6.7821030   -2.0441720   -0.1181670  
C    -5.1833760   -3.7732120   -0.2820590  
O    -6.1795120   -4.5084550   -0.3205170  
C    -3.8130770   -4.2401080   -0.3387650  
H    -0.8041160   -4.2801710   -0.4507920  
H    -7.1992030   -2.9416240   -0.1806010  
H    -3.6456840   -5.3094440   -0.4185990  
C    -4.7572900    0.0891140   -0.0079810  
C    -3.8772940    1.1471140   -0.0116620  
C    -4.6437860    2.3568450    0.1025890  
C    -6.0688730    1.9448530    0.1771580  
N    -6.0707530    0.5732040    0.1102100  
C    -7.1111890    2.8099480    0.2889370  
C    -6.8265310    4.2383940    0.3414460  
O    -7.6973040    5.0914580    0.4414730  
C    -5.3228800    4.6987040    0.2660070  
O    -5.0676750    5.8941910    0.3096750  
C    -4.2887610    3.6725550    0.1463090  
H    -2.8061170    1.0588770   -0.0970190  
H    -8.1475610    2.4905980    0.3418050  
H    -3.2548960    4.0006300    0.0950000  
H    -6.8860220   -0.0207030    0.1061270  
