62


C     3.9717900    0.1402080    0.0772670  
C     2.6022540    0.1704060    0.2388460  
C     2.2149810    1.5205680    0.5201160  
C     3.4012120    2.2991550    0.5142010  
N     4.4533850    1.4543230    0.1943810  
C     3.4131320    3.6733200    0.7544810  
C     2.1900720    4.2833780    1.0051470  
O     2.1450490    5.6170240    1.2791440  
C     0.9905280    3.5336380    0.9902630  
O    -0.1397500    4.2900550    1.2597650  
C     0.9633110    2.1588020    0.7407670  
H     1.9454060   -0.6764390    0.1067010  
H     5.4153890    1.6541140    0.4347550  
H     4.3217840    4.2663320    0.7614250  
H     1.2160580    5.8376290    1.4692290  
H    -0.8328050    3.7126960    1.6165950  
C    -0.5659710    0.2081810    1.3305010  
C    -0.2950710    1.4000420    0.7301520  
C    -1.5337380    1.7097870   -0.0166720  
C    -2.4434790    0.5509060    0.2491960  
N    -1.8634980   -0.2970270    1.0602800  
C    -3.7741730    0.4460880   -0.3285480  
C    -4.1864050    1.5522200   -1.0330270  
O    -5.4217160    1.6974180   -1.5189510  
C    -3.2951970    2.7214650   -1.3204620  
O    -3.7589820    3.6489640   -1.9827040  
C    -1.9193200    2.7429580   -0.7870250  
H    -5.4165640    2.5456470   -2.0160410  
H    -1.3075520    3.6116540   -1.0046830  
H     0.0893760   -0.3634110    1.9759830  
C    -4.6863450   -2.4874630    2.9142360  
C    -5.6563820   -3.2042930    2.2900510  
C    -5.7886380   -2.6679010    0.9538610  
C    -4.8185550   -1.5433450    0.8689400  
N    -4.2090490   -1.4612120    2.1054000  
C    -4.6340580   -0.7483650   -0.2349840  
C    -5.3241290   -1.2144490   -1.4679710  
O    -5.0259390   -0.8204910   -2.5811220  
C    -6.4484180   -2.3038250   -1.3529200  
O    -7.1464590   -2.5240650   -2.3309740  
C    -6.5915820   -3.0128680   -0.0885810  
H    -6.2219580   -4.0263840    2.7041530  
H    -7.3390390   -3.7975740   -0.0225560  
H    -4.2840670   -2.6079480    3.9120010  
H    -3.2638610   -1.0727280    2.1538620  
C     3.9544290   -4.1847790    1.2866510  
C     3.6493580   -2.8557160    1.1456830  
C     4.6346350   -2.2830800    0.2718830  
C     5.5280100   -3.3296980   -0.0803790  
N     5.0848260   -4.4754410    0.5475060  
C     6.6428700   -3.1408200   -0.9044560  
C     6.8611660   -1.8605290   -1.3885500  
O     7.9209720   -1.6167960   -2.2122770  
C     5.9891110   -0.7968890   -1.0510240  
O     6.3482280    0.4160820   -1.6214060  
C     4.8713430   -0.9723850   -0.2277600  
H     2.8294760   -2.3419420    1.6246890  
H     5.5219250   -5.3808840    0.4793780  
H     7.3203040   -3.9433860   -1.1773050  
H     7.8553410   -0.6844240   -2.4848260  
H     5.5612710    0.9854970   -1.6750450  
H     3.4582000   -4.9567900    1.8576050  
