60


C    -4.8390940   -0.3638370    0.0079290  
C    -5.6748550   -1.4838510   -0.1229900  
C    -7.0113730   -1.0362670   -0.0811800  
C    -6.9698970    0.3854780    0.0739860  
N    -5.6574910    0.7565660    0.1236580  
C    -8.1298060    1.1676850    0.1472770  
C    -9.3444230    0.5092430    0.0619920  
O   -10.5013160    1.2123340    0.1258670  
C    -9.4059240   -0.9144690   -0.0947780  
O   -10.6946080   -1.3948930   -0.1607100  
C    -8.2692710   -1.6836170   -0.1675420  
H    -5.3448470   -2.4983980   -0.2821060  
H    -5.2748670    1.6929790    0.1492450  
H    -8.1081040    2.2456020    0.2646110  
H   -11.2375470    0.5797260    0.0487120  
H   -10.6838170   -2.3583390   -0.2635530  
H    -8.3342920   -2.7627780   -0.2860780  
C    -1.4471940   -3.2936840    0.3226350  
C    -2.6995920   -2.7669770    0.3674340  
C    -2.5347440   -1.3436740    0.1193270  
C    -1.0822770   -1.1785760   -0.0368140  
N    -0.4509000   -2.3236870    0.0727580  
C    -0.4379650    0.1190290   -0.2640480  
C    -1.2884300    1.1862000   -0.3375750  
O    -0.8791150    2.4551840   -0.5814600  
C    -2.7515100    1.0643960   -0.1659320  
O    -3.3968320    2.1253320   -0.2002320  
C    -3.4048220   -0.2808080    0.0050090  
H    -3.6147810   -3.2888240    0.6020980  
H    -1.6986280    2.9955010   -0.5544970  
H    -1.1493460   -4.3246330    0.4698680  
C     1.7887700   -0.8122050   -0.9182130  
C     1.0151500    0.1947140   -0.3989030  
C     1.9458340    1.2528190    0.0105190  
C     3.3007340    0.7649970   -0.3497760  
N     3.1276210   -0.4683660   -0.9338980  
C     4.4652350    1.4434040   -0.1123680  
C     4.3707470    2.7703930    0.5109800  
O     5.3438630    3.4821730    0.7028560  
C     2.9477550    3.2812480    0.9306320  
O     2.8670580    4.3707930    1.4742010  
C     1.7833290    2.4462120    0.6410710  
H     0.8123880    2.8329760    0.9168310  
H     1.4669820   -1.7773010   -1.2767720  
H     3.8803720   -1.1052460   -1.1533870  
C     6.7221210    1.6721160   -1.1394800  
C     7.8511620    0.9468480   -1.3157060  
C     7.6461690   -0.3391850   -0.6872590  
C     6.2769880   -0.3028870   -0.1109890  
N     5.7415510    0.9386910   -0.4445520  
C     5.7332640   -1.3164850    0.6165460  
C     6.5218100   -2.5319560    0.8197970  
O     6.1116630   -3.4855280    1.4630060  
C     7.9523190   -2.6054440    0.1760940  
O     8.6088500   -3.6265110    0.3052890  
C     8.4415940   -1.4318970   -0.5514590  
H     8.7466100    1.2724210   -1.8248600  
H     4.7645400   -1.2574550    1.1003450  
H     9.4480220   -1.4748260   -0.9568400  
H     6.4945160    2.6813140   -1.4471980  
