62


C    -3.2341350    1.3563020   -1.2909390  
C    -3.0776430    0.1573100   -0.6086160  
C    -4.3770620   -0.1450640   -0.0326710  
C    -5.2495160    0.9116370   -0.3958870  
N    -4.5251850    1.8013570   -1.1669490  
C    -6.5887500    0.9759970    0.0081230  
C    -7.0637550   -0.0553960    0.8013600  
O    -8.3620210   -0.0560050    1.2195440  
C    -6.2062680   -1.1218000    1.1804290  
O    -6.8206140   -2.0776170    1.9687940  
C    -4.8854060   -1.1770100    0.7815850  
H    -4.8903700    2.6407730   -1.5896130  
H    -7.2510410    1.7867770   -0.2775790  
H    -8.4953310   -0.8741950    1.7292480  
H    -6.2305720   -2.8404040    2.0628830  
H    -4.2631380   -2.0206420    1.0588130  
H    -2.5291230    1.8981790   -1.9054930  
C     1.0297790    1.6238950   -0.2046600  
C     1.6904360    0.4027570   -0.2194700  
C     0.7196680   -0.6340120   -0.3158660  
C    -0.5905360    0.0413130   -0.3928600  
N    -0.3320650    1.3935100   -0.3127420  
C    -1.8132650   -0.5722910   -0.5087820  
C    -1.7477810   -2.0435010   -0.5581520  
O    -2.7324960   -2.7634480   -0.5874100  
C    -0.3459220   -2.7654340   -0.6156500  
O    -0.3847610   -3.9732960   -0.8771410  
C     0.8741050   -2.0170300   -0.3667850  
H     2.7560450    0.2529880   -0.2263410  
H    -1.0106180    2.1413080   -0.3415520  
C     4.9489340    3.2565990    1.1570360  
C     3.8747760    2.4466730    0.9253590  
C     2.8538290    3.2504780    0.3074990  
C     3.4152470    4.6161400    0.2118540  
N     4.6997970    4.5432830    0.7169810  
C     2.7683380    5.7023820   -0.2875390  
C     1.3963390    5.5310140   -0.7305250  
O     0.7214170    6.4287840   -1.2097010  
C     0.7389800    4.1138700   -0.5697830  
O    -0.4612880    4.0291930   -0.8010990  
C     1.5721340    2.9643760   -0.1446180  
H     3.8055730    1.4069320    1.2065480  
H     3.2219680    6.6848560   -0.3708900  
H     5.8975220    3.0155080    1.6180320  
H     5.3203390    5.3305990    0.8237680  
C     4.0853640   -1.5486740    2.7547770  
C     2.9234560   -1.4553330    2.0298320  
C     3.0548030   -2.3206390    0.8874060  
C     4.3338680   -2.9283830    0.9903280  
N     4.9470100   -2.4228150    2.1209920  
C     4.8009550   -3.8901380    0.0885790  
C     3.9337510   -4.2649650   -0.9247530  
O     4.3028450   -5.2119030   -1.8281350  
C     2.6434410   -3.6819770   -1.0551610  
O     1.9350410   -4.1617190   -2.1299380  
C     2.1863510   -2.6783560   -0.1925090  
H     2.0665250   -0.8533100    2.2934400  
H     5.8327050   -2.7365220    2.4852670  
H     5.7755780   -4.3598750    0.1738680  
H     3.5221730   -5.3339780   -2.4038180  
H     1.0044320   -4.2914380   -1.8200740  
H     4.3683250   -1.0712320    3.6825530  
