62


C     3.1974580    0.3728640   -0.0347210  
C     1.8167570    0.3580060   -0.1750250  
C     1.3059870    1.5333600    0.4667180  
C     2.4206960    2.2535140    0.9730120  
N     3.5456410    1.5177190    0.6679000  
C     2.3017930    3.4812800    1.6309860  
C     1.0236990    3.9968910    1.7965210  
O     0.8474380    5.1887930    2.4253900  
C    -0.1172750    3.2886270    1.3354120  
O    -1.3241370    3.8778200    1.6469000  
C     0.0166680    2.0653650    0.6808070  
H     1.2400140   -0.4544960   -0.5953620  
H     4.4994360    1.8210020    0.7981510  
H     3.1570530    4.0367230    2.0008920  
H    -0.1102440    5.3703650    2.4220740  
H    -1.9626930    3.7539510    0.9211360  
C    -1.4946810    0.0836300    0.7009840  
C    -2.6782560   -0.3475750    0.1658100  
C    -3.1510910    0.7405090   -0.6975390  
C    -2.1281720    1.8107370   -0.6043630  
N    -1.1420680    1.3506700    0.2561290  
C    -2.1861420    3.0031840   -1.2613480  
C    -3.3433220    3.2730990   -2.1119950  
O    -3.4714310    4.3000590   -2.7589890  
C    -4.4643380    2.1790680   -2.1823580  
O    -5.4675290    2.3959680   -2.8406790  
C    -4.2643920    0.9186300   -1.4504140  
H    -1.3793390    3.7301410   -1.2425270  
H    -5.0276760    0.1583940   -1.5614140  
H    -0.8319170   -0.4367990    1.3786370  
C    -3.1543410   -2.7518690    3.8951360  
C    -2.8819790   -1.7226070    3.0560120  
C    -3.3035660   -2.1833690    1.7361580  
C    -3.8310330   -3.5534090    1.9901020  
N    -3.7354950   -3.8840440    3.2482450  
C    -4.3807360   -4.3671550    0.9358070  
C    -4.4153380   -3.8423550   -0.3093590  
O    -4.9142660   -4.4801330   -1.3825220  
C    -3.8824480   -2.4686890   -0.6070680  
O    -3.9351040   -2.0902960   -1.7752680  
C    -3.2952020   -1.6321290    0.4889380  
H    -2.4759140   -0.7534300    3.3075310  
H    -4.7579220   -5.3595380    1.1560900  
H    -4.7881760   -3.8671470   -2.1385840  
H    -2.9935390   -2.7967270    4.9657080  
C     7.0847130   -1.0856010    1.7233880  
C     5.8746670   -0.4655920    1.5397790  
C     5.3969460   -0.8430760    0.2368100  
C     6.3718460   -1.7110910   -0.3206220  
N     7.3894320   -1.8325490    0.6039580  
C     6.2349260   -2.3082680   -1.5794870  
C     5.0849880   -2.0217470   -2.2968580  
O     4.9051600   -2.5597340   -3.5364980  
C     4.0913480   -1.1605090   -1.7658870  
O     3.0204060   -0.9601690   -2.6087460  
C     4.2207210   -0.5574260   -0.5121760  
H     5.3710660    0.1511720    2.2705150  
H     8.2150370   -2.3987630    0.4870380  
H     6.9837030   -2.9688750   -2.0042740  
H     4.0679160   -2.2036020   -3.8825930  
H     2.5237660   -0.1791250   -2.3014480  
H     7.7571610   -1.0620520    2.5691620  
