62


C     3.1913440   -0.0092210   -0.5711940  
C     1.8542070    0.2291560   -0.3220800  
C     1.6497750    1.6478010   -0.3018710  
C     2.9165960    2.2406750   -0.5592450  
N     3.8408450    1.2178080   -0.6715880  
C     3.1042660    3.6165990   -0.6846180  
C     1.9756440    4.4182720   -0.5707970  
O     2.0815170    5.7676280   -0.7036640  
C     0.6968760    3.8632560   -0.3135820  
O    -0.3008280    4.8050680   -0.1995460  
C     0.5053360    2.4863920   -0.1317240  
H     1.1184210   -0.5383860   -0.1331540  
H     4.7541160    1.3225130   -1.0882600  
H     4.0702800    4.0664540   -0.8904080  
H     1.1685430    6.1071140   -0.6260320  
H    -1.0715510    4.4633640   -0.7092590  
C    -0.7548710   -0.3890980    3.0046600  
C    -0.0730040    0.4912530    2.2278140  
C    -0.9890660    0.9933780    1.2276900  
C    -2.2834320    0.3312030    1.4960190  
N    -2.0847620   -0.4732360    2.6004610  
C    -3.4330640    0.4764900    0.7622170  
C    -3.3482980    1.4195460   -0.3542400  
O    -4.2639050    1.6329010   -1.1330680  
C    -2.0261680    2.2553160   -0.5443510  
O    -2.0967240    3.1933640   -1.3361990  
C    -0.8109230    1.9050150    0.2061860  
H     0.9615950    0.7751070    2.3356570  
H    -0.4126520   -0.9664180    3.8532280  
H    -2.7437720   -1.1781300    2.8952390  
C    -5.2914510   -0.2929260    2.2909900  
C    -4.6842210   -0.2283430    1.0681230  
C    -5.5235140   -1.0142080    0.1563920  
C    -6.6521110   -1.5325040    0.9673850  
N    -6.4417570   -1.0704940    2.2529360  
C    -7.6596520   -2.3063960    0.4891660  
C    -7.6338010   -2.6833290   -0.9197540  
O    -8.4901460   -3.3807190   -1.4420720  
C    -6.4321670   -2.1703030   -1.7937610  
O    -6.3715180   -2.4981780   -2.9672880  
C    -5.4164470   -1.3168510   -1.1610950  
H    -8.4792530   -2.6659390    1.1038670  
H    -4.6179800   -0.9385150   -1.7886000  
H    -4.9980020    0.1888240    3.2150470  
H    -7.0986460   -1.1685790    3.0113990  
C     3.4259860   -2.4156990   -1.2868720  
C     3.9195510   -1.2560640   -0.7253800  
C     5.2853400   -1.5412740   -0.3360120  
C     5.5488700   -2.8876530   -0.6938490  
N     4.3948680   -3.3945650   -1.2602460  
C     6.7810890   -3.5083830   -0.4552680  
C     7.7677030   -2.7567240    0.1632700  
O     8.9876220   -3.3123650    0.4170260  
C     7.5174100   -1.4119840    0.5458970  
O     8.5906840   -0.8011130    1.1662520  
C     6.2989880   -0.8025580    0.3082080  
H     4.2952370   -4.3187700   -1.6500690  
H     6.9846000   -4.5386950   -0.7287560  
H     9.5259320   -2.6353710    0.8621400  
H     8.3421280    0.0947950    1.4377040  
H     6.1250100    0.2204390    0.6347880  
H     2.4572770   -2.6040810   -1.7269640  
