62


C     1.7993700   -0.9099510   -0.6656760  
C     3.0645360   -0.3838310   -0.6902220  
C     2.9866590    0.9590570   -0.1681370  
C     1.6302550    1.1874740    0.1625790  
N     0.9072510    0.0381550   -0.1721640  
C     1.1973640    2.3817510    0.7523700  
C     2.1451760    3.3709960    0.9695690  
O     1.7718990    4.5508150    1.5403560  
C     3.5036750    3.1660120    0.6096560  
O     4.3201750    4.2441940    0.8787990  
C     3.9330350    1.9771640    0.0494060  
H     0.1699710    2.5550090    1.0500900  
H     2.5718390    5.0986470    1.6222720  
H     5.2405490    4.0128090    0.6832390  
H     4.9789630    1.8264860   -0.2042900  
H     1.4416400   -1.8754820   -0.9907660  
C    -1.0460870   -1.3004970    0.5583340  
C    -0.4569070   -0.1959240    0.0312810  
C    -1.5712920    0.6484320   -0.4413250  
C    -2.7853710   -0.1324100   -0.0647740  
N    -2.4653280   -1.2608670    0.5068190  
C    -4.1263930    0.3500730   -0.3480430  
C    -4.2108150    1.5378230   -1.0177560  
O    -5.3726730    2.1330930   -1.3187440  
C    -3.0037820    2.3121520   -1.4501110  
O    -3.1813650    3.3723850   -2.0478090  
C    -1.6539460    1.7995390   -1.1300820  
H    -5.1335140    2.9437580   -1.8193840  
H    -0.8031160    2.3927770   -1.4492260  
H    -0.5571220   -2.1668000    0.9866470  
C    -5.7514610   -1.3084990    3.4597530  
C    -4.9918450   -0.6821940    2.5256520  
C    -5.6349630   -0.8737330    1.2438650  
C    -6.8570770   -1.6727390    1.5157640  
N    -6.8634300   -1.9079760    2.8757390  
C    -7.7658320   -2.0511990    0.5807620  
C    -7.5325950   -1.6557190   -0.7994890  
O    -8.2980860   -1.9230070   -1.7132140  
C    -6.2246940   -0.8473220   -1.1300550  
O    -5.9779220   -0.6030780   -2.2974400  
C    -5.3243440   -0.4452780   -0.0183120  
H    -4.0660310   -0.1581290    2.7016610  
H    -8.6615410   -2.6193990    0.8121420  
H    -5.5960460   -1.3907030    4.5273710  
H    -7.5850900   -2.4088760    3.3691670  
C     4.3127830   -1.5695650   -2.4837750  
C     5.5492920   -2.1278050   -2.6549030  
C     6.2741350   -1.9336670   -1.4305540  
C     5.4104500   -1.2443170   -0.5405270  
N     4.2076530   -1.0226210   -1.2069680  
C     5.7826680   -0.9177520    0.7704230  
C     7.0592840   -1.2713380    1.1802350  
O     7.4757640   -0.9691370    2.4469280  
C     7.9423590   -1.9472840    0.2983700  
O     9.1794860   -2.2280380    0.8511140  
C     7.5656560   -2.2824540   -0.9891830  
H     5.9071270   -2.6135920   -3.5525040  
H     5.1156810   -0.4145740    1.4611610  
H     8.3771880   -1.3217760    2.5421890  
H     9.7067880   -2.7357240    0.2169520  
H     8.2561990   -2.8096560   -1.6449960  
H     3.4795150   -1.4813790   -3.1661940  
