60


C    -4.7359700    0.0480240   -0.0792360  
C    -5.6188960    1.1309920   -0.1217080  
C    -6.9356750    0.6198290    0.0449100  
C    -6.8166030   -0.7939450    0.1843820  
N    -5.4839360   -1.1055610    0.1004470  
C    -7.9258080   -1.6286860    0.3702450  
C    -9.1738700   -1.0296030    0.4207170  
O   -10.2875410   -1.7921690    0.6014580  
C    -9.3121050    0.3831510    0.2861300  
O   -10.6210150    0.8180350    0.3586600  
C    -8.2204780    1.2052690    0.1006920  
H    -5.3452430    2.1761390   -0.1553040  
H    -5.0367190   -2.0020450    0.2502760  
H    -7.8401860   -2.7047370    0.4774210  
H   -11.0521840   -1.1907150    0.6161720  
H   -10.6465680    1.7837490    0.2887060  
H    -8.3506280    2.2810820    0.0007180  
C    -1.8467560    2.8896540   -1.7530220  
C    -0.6907320    2.2542630   -1.4314600  
C    -1.0419950    1.0314090   -0.7474540  
C    -2.5125720    1.0125520   -0.6838650  
N    -2.9464560    2.1873440   -1.2686760  
C    -3.2922930   -0.0005580   -0.1680020  
C    -2.5413090   -1.1999080    0.2463190  
O    -3.0737100   -2.2651750    0.5351880  
C    -0.9723650   -1.1409540    0.3353990  
O    -0.4162750   -2.0584660    0.9154720  
C    -0.2667600    0.0060430   -0.2540200  
H     0.3098820    2.6036430   -1.6297540  
H    -1.9954430    3.8216610   -2.2819810  
H    -3.8912310    2.2978120   -1.6095720  
C     2.6426760    2.8727860    1.4024630  
C     3.8242460    2.2558740    1.1671490  
C     3.4741540    1.0167460    0.4840020  
C     1.9768460    1.0651510    0.3818570  
N     1.5053080    2.1515380    0.9224500  
C     1.2050580    0.0035600   -0.2449920  
C     1.9299710   -1.0342010   -0.7590170  
O     1.3757080   -2.0701370   -1.4004080  
C     3.4226220   -1.1166060   -0.6654770  
O     3.9652000   -2.1272700   -1.1053000  
C     4.1943160   -0.0112920   -0.0254740  
H     4.8180880    2.5889870    1.4284950  
H     2.1163530   -2.6794500   -1.6132900  
H     2.4754710    3.8229160    1.8959980  
C     7.3062160   -0.0822660    3.2011980  
C     6.1055930   -0.0045100    2.5792570  
C     6.4095740   -0.1087250    1.1565610  
C     7.9013740   -0.2573050    1.1153060  
N     8.4165560   -0.2396420    2.3105500  
C     8.6147840   -0.4136540   -0.1249100  
C     7.8938230   -0.4225150   -1.2697780  
O     8.4273960   -0.5469430   -2.4946770  
C     6.3980310   -0.2546610   -1.2699300  
O     5.8369780   -0.1844060   -2.3587560  
C     5.6624730   -0.1282330    0.0244560  
H     5.1275800    0.1071790    3.0241810  
H     9.6939860   -0.5180530   -0.1206490  
H     7.6718640   -0.4924730   -3.1197840  
H     7.5053240   -0.0452900    4.2656870  
