64


C     3.8534250   -0.6776430   -1.8558850  
C     4.1773980   -2.0056230   -1.9060500  
C     4.7536740   -2.3501890   -0.6365650  
C     4.7541220   -1.1732360    0.1546460  
N     4.1982510   -0.1511650   -0.6105420  
C     5.2269070   -1.1484780    1.4718000  
C     5.7191260   -2.3330400    1.9959980  
O     6.1984110   -2.3646030    3.2757070  
C     5.7338960   -3.5202090    1.2171760  
O     6.2558930   -4.6177450    1.8791620  
C     5.2599670   -3.5420990   -0.0810630  
H     4.0350400   -2.6603050   -2.7552200  
H     5.2316320   -0.2483080    2.0749750  
H     6.5018970   -3.2730380    3.4442750  
H     6.2612420   -5.3797230    1.2815100  
H     5.2759050   -4.4648920   -0.6581970  
H     3.4338020   -0.0280150   -2.6111920  
C     0.3670610    1.8535360   -0.1876230  
C     0.8439510    3.0748320    0.2231400  
C     2.2738390    2.9650530    0.2787310  
C     2.6024570    1.6472810   -0.1251470  
N     1.4252580    0.9873270   -0.4173160  
C     3.9242120    1.1745420   -0.1919910  
C     4.9375620    2.0651970    0.1623480  
O     6.2376780    1.6694930    0.1140090  
C     4.6172840    3.3855960    0.5758320  
O     5.7286190    4.1411000    0.8941390  
C     3.3147880    3.8461060    0.6321070  
H     0.2433210    3.9513550    0.4203210  
H     1.3413920   -0.0065180   -0.5753230  
H     6.7786750    2.4234420    0.4073840  
H     5.4529770    5.0322750    1.1545970  
H     3.1036260    4.8643640    0.9510590  
C    -1.9806710    1.6938860    0.5370120  
C    -3.1630330    1.1449830    0.0896660  
C    -2.8547850    0.4890270   -1.1668940  
C    -1.4759400    0.6848590   -1.4178950  
N    -0.9524240    1.4227180   -0.3512370  
C    -0.8456040    0.2302960   -2.5822480  
C    -1.6225110   -0.4518590   -3.5069210  
O    -1.0546000   -0.9209900   -4.6533850  
C    -3.0076470   -0.6553780   -3.2756100  
O    -3.6479700   -1.3363870   -4.2902700  
C    -3.6274750   -0.1873140   -2.1308380  
H     0.2034340    0.4043770   -2.7912660  
H    -1.7578120   -1.3500730   -5.1709890  
H    -4.5882150   -1.4327360   -4.0778180  
H    -4.6964770   -0.3275350   -1.9919650  
H    -1.7678150    2.2119680    1.4604440  
C    -4.9622740    2.3120230    1.4450410  
C    -4.4378020    1.2441320    0.7794230  
C    -5.4332480    0.1673330    0.9982590  
C    -6.4988720    0.8109740    1.8163820  
N    -6.2114920    2.0566680    2.0760150  
C    -7.6631010    0.0813260    2.2461100  
C    -7.7527320   -1.2291620    1.9124410  
O    -8.7828160   -2.0275360    2.2500230  
C    -6.6801030   -1.9126630    1.1203150  
O    -6.8305690   -3.1045030    0.8487250  
C    -5.4947340   -1.1406530    0.6857000  
H    -8.4289220    0.5800460    2.8300740  
H    -8.5609620   -2.9073810    1.8746770  
H    -4.7340540   -1.6755330    0.1256680  
H    -4.5378150    3.3061490    1.5192710  
