62


C     5.2725480   -1.8220140    1.5334040  
C     6.5608830   -1.6194290    1.9464260  
C     7.0859400   -0.5262210    1.1784960  
C     6.0503410   -0.0965820    0.3072300  
N     4.9411370   -0.9087730    0.5354850  
C     6.2062200    0.9804620   -0.5795440  
C     7.4360840    1.6225770   -0.5957360  
O     7.6406440    2.6762320   -1.4392480  
C     8.4858240    1.1984750    0.2604720  
O     9.6482630    1.9344990    0.1251810  
C     8.3236230    0.1448620    1.1417010  
H     7.0798360   -2.1884050    2.7057570  
H     5.4056810    1.3363950   -1.2190050  
H     8.5508440    2.9872710   -1.2946950  
H    10.3142310    1.6033130    0.7455320  
H     9.1403320   -0.1555250    1.7955080  
H     4.5419710   -2.5560540    1.8414170  
C     0.8315050   -0.2156240    2.0265420  
C     2.1832220   -0.3742010    1.9386890  
C     2.4883100   -0.6431390    0.5599870  
C     1.2660620   -0.6478780   -0.1538950  
N     0.2457180   -0.3810560    0.7665090  
C     1.2047800   -0.8050350   -1.5421460  
C     2.4007530   -0.9955750   -2.2169020  
O     2.3962910   -1.1630050   -3.5694630  
C     3.6375070   -1.0344600   -1.5234110  
O     4.7292230   -1.2740320   -2.3226600  
C     3.6923590   -0.8567520   -0.1434330  
H     2.8852650   -0.3204160    2.7585040  
H     0.2758350   -0.8035780   -2.0978420  
H     3.3214500   -1.2795740   -3.8479250  
H     5.5476990   -1.1220650   -1.8205390  
H     0.2012790   -0.0423030    2.8861530  
C    -2.6457780    2.6763260    1.9542830  
C    -1.5013540    1.9868030    1.7085470  
C    -1.8696580    0.7904280    0.9813170  
C    -3.3363190    0.8406660    0.8134880  
N    -3.7444670    2.0056770    1.4320390  
C    -4.1070220   -0.0960440    0.1757670  
C    -3.3844940   -1.2273330   -0.4267710  
O    -3.9118830   -2.0419630   -1.1631300  
C    -1.8385760   -1.3695940   -0.1738600  
O    -1.2840720   -2.3910560   -0.5326730  
C    -1.1270750   -0.2608590    0.5058050  
H    -0.5017920    2.2794460    1.9908150  
H    -2.7831280    3.6197400    2.4655540  
H    -4.7030510    2.3133090    1.4821010  
C    -6.9101210    2.9539380   -1.5014190  
C    -5.8020190    2.2757180   -1.1015840  
C    -6.2481470    1.0345420   -0.4973880  
C    -7.7276650    1.0468490   -0.5872370  
N    -8.0638550    2.2505400   -1.1813380  
C    -8.5443790    0.0407110   -0.1806090  
C    -7.9330910   -1.1459560    0.4001660  
O    -8.5717920   -2.1221660    0.7614950  
C    -6.3733540   -1.1566770    0.5875540  
O    -5.8706460   -2.0631350    1.2246240  
C    -5.5684400   -0.0245570    0.0471870  
H    -4.7784190    2.5884660   -1.2425760  
H    -9.6245340    0.0674380   -0.2860530  
H    -6.9842110    3.9083060   -2.0060280  
H    -8.9980680    2.5099670   -1.4573240  
