60


C    -2.4701420   -1.8177170   -0.0607770  
C    -2.7433220   -3.1649720    0.1170190  
C    -4.1560760   -3.3265000    0.0943040  
C    -4.7208840   -2.0361930   -0.1095020  
N    -3.6828230   -1.1254040   -0.1536750  
C    -6.0990100   -1.8251590   -0.2213340  
C    -6.9225370   -2.9343020   -0.1069630  
O    -8.2672720   -2.7887940   -0.2052420  
C    -6.3756980   -4.2341640    0.1203710  
O    -7.3338450   -5.2170530    0.2179540  
C    -5.0171890   -4.4399380    0.2246170  
H    -2.0026450   -3.9322250    0.2968580  
H    -3.7657150   -0.2179560   -0.5909450  
H    -6.5374880   -0.8464310   -0.3846170  
H    -8.6698020   -3.6687730   -0.0977080  
H    -6.9140520   -6.0784670    0.3617980  
H    -4.6182220   -5.4373860    0.3935340  
C    -1.2116130   -1.1355420   -0.0887990  
C     0.0520420   -1.6164110   -0.3583210  
C     0.9733840   -0.5292030   -0.2492100  
C     0.1782050    0.6581630    0.1267560  
N    -1.1443460    0.2437870    0.1506590  
C     0.6787100    1.8962550    0.4096080  
C     2.1349590    2.0688060    0.2446220  
O     2.7035990    3.1203940    0.4823190  
C     2.9976680    0.8559870   -0.2621350  
O     4.1818300    1.0403310   -0.4908950  
C     2.3323760   -0.4388280   -0.4433270  
H     0.2878620   -2.6294270   -0.6479930  
H    -1.8591070    0.7587930    0.6433020  
C     2.8597880   -2.2157040   -2.1113250  
C     3.7547540   -3.2154620   -2.3033070  
C     4.6408410   -3.2264790   -1.1592350  
C     4.1832110   -2.1286130   -0.2724150  
N     3.0835950   -1.5421650   -0.9032630  
C     4.7412480   -1.8383000    0.9278550  
C     5.8759980   -2.6417020    1.3797330  
O     6.4284510   -2.4631450    2.4544040  
C     6.3920360   -3.7944370    0.4435690  
O     7.3418920   -4.4719130    0.8049470  
C     5.6943400   -4.0170090   -0.8243060  
H     3.8070750   -3.8730190   -3.1591220  
H     4.3994190   -1.0331500    1.5677280  
H     6.0438140   -4.8268250   -1.4576940  
H     2.0524390   -1.8817060   -2.7494020  
C    -0.9216700    3.0411170    2.0030800  
C    -0.1492750    3.0173840    0.8773800  
C    -0.3059560    4.3295550    0.2460950  
C    -1.2401560    5.0974240    1.1032090  
N    -1.5933050    4.2491740    2.1387110  
C    -1.6372240    6.3724080    0.8636780  
C    -1.1296550    7.0420640   -0.3307700  
O    -1.4346490    8.1845320   -0.6354040  
C    -0.1565680    6.2378530   -1.2684050  
O     0.2559870    6.7670200   -2.2869050  
C     0.2127900    4.8682230   -0.8849120  
H    -2.3180260    6.9183290    1.5096380  
H     0.9094840    4.3374790   -1.5246640  
H    -1.0329640    2.2760860    2.7616040  
H    -2.1041160    4.5343620    2.9601040  
