64


C     2.8177130   -0.1362660   -0.3427830  
C     2.6606240   -1.5030030   -0.4500900  
C     3.9645700   -2.0849680   -0.5605850  
C     4.9012610   -1.0170580   -0.5132420  
N     4.1825070    0.1525120   -0.3461460  
C     6.2822910   -1.2181960   -0.6089570  
C     6.7323260   -2.5232120   -0.7480180  
O     8.0718040   -2.7748450   -0.8499310  
C     5.8134480   -3.6044010   -0.7820690  
O     6.4141730   -4.8441770   -0.9161500  
C     4.4485780   -3.4027320   -0.6879650  
H     1.7134440   -2.0235570   -0.3984830  
H     4.5495360    1.0784300   -0.5076670  
H     7.0006150   -0.4050130   -0.5789020  
H     8.1745200   -3.7378460   -0.9397490  
H     5.7304570   -5.5293030   -0.9476910  
H     3.7645070   -4.2488360   -0.7193060  
C     0.5899770    0.9132830   -0.8342300  
C     1.8247240    0.9163760   -0.2319860  
C     1.9065310    2.1482280    0.5265470  
C     0.6885420    2.8435980    0.3357140  
N    -0.1130250    2.0666440   -0.5068730  
C     0.4078160    4.0554990    0.9743330  
C     1.3816890    4.5810770    1.8111720  
O     1.1564800    5.7654560    2.4510250  
C     2.6057040    3.8963340    2.0169440  
O     3.4691400    4.5368120    2.8850250  
C     2.8748590    2.6918220    1.3909890  
H    -0.5212760    4.5930530    0.8355260  
H     1.9382080    5.9490910    2.9998820  
H     4.2433280    3.9766540    3.0433080  
H     3.8041610    2.1631870    1.5912980  
H     0.1614720    0.1906440   -1.5112240  
C    -3.6058290   -0.5062910   -0.2355510  
C    -4.5565480    0.3383170   -0.7724840  
C    -3.8906850    1.5552360   -1.1099330  
C    -2.4625920    1.3247810   -0.7223120  
N    -2.3101020    0.1377520   -0.2203160  
C    -1.4363170    2.3309320   -0.9100440  
C    -1.8392590    3.5050440   -1.4766230  
O    -1.0215890    4.5279620   -1.7377700  
C    -3.2776830    3.7709080   -1.8596910  
O    -3.5019090    4.8799490   -2.3601650  
C    -4.2799750    2.7423690   -1.6547310  
H    -5.6012080    0.1401190   -0.9420120  
H    -1.6127550    5.2153550   -2.1320420  
H    -5.2995460    2.9658010   -1.9506270  
C    -7.0309230   -3.3896430    0.4295620  
C    -6.2911130   -2.2697540    0.1264940  
C    -4.9145830   -2.5789810    0.3775420  
C    -4.8881620   -3.9163570    0.8426130  
N    -6.1851680   -4.3846040    0.8572310  
C    -3.7156540   -4.5821710    1.2238750  
C    -2.5289090   -3.8794000    1.1419420  
O    -1.3584820   -4.4687210    1.5084290  
C    -2.4964610   -2.5359470    0.6760310  
O    -1.2473910   -2.0175450    0.6632030  
C    -3.6779380   -1.8516690    0.2695960  
H    -6.7147720   -1.3381640   -0.2114290  
H    -6.4659580   -5.3067300    1.1524680  
H    -3.7120310   -5.6063820    1.5833620  
H    -0.6643400   -3.7924030    1.4003120  
H    -1.3161160   -1.0587820    0.3690900  
H    -8.0976670   -3.5530920    0.3749030  
