62


C    -5.0033420    1.6124100   -2.4771840  
C    -6.2562140    2.1281780   -2.3077380  
C    -6.6156580    1.9346270   -0.9295520  
C    -5.5241280    1.2871230   -0.2998520  
N    -4.5381840    1.0893010   -1.2678610  
C    -5.5156650    0.9713890    1.0643500  
C    -6.6437030    1.2975690    1.8021510  
O    -6.6888460    1.0085660    3.1340350  
C    -7.7535610    1.9344570    1.1856500  
O    -8.7979130    2.1933990    2.0514230  
C    -7.7501360    2.2563510   -0.1589600  
H    -6.8616740    2.5858920   -3.0781700  
H    -4.6764100    0.4914960    1.5550760  
H    -7.5547710    1.3031210    3.4651910  
H    -9.5276700    2.6060890    1.5663790  
H    -8.6075310    2.7532510   -0.6086180  
H    -4.3853640    1.5353490   -3.3603990  
C    -2.0705740    1.0748410   -1.3062450  
C    -3.2816970    0.4981990   -1.0738370  
C    -3.0346570   -0.8789570   -0.6635400  
C    -1.5743220   -1.0402170   -0.6537990  
N    -1.0459940    0.1709040   -1.0304910  
C    -0.9050430   -2.2116380   -0.3377850  
C    -1.7636470   -3.3957700   -0.1252550  
O    -1.3251070   -4.5331310    0.0000580  
C    -3.3231040   -3.2142600   -0.0607400  
O    -4.0031980   -4.1875160    0.2221400  
C    -3.8823210   -1.9021030   -0.3614210  
H    -4.9603390   -1.7846210   -0.3428580  
H    -1.8454510    2.0779990   -1.6401520  
H    -0.0858030    0.2826020   -1.3234780  
C     0.5313710   -2.3137790   -0.2488360  
C     1.4980240   -1.3211880   -0.1074760  
C     2.7761970   -1.9468780   -0.0096700  
C     2.5215010   -3.3986280   -0.0927920  
N     1.1661900   -3.5485480   -0.2669580  
C     3.4671300   -4.3765080   -0.0124100  
C     4.8356420   -3.9753990    0.2113690  
O     5.7802120   -4.7487070    0.2879730  
C     5.1376550   -2.4406140    0.3872020  
O     6.2784990   -2.1404350    0.7220680  
C     4.0641120   -1.4383610    0.1556880  
H     1.3027930   -0.2768610    0.0741770  
H     3.2378990   -5.4329530   -0.1034360  
H     0.6339540   -4.4105650   -0.2340550  
C     4.3923130   -0.0351110    0.1245740  
C     3.6643090    1.0713950   -0.3381220  
C     4.4700440    2.2235230   -0.1752720  
C     5.7051420    1.7865860    0.3961270  
N     5.6242910    0.4318600    0.5640010  
C     6.7507280    2.6687470    0.6927590  
C     6.5526940    4.0103100    0.4088770  
O     7.5338660    4.9123290    0.6749680  
C     5.3256300    4.4663090   -0.1638950  
O     5.2967270    5.8286560   -0.3811250  
C     4.2957020    3.5996900   -0.4559270  
H     2.6908350    1.0370160   -0.8016580  
H     6.3451840   -0.2120130    0.8698700  
H     7.6902480    2.3425720    1.1255870  
H     7.2071540    5.7888170    0.4062530  
H     4.4465600    6.0793400   -0.7717630  
H     3.3698150    3.9698110   -0.8917120  
