62


C     2.7907690   -0.9465440   -2.0416960  
C     3.7370400   -0.2341040   -1.3439490  
C     3.0594230    0.4512000   -0.2732860  
C     1.6917240    0.1016300   -0.3740070  
N     1.5582030   -0.7530150   -1.4511830  
C     0.6993810    0.6013720    0.4968810  
C     1.1417150    1.4856400    1.4820310  
O     0.2506910    2.0003280    2.3780300  
C     2.5110750    1.8481440    1.5885420  
O     2.7659770    2.7289210    2.6208510  
C     3.4715890    1.3440940    0.7342650  
H     0.6735160   -1.0502480   -1.8332240  
H     0.7498220    2.5866310    2.9737720  
H     3.7179460    2.9002540    2.6750300  
H     4.5155230    1.6294380    0.8344720  
H     2.9085260   -1.5865060   -2.9039350  
C    -1.1904840   -1.0804860    0.3574900  
C    -0.7128920    0.1975520    0.3765650  
C    -1.8776460    1.0690330    0.2190250  
C    -3.0587470    0.1823930    0.1188770  
N    -2.5728180   -1.1060890    0.2104200  
C    -4.3476860    0.6005370   -0.0645090  
C    -4.5661720    2.0610420   -0.1304940  
O    -5.6773660    2.5584090   -0.1788770  
C    -3.3164650    3.0119270   -0.0778520  
O    -3.4898420    4.2140290   -0.1972710  
C    -1.9932510    2.4178940    0.1222680  
H    -1.1397050    3.0833540    0.1847670  
H    -0.6421320   -2.0077530    0.4638410  
H    -3.1461210   -1.9344480    0.1792610  
C    -6.0651630   -2.5607040    2.5745640  
C    -5.2989540   -1.5689260    2.0494420  
C    -5.8545380   -1.2340660    0.7516460  
C    -7.0268870   -2.1232660    0.5678560  
N    -7.0822280   -2.9189670    1.6981820  
C    -7.8633080   -2.1012980   -0.5018380  
C    -7.5919460   -1.1436260   -1.5645520  
O    -8.3009190   -1.0164560   -2.5508120  
C    -6.3069560   -0.2476060   -1.4413890  
O    -5.9713910    0.4223710   -2.4000610  
C    -5.4998850   -0.3048070   -0.1907090  
H    -4.4533490   -1.0956460    2.5254330  
H    -8.7323240   -2.7452710   -0.5952250  
H    -5.9768050   -3.0620930    3.5294300  
H    -7.8253380   -3.5681260    1.9043530  
C     5.6403920    0.2862500   -2.8614950  
C     7.0062980    0.2155610   -2.8299930  
C     7.3727390   -0.2988780   -1.5404730  
C     6.1674510   -0.5279830   -0.8272660  
N     5.1103110   -0.1598860   -1.6541260  
C     6.1461180   -1.0566090    0.4702580  
C     7.3654750   -1.3425850    1.0647130  
O     7.4026270   -1.8553610    2.3321910  
C     8.5817930   -1.1097400    0.3710780  
O     9.7128160   -1.4416150    1.0969490  
C     8.5985050   -0.5983680   -0.9135280  
H     7.6752980    0.5044300   -3.6292440  
H     5.2248140   -1.2481520    1.0087490  
H     8.3387310   -2.0002980    2.5526870  
H    10.4987930   -1.2944910    0.5506120  
H     9.5437040   -0.4344390   -1.4280960  
H     4.9710230    0.6360420   -3.6345130  
