64


C    -1.8621990   -0.3868010    0.2845690  
C    -3.2089700   -0.2846200    0.0201300  
C    -3.5002390    1.1311230   -0.0430180  
C    -2.2931470    1.8274450    0.2022320  
N    -1.2879600    0.8790660    0.3953050  
C    -2.2135290    3.2247700    0.2036750  
C    -3.3832500    3.9287780   -0.0328450  
O    -3.3663830    5.2929740   -0.0400850  
C    -4.6054380    3.2451720   -0.2711220  
O    -5.6812630    4.0847620   -0.4931780  
C    -4.6773740    1.8661330   -0.2771890  
H    -1.2951030    3.7621870    0.4061180  
H    -4.2785720    5.5902930   -0.1999750  
H    -6.4813660    3.5528440   -0.6157210  
H    -5.6142400    1.3578780   -0.4862000  
H    -1.2493770   -1.2679750    0.4171440  
C     2.0079260   -0.4494870   -2.0568070  
C     3.0589480    0.0411520   -1.3374270  
C     2.4752020    0.7436530   -0.1956150  
C     1.0073120    0.6049250   -0.3268110  
N     0.7862880   -0.1204310   -1.4722110  
C     0.0939690    1.1187840    0.5513710  
C     0.6033790    1.8618830    1.7126120  
O    -0.1172740    2.3119510    2.5872890  
C     2.1622260    2.0716770    1.8252990  
O     2.5882370    2.7391520    2.7546540  
C     3.0298860    1.4591740    0.8196630  
H     4.1008370    1.6015940    0.9164690  
H     2.0297200   -1.0363160   -2.9653400  
H    -0.1276610   -0.3710160   -1.8190950  
C     5.0308820    0.1679910   -2.9108030  
C     4.4784460   -0.0743970   -1.6713970  
C     5.5688250   -0.4866250   -0.8132590  
C     6.7479060   -0.4718560   -1.6005380  
N     6.3864670   -0.0773730   -2.8744440  
C     8.0040310   -0.8267450   -1.0927940  
C     8.0713540   -1.2074740    0.2378120  
O     9.2703700   -1.5555640    0.7870000  
C     6.8988100   -1.2421650    1.0396620  
O     7.1258000   -1.6555610    2.3384150  
C     5.6601830   -0.8963510    0.5329930  
H     7.0243220    0.0708760   -3.6406040  
H     8.9080620   -0.8110720   -1.6929870  
H     9.1070710   -1.7658660    1.7228090  
H     6.3178970   -1.5432650    2.8609700  
H     4.7771160   -0.9409430    1.1657120  
H     4.5556120    0.5228250   -3.8145470  
C    -3.8601240   -3.6695600    2.7469950  
C    -4.8165010   -4.3296630    2.0193590  
C    -5.0491720   -3.5583180    0.8306790  
C    -4.1871940   -2.4329680    0.8922930  
N    -3.4656220   -2.5345400    2.0644910  
C    -4.1415920   -1.4216130   -0.0923450  
C    -5.0212180   -1.5842570   -1.1640080  
O    -5.0433350   -0.6634180   -2.1786480  
C    -5.8904990   -2.7027760   -1.2425990  
O    -6.6877430   -2.7047640   -2.3766030  
C    -5.9138640   -3.6877240   -0.2740300  
H    -5.2994360   -5.2567480    2.2967010  
H    -2.8559510   -1.8113130    2.4154020  
H    -5.6933370   -0.9813660   -2.8292850  
H    -7.2094590   -3.5202430   -2.3989400  
H    -6.5928460   -4.5337340   -0.3619990  
H    -3.4146290   -3.9175020    3.7002160  
