62


C    -3.0936370   -0.9338800   -1.9981010  
C    -4.4153360   -1.2741460   -2.0609410  
C    -4.6875180   -2.1331850   -0.9425700  
C    -3.4736750   -2.2847470   -0.2259320  
N    -2.4977440   -1.5432690   -0.8911360  
C    -3.3828060   -3.0357420    0.9513470  
C    -4.5352880   -3.6592640    1.4031110  
O    -4.4996200   -4.4102470    2.5450440  
C    -5.7569280   -3.5281440    0.6930290  
O    -6.8155010   -4.2092480    1.2676150  
C    -5.8451750   -2.7768690   -0.4641970  
H    -5.1150330   -0.9539480   -2.8208510  
H    -2.4578700   -3.1526330    1.5027890  
H    -5.3974930   -4.7561130    2.6864910  
H    -7.6119700   -4.0724790    0.7339210  
H    -6.7941180   -2.6810110   -0.9886050  
H    -2.4932990   -0.3289960   -2.6628420  
C    -0.4210720    2.1765900    0.0064870  
C     0.8164830    1.5972770    0.3020680  
C     0.6866400    0.1918010    0.1643600  
C    -0.6593570   -0.0535460   -0.2326150  
N    -1.3003790    1.1511880   -0.3112710  
C    -1.1580350   -1.3426930   -0.4907580  
C    -0.2588250   -2.4014720   -0.3431220  
O    -0.6707570   -3.6733640   -0.5712800  
C     1.0816730   -2.1694630    0.0620850  
O     1.8158340   -3.3376420    0.1782860  
C     1.5968390   -0.8984470    0.3100790  
H     1.7275690    2.1310980    0.5192010  
H    -2.2449990    1.3307330   -0.6317430  
H     0.0769380   -4.2589880   -0.3536610  
H     2.5656100   -3.1886510    0.7756220  
C     1.3173990    5.9252330    1.7055040  
C     1.0344340    4.6232910    1.4288880  
C    -0.1146310    4.5998810    0.5533610  
C    -0.4936220    6.0126060    0.3499280  
N     0.4282090    6.7645420    1.0500300  
C    -1.5462710    6.4576350   -0.3932470  
C    -2.3953570    5.4686750   -1.0148930  
O    -3.3612600    5.7300690   -1.7179720  
C    -2.0668510    3.9491990   -0.7605570  
O    -2.8814900    3.1324100   -1.1696280  
C    -0.8213250    3.5663840   -0.0399860  
H     1.5532630    3.7715050    1.8366690  
H    -1.7720160    7.5088630   -0.5402810  
H     2.0931270    6.3409750    2.3343210  
H     0.3996530    7.7683630    1.1354390  
C     3.4612660    0.1666550    1.6794430  
C     2.9856830   -0.6865820    0.7239590  
C     4.2170680   -1.2654990    0.1306630  
C     5.3282120   -0.6290280    0.8956240  
N     4.8738150    0.1988300    1.7975140  
C     6.7070540   -0.9281630    0.6163230  
C     6.9793850   -1.7884870   -0.3950130  
O     8.2190280   -2.1488390   -0.7669770  
C     5.8850240   -2.4224080   -1.2033000  
O     6.2071480   -3.1934260   -2.1059320  
C     4.4725210   -2.1126630   -0.8863810  
H     7.4910640   -0.4573030    1.1990780  
H     8.0966530   -2.7705720   -1.5175400  
H     3.7126190   -2.6002160   -1.4881820  
H     2.8721000    0.7878130    2.3431060  
