64


C     4.3339510    0.3553260   -0.0494860  
C     5.4271270    1.1467820   -0.4018140  
C     6.5839200    0.3179920   -0.3969230  
C     6.1533250   -0.9890860   -0.0298150  
N     4.7982440   -0.9331890    0.1774070  
C     7.0353760   -2.0726480    0.0714330  
C     8.3717560   -1.8353360   -0.2052060  
O     9.2739790   -2.8524400   -0.1246270  
C     8.8207100   -0.5341640   -0.5760950  
O    10.1792180   -0.4677400   -0.8157660  
C     7.9524450    0.5330550   -0.6737380  
H     5.3862830    2.1770520   -0.7258970  
H     4.1757940   -1.7121540    0.3396490  
H     6.7128380   -3.0704040    0.3496030  
H    10.1442190   -2.4878460   -0.3622210  
H    10.4166560    0.4291060   -1.0941230  
H     8.3180520    1.5176270   -0.9585860  
C     2.4481880    4.2314020    0.7702040  
C     1.1382540    3.8369700    0.6382900  
C     1.1399070    2.4365450    0.3372020  
C     2.4940950    2.0378000    0.2889160  
N     3.2671450    3.1525980    0.5372340  
C     2.9304750    0.7019730    0.0761030  
C     1.8993220   -0.2444900    0.0105850  
O     2.1904940   -1.5767510   -0.1296380  
C     0.5307940    0.1077340    0.0446360  
O    -0.2870120   -0.9598360   -0.0783870  
C     0.1006330    1.4604490    0.1580820  
H     0.2848850    4.4786830    0.7867680  
H     4.2576700    3.1164650    0.7234950  
H     1.3276840   -2.0322160   -0.1902860  
H    -1.2398940   -0.6288020   -0.0258560  
H     2.8635570    5.1994370    1.0112300  
C    -1.2904280    1.7927190    0.0912830  
C    -1.9551020    3.0041180    0.0322830  
C    -3.3445620    2.7063130   -0.0447340  
C    -3.4228440    1.2071680   -0.0053150  
N    -2.2298880    0.6965630    0.0571970  
C    -4.6824400    0.4763140   -0.0662690  
C    -5.7732400    1.2765280   -0.2238380  
O    -7.0331770    0.8010760   -0.3534830  
C    -5.7398820    2.7853330   -0.2749340  
O    -6.8425070    3.3402080   -0.4065550  
C    -4.4736280    3.4661820   -0.1685910  
H    -1.5264690    3.9915480   -0.0173530  
H    -7.5819610    1.6246480   -0.4370370  
H    -4.4696990    4.5502520   -0.2104300  
C    -2.9632460   -2.5913750    2.7630750  
C    -3.3286560   -1.4184840    2.1577470  
C    -4.0765880   -1.7594380    0.9779330  
C    -4.1381830   -3.1781910    0.9320080  
N    -3.4421500   -3.6567470    2.0225910  
C    -4.8247740   -3.8863190   -0.0609710  
C    -5.4873870   -3.1380810   -1.0187980  
O    -6.1942400   -3.7549870   -2.0065310  
C    -5.4531570   -1.7179470   -0.9970200  
O    -6.1424110   -1.1271830   -2.0401450  
C    -4.7362930   -1.0036750   -0.0321810  
H    -3.0865220   -0.4272860    2.5102830  
H    -3.3448690   -4.6294700    2.2664690  
H    -4.8694840   -4.9703340   -0.0904520  
H    -6.5773360   -3.0323330   -2.5396240  
H    -6.7248500   -0.4346270   -1.6658820  
H    -2.3939530   -2.7615250    3.6659930  
