64


C     3.9830720   -0.4963730   -2.0854690  
C     4.7089940   -1.6275820   -2.3235230  
C     5.6812490   -1.7409450   -1.2712930  
C     5.4998250   -0.6280170   -0.4123090  
N     4.4502350    0.1339210   -0.9301840  
C     6.2626900   -0.4403040    0.7454400  
C     7.2364930   -1.3853680    1.0318930  
O     8.0111720   -1.2440440    2.1490510  
C     7.4391160   -2.4991440    0.1780720  
O     8.4460080   -3.3514800    0.5950740  
C     6.6763730   -2.6863930   -0.9605300  
H     4.5696150   -2.3054670   -3.1546970  
H     6.1304350    0.4054570    1.4086120  
H     8.6252640   -1.9978480    2.1679980  
H     8.5309240   -4.0804800   -0.0367220  
H     6.8404670   -3.5537340   -1.5973810  
H     3.1678990   -0.0567580   -2.6401620  
C     0.3263150    1.0623420    0.1151720  
C     0.4959180    2.3460720    0.5978320  
C     1.8835540    2.6509540    0.4899300  
C     2.4968180    1.4188280   -0.1066180  
N     1.5935120    0.5082180   -0.3110520  
C     3.9135350    1.3182470   -0.3876510  
C     4.6651940    2.4154570   -0.0831430  
O     5.9789120    2.5006060   -0.2911340  
C     4.0753770    3.6636570    0.5467600  
O     4.8810630    4.5744930    0.7742310  
C     2.6549270    3.7289790    0.8140810  
H    -0.2486940    2.9923890    1.0314180  
H     6.2191100    3.4000600    0.0429780  
H     2.2644240    4.6378310    1.2594180  
C    -4.0961590    1.8278360    0.6338450  
C    -2.7346290    1.9889800    0.5357910  
C    -2.1705650    0.7090280    0.2300810  
C    -3.2554910   -0.1937870    0.1446560  
N    -4.4273450    0.5049130    0.4029010  
C    -3.1109470   -1.5453110   -0.1954780  
C    -1.8351570   -2.0030580   -0.4625430  
O    -1.6330330   -3.3043680   -0.8067200  
C    -0.7075220   -1.1401100   -0.3850840  
O     0.4537810   -1.7647140   -0.6735950  
C    -0.8365110    0.2300910   -0.0156150  
H    -2.2234980    2.9310380    0.6529690  
H    -3.9553470   -2.2220860   -0.2539450  
H    -0.6724530   -3.4078500   -0.9383170  
H     1.1910940   -1.0832200   -0.6339550  
H    -4.8695490    2.5422560    0.8778130  
C    -7.6978020    1.4935530   -2.3005110  
C    -8.6395770    0.6662580   -1.7465530  
C    -8.0122150   -0.0155600   -0.6490700  
C    -6.6746880    0.4522520   -0.5910490  
N    -6.5093140    1.3720310   -1.6020220  
C    -5.7529300   -0.0076690    0.3667740  
C    -6.1939490   -0.9614320    1.2815620  
O    -5.3455740   -1.4345360    2.2346060  
C    -7.5281320   -1.4442820    1.2206400  
O    -7.8092190   -2.3892570    2.1886820  
C    -8.4335910   -0.9854700    0.2826380  
H    -9.6618280    0.5540300   -2.0803760  
H    -5.6430700    1.8406690   -1.8188130  
H    -5.8409340   -2.0865370    2.7608420  
H    -8.7356040   -2.6625850    2.1174150  
H    -9.4495770   -1.3742920    0.2640550  
H    -7.7706830    2.1695690   -3.1405830  
