64


C    -2.0402840   -0.8045120   -2.9659970  
C    -0.9683600   -0.9671070   -2.1259110  
C    -1.4261090   -0.6599390   -0.8017460  
C    -2.8033890   -0.3230650   -0.9037780  
N    -3.1408660   -0.4057490   -2.2374470  
C    -3.6109820    0.0540420    0.1953380  
C    -2.9406170    0.0916400    1.4169690  
O    -3.6120610    0.4901050    2.5591880  
C    -1.5736070   -0.2450830    1.5495840  
O    -1.0991140   -0.1405980    2.8424030  
C    -0.7882190   -0.6322500    0.4647370  
H     0.0312290   -1.2601770   -2.4122040  
H    -4.0801210   -0.2974400   -2.5904800  
H    -2.9630410    0.4714530    3.2869300  
H    -0.1301750   -0.2266480    2.8284900  
H    -2.1113970   -0.9360670   -4.0365810  
C     2.9764170    1.3455250   -0.9715760  
C     1.6805190    1.0063110   -0.7334110  
C     1.6893460   -0.1922410    0.0638940  
C     3.0416530   -0.5546100    0.2707690  
N     3.8358410    0.4034570   -0.3848180  
C     3.4111150   -1.6316620    1.0824320  
C     2.3938090   -2.3812500    1.6533120  
O     2.7028140   -3.4572170    2.4308720  
C     1.0338210   -2.0471740    1.4367950  
O     0.1398670   -2.8908870    2.0554100  
C     0.6525810   -0.9547130    0.6541420  
H     0.8081090    1.5267100   -1.1014810  
H     4.4388130   -1.9204270    1.2581470  
H     1.8636800   -3.8748050    2.6925300  
H    -0.7554460   -2.6858180    1.7330100  
H     3.3967900    2.1489490   -1.5573940  
C    -7.0468190   -2.0000090   -1.8720180  
C    -5.8297350   -1.7076360   -1.3118590  
C    -5.9380660   -0.4046930   -0.7058450  
C    -7.2700030    0.0361110   -0.9291280  
N    -7.9147520   -0.9484160   -1.6505520  
C    -7.7663870    1.2518850   -0.4448640  
C    -6.8966140    2.0259770    0.3040700  
O    -7.3102330    3.2114380    0.8299810  
C    -5.5562470    1.6142340    0.5425070  
O    -4.8205410    2.5207620    1.2776330  
C    -5.0401450    0.4224870    0.0295190  
H    -4.9668460   -2.3577760   -1.3061650  
H    -8.8824310   -0.9210360   -1.9307910  
H    -8.7858260    1.5842310   -0.6121160  
H    -6.5433430    3.5552080    1.3273260  
H    -4.3195520    2.0159130    1.9546730  
H    -7.3737080   -2.8798080   -2.4081410  
C     6.6549190    3.7579260    0.1766170  
C     5.4954010    3.0559450    0.1322180  
C     5.8894860    1.6975360   -0.2292890  
C     7.3650890    1.7753390   -0.3696720  
N     7.8092930    2.9793930   -0.1297270  
C     8.1689480    0.6250360   -0.7029830  
C     7.5369450   -0.5546100   -0.8891840  
O     8.1614220   -1.7074690   -1.1943920  
C     6.0455020   -0.6805730   -0.7813580  
O     5.5465840   -1.7695210   -1.0458720  
C     5.2263790    0.5213750   -0.4026860  
H     4.4955210    3.4053300    0.3447180  
H     9.2450000    0.7242650   -0.7913320  
H     7.4498600   -2.3719760   -1.3144760  
H     6.7882910    4.8047660    0.4217940  
