62


C     2.1446870   -0.4003290    0.6751870  
C     3.4704300   -0.1664110    0.4002600  
C     3.5714670    1.2271630    0.0077900  
C     2.2765030    1.7892090    0.0604420  
N     1.4184390    0.7766810    0.4829480  
C     1.9964270    3.1166280   -0.2748660  
C     3.0664670    3.9018430   -0.6768460  
O     2.8626740    5.2058180   -1.0142300  
C     4.3784720    3.3593680   -0.7385020  
O     5.3336010    4.2665530   -1.1528300  
C     4.6404550    2.0441360   -0.4066380  
H     0.9975640    3.5366550   -0.2367770  
H     3.7254450    5.5755560   -1.2707740  
H     6.2010040    3.8357430   -1.1735000  
H     5.6526190    1.6528220   -0.4399130  
H     1.6454840   -1.2873040    1.0381910  
C    -0.5651040    1.2186570    1.8545000  
C    -1.9106670    1.1345110    1.7178300  
C    -2.1954810    0.7147040    0.3577720  
C    -0.8854440    0.5482430   -0.3052540  
N     0.0677010    0.9010520    0.6459090  
C    -0.6864280    0.1166390   -1.5757430  
C    -1.8615880   -0.2230650   -2.3607780  
O    -1.8115120   -0.6665810   -3.4973860  
C    -3.2797020   -0.0139090   -1.7076470  
O    -4.2635760   -0.2432820   -2.3887290  
C    -3.3747200    0.4695470   -0.3035690  
H    -2.6387350    1.3198730    2.4928510  
H     0.2969340    0.0134030   -2.0210230  
H     0.0445100    1.4791180    2.7087800  
C    -5.0165720    1.8622320    0.9885080  
C    -4.6874540    0.7344030    0.2864020  
C    -5.8902360   -0.1083880    0.2858050  
C    -6.9195420    0.6363400    1.0524360  
N    -6.3196600    1.8180460    1.4493540  
C    -8.1814550    0.1997380    1.2922610  
C    -8.5685970   -1.1109130    0.7811120  
O    -9.6788360   -1.5923740    0.9466370  
C    -7.4884000   -1.9349660   -0.0074710  
O    -7.7764150   -3.0469850   -0.4183030  
C    -6.1619610   -1.3377770   -0.2184820  
H    -8.9139320    0.7716750    1.8536890  
H    -5.4472250   -1.9077030   -0.7997610  
H    -4.4050760    2.7338800    1.1807590  
H    -6.7949600    2.5736210    1.9183260  
C     3.6210550   -4.2278880   -1.2930680  
C     4.8587230   -4.5874600   -0.8274380  
C     5.3734010   -3.4684880   -0.0894450  
C     4.3866240   -2.4496950   -0.1379030  
N     3.3252210   -2.9461240   -0.8674630  
C     4.5405250   -1.1800010    0.4622400  
C     5.7519990   -0.9668630    1.1229160  
O     5.9922800    0.2273560    1.7493060  
C     6.7496240   -1.9737350    1.1789750  
O     7.8840300   -1.5886140    1.8755360  
C     6.5784150   -3.2129880    0.5934220  
H     5.3478710   -5.5381280   -0.9897060  
H     2.5233650   -2.4017510   -1.1458470  
H     6.8534570    0.1393410    2.1944600  
H     8.4660900   -2.3542770    1.9887170  
H     7.3624200   -3.9653730    0.6518980  
H     2.9117580   -4.7827910   -1.8908780  
