60


C     4.9800140    1.8479450    2.3565570  
C     6.0719050    1.9860770    1.5410300  
C     5.9564010    0.9958030    0.5065050  
C     4.7541140    0.2825260    0.7478140  
N     4.1695730    0.8351120    1.8719560  
C     4.3135590   -0.7951790   -0.0508010  
C     5.1364680   -1.1374370   -1.1260060  
O     4.7594250   -2.1346710   -1.9710160  
C     6.3411680   -0.4323690   -1.3818970  
O     7.0260590   -0.8911270   -2.4932920  
C     6.7564750    0.6218530   -0.5907850  
H     6.8683440    2.7077380    1.6616880  
H     3.3758620    0.4421200    2.3537730  
H     5.4987030   -2.2881530   -2.5846880  
H     7.9085280   -0.4927420   -2.5136710  
H     7.6836360    1.1462280   -0.8137570  
H     4.6988410    2.3944150    3.2458170  
C     0.1414270    0.5868400    0.1381820  
C    -0.4673170   -0.6076540    0.4500590  
C     0.5524220   -1.6181620    0.5376730  
C     1.8355240   -0.9350910    0.2608410  
N     1.5231490    0.3884970    0.0365540  
C     3.0634710   -1.5338030    0.2297670  
C     3.0952750   -2.9802270    0.5355520  
O     4.1306120   -3.6149500    0.6339400  
C     1.7343150   -3.7321560    0.7883810  
O     1.7622490   -4.9379090    0.9855230  
C     0.4961410   -2.9574380    0.7866350  
H    -1.5222380   -0.7485190    0.6105970  
H    -0.4364050   -3.4836980    0.9662060  
H     2.1893100    1.1096710   -0.1973040  
C    -4.0500580    1.8787920   -0.0883580  
C    -3.9186940    3.2418760   -0.2177760  
C    -2.5108200    3.4736650   -0.2454810  
C    -1.8931970    2.1056540   -0.0987650  
N    -2.8118190    1.1865350   -0.0182310  
C    -0.4471620    1.9034540   -0.0601620  
C     0.2905960    3.0486930   -0.2330540  
O     1.6272650    3.0825220   -0.2542590  
C    -0.3081190    4.4279690   -0.4026960  
O     0.5036430    5.3509440   -0.5337110  
C    -1.7458350    4.5882730   -0.3919470  
H    -4.6899840    3.9886310   -0.3305460  
H     1.8520140    4.0385700   -0.3885590  
H    -2.1478990    5.5894480   -0.5054610  
C    -6.4685300    1.7411800    0.2339670  
C    -7.4512220    0.8173340    0.2952110  
C    -6.8511690   -0.4836180    0.0877420  
C    -5.4007290   -0.2500810   -0.1075170  
N    -5.2105410    1.1487820    0.0065480  
C    -4.5160570   -1.2358820   -0.3817840  
C    -5.0083600   -2.6209170   -0.4377520  
O    -4.2659320   -3.5630940   -0.6537240  
C    -6.5350570   -2.8854910   -0.2095890  
O    -6.9596870   -4.0274150   -0.2560150  
C    -7.3956250   -1.7250810    0.0442440  
H    -8.4984040    1.0135170    0.4770320  
H    -3.4643640   -1.0574810   -0.5549980  
H    -8.4579880   -1.9025640    0.1806310  
H    -6.5275120    2.8118660    0.3611600  
