64


C    -4.7997230    0.3134900   -0.0622050  
C    -4.0396470   -0.7666570    0.3655020  
C    -4.7554220   -1.9599030    0.0412090  
C    -5.9609820   -1.5563110   -0.5934590  
N    -5.9546810   -0.1818010   -0.6519860  
C    -6.9194940   -2.4735410   -1.0439980  
C    -6.6564700   -3.8201690   -0.8498350  
O    -7.5561570   -4.7578540   -1.2692210  
C    -5.4548990   -4.2416450   -0.2169380  
O    -5.3407440   -5.6150010   -0.0985790  
C    -4.5101240   -3.3366350    0.2259890  
H    -3.1212850   -0.7117220    0.9325050  
H    -6.7216770    0.4106360   -0.9328420  
H    -7.8415590   -2.1711000   -1.5296080  
H    -7.1877790   -5.6291170   -1.0426670  
H    -4.5026800   -5.8315890    0.3359730  
H    -3.5978110   -3.6830610    0.7079090  
C    -0.9508620    2.4637980    0.1416770  
C    -1.4762420    3.7417580    0.2445420  
C    -2.8972660    3.6330830    0.2232970  
C    -3.2075590    2.2505550    0.1180960  
N    -2.0128830    1.5596040    0.1066790  
C    -4.5257260    1.7465290    0.0229410  
C    -5.5304790    2.7233910    0.0079720  
O    -6.8455800    2.3548250   -0.1196420  
C    -5.2376260    4.1057680    0.1331510  
O    -6.3649570    4.9051170    0.1224150  
C    -3.9460650    4.5753730    0.2544200  
H    -0.8967620    4.6472130    0.3619800  
H    -1.9397600    0.6150880   -0.2451950  
H    -7.3764320    3.1701380   -0.0793610  
H    -6.1084700    5.8318510    0.2376590  
H    -3.7455630    5.6404090    0.3442660  
C     1.5181270    2.7380590   -0.3292800  
C     0.4215800    2.0327230    0.0807510  
C     0.9705360    0.7145560    0.4743020  
C     2.4255760    0.8203230    0.2043860  
N     2.7226510    2.0101050   -0.2479670  
C     3.3452350   -0.2922920    0.4639250  
C     2.7623960   -1.4168740    1.0100930  
O     3.4626730   -2.5488980    1.3130290  
C     1.3385560   -1.5278470    1.3241730  
O     0.9147690   -2.5887590    1.8137710  
C     0.4453740   -0.3845120    1.0445860  
H     2.7824960   -3.1577100    1.6823050  
H    -0.5962210   -0.4965790    1.3291300  
H     1.5442000    3.7501530   -0.7132110  
C     4.7535180   -0.1877440    0.1632220  
C     5.4823820    0.8651650   -0.3918000  
C     6.8350620    0.4519770   -0.4785980  
C     6.9028610   -0.8776310    0.0370800  
N     5.6374420   -1.2362270    0.4155260  
C     8.1013230   -1.6000330    0.1003240  
C     9.2474710   -0.9738240   -0.3618310  
O    10.4409530   -1.6271720   -0.3249880  
C     9.1996630    0.3554070   -0.8804140  
O    10.4301370    0.8266640   -1.2965430  
C     8.0218520    1.0662580   -0.9432750  
H     5.0563860    1.8113920   -0.6846160  
H     5.3470640   -2.1167920    0.8155610  
H     8.1611270   -2.6106340    0.4903420  
H    11.1123030   -1.0242650   -0.6895100  
H    10.3328050    1.7284510   -1.6364380  
H     8.0056080    2.0785130   -1.3419130  
