60


C     1.9701870   -1.9714530    0.1115180  
C     3.0593480   -1.1207460    0.2904750  
C     4.2381170   -1.9051550    0.2211830  
C     3.8308950   -3.2542700    0.0049210  
N     2.4616420   -3.2656040   -0.0559720  
C     4.7492390   -4.3055190   -0.1147380  
C     6.0946590   -3.9882380   -0.0188440  
O     7.0332810   -4.9676420   -0.1304520  
C     6.5196780   -2.6417340    0.1920450  
O     7.8921340   -2.5029460    0.2573890  
C     5.6174980   -1.6082770    0.3130530  
H     2.9868950   -0.0612380    0.4659480  
H     1.8675740   -4.0723790   -0.1765280  
H     4.4504650   -5.3352510   -0.2803250  
H     7.9050230   -4.5420450   -0.0511020  
H     8.1189580   -1.5644190    0.3381720  
H     5.9574460   -0.5859800    0.4646940  
C    -0.1595080    1.8653400    0.1347330  
C    -1.4682390    1.4355340    0.1644530  
C    -1.4169980    0.0086210    0.1627980  
C     0.0495410   -0.3109950    0.1249350  
N     0.7647060    0.7763810    0.1069270  
C     0.5540120   -1.6827420    0.0898350  
C    -0.4278190   -2.6421440    0.0164090  
O    -0.1556000   -3.9676970   -0.0343050  
C    -1.8875300   -2.3702890    0.0535810  
O    -2.6275400   -3.3587110    0.0797650  
C    -2.3818220   -0.9701440    0.1176620  
H    -2.3621310    2.0405380    0.1328250  
H    -1.0460800   -4.3957580   -0.0305810  
C    -0.3797640    4.3548760    0.3250010  
C     0.3558220    3.2078160    0.1273860  
C     1.7428540    3.6466640   -0.0743070  
C     1.7306630    5.1247960    0.0327130  
N     0.4100060    5.4779000    0.2675730  
C     2.8164140    5.9272120   -0.0867450  
C     4.1121920    5.2991790   -0.3400850  
O     5.1475780    5.9340190   -0.4612190  
C     4.1540200    3.7335020   -0.4599370  
O     5.2270710    3.1834160   -0.6471490  
C     2.8971820    2.9821760   -0.3311260  
H     2.7737690    7.0092330   -0.0087000  
H     2.9276160    1.9056600   -0.4368660  
H    -1.4394640    4.4504860    0.5209510  
H     0.0843480    6.4226420    0.4075840  
C    -3.8051410   -0.7023480    0.1461850  
C    -4.4534520    0.2984320    0.8282540  
C    -5.8550810    0.1374780    0.5241970  
C    -5.8933180   -1.0359130   -0.4064330  
N    -4.7085260   -1.5265190   -0.6177560  
C    -7.1339020   -1.5090790   -0.9671870  
C    -8.2718140   -0.8708140   -0.6061860  
O    -9.4957760   -1.2050000   -1.0409390  
C    -8.2654400    0.3041100    0.3429830  
O    -9.3519550    0.8206910    0.6085400  
C    -6.9901340    0.7782840    0.8925330  
H    -4.0208180    1.0126450    1.5140710  
H    -7.1354920   -2.3559850   -1.6441240  
H   -10.1061190   -0.5670850   -0.6073750  
H    -7.0244940    1.6298350    1.5653250  
