60


C     3.3456440   -4.3392890   -0.0631430  
C     3.0651390   -2.9931860    0.0077080  
C     4.3080930   -2.2871120   -0.0845430  
C     5.3163200   -3.2737030   -0.2020190  
N     4.7022970   -4.5083720   -0.1925760  
C     6.6846490   -2.9798120   -0.2872630  
C     7.0574340   -1.6501670   -0.2422720  
O     8.3705370   -1.3041530   -0.3108310  
C     6.0868430   -0.6170210   -0.1245510  
O     6.6270800    0.6170800   -0.0949650  
C     4.6904290   -0.8995660   -0.0627620  
H     2.0749960   -2.5863720    0.1348710  
H     5.1782610   -5.3941470   -0.2673440  
H     7.4450390   -3.7491620   -0.3778080  
H     8.4032740   -0.3306000   -0.2664020  
H     5.8689860    1.2770310    0.0096440  
H     2.6803050   -5.1901620   -0.0326550  
C     3.7416850    0.1745350   -0.0010060  
C     2.3524300    0.1774790   -0.0575070  
C     1.9388670    1.5373230    0.0318760  
C     3.2146810    2.3127970    0.1387490  
N     4.2459000    1.5106150    0.1223590  
C     3.2481540    3.7396660    0.2228650  
C     2.0521610    4.3779460    0.2006110  
O     1.9091690    5.6982530    0.2679160  
C     0.7245190    3.6332140    0.1410160  
O    -0.2777470    4.3372230    0.2613500  
C     0.7118850    2.1695060    0.0206820  
H     1.7104480   -0.6605830   -0.2695370  
H     4.1897600    4.2724690    0.2913500  
H     0.9323750    5.8475790    0.2726850  
C    -0.9285160   -1.2262720    2.2954400  
C    -2.1664380   -1.3002370    1.7380650  
C    -2.2541190   -0.2539900    0.7441970  
C    -0.9445600    0.4373450    0.7624610  
N    -0.1992530   -0.1799980    1.7488650  
C    -0.5861060    1.4919640   -0.0371650  
C    -1.5835210    1.9035710   -1.0498760  
O    -1.3277010    2.6824480   -1.9495930  
C    -3.0164400    1.2758920   -0.9994620  
O    -3.8946020    1.7848500   -1.6737270  
C    -3.2640380    0.1237920   -0.1062060  
H    -2.9461420   -1.9988180    1.9996590  
H    -0.4884800   -1.8396000    3.0707490  
H     0.7940120   -0.0367640    1.8701700  
C    -6.5556280   -0.7408490    2.8355620  
C    -5.3728670   -0.3254090    2.3202280  
C    -5.4282100   -0.6808370    0.9065250  
C    -6.7741710   -1.3153770    0.7498150  
N    -7.4249760   -1.3490610    1.8790140  
C    -7.2503180   -1.7866830   -0.5244030  
C    -6.4351690   -1.6398120   -1.5936330  
O    -6.7424370   -2.0416860   -2.8370660  
C    -5.0594980   -1.0407740   -1.4688590  
O    -4.3452980   -1.0660360   -2.4652860  
C    -4.5888560   -0.5102240   -0.1486350  
H    -4.5611770    0.1731410    2.8296960  
H    -8.2328090   -2.2385450   -0.6033830  
H    -5.9509730   -1.8370880   -3.3819260  
H    -6.9005390   -0.6527600    3.8592420  
