62


C    -6.0255770    0.7473680    1.9144400  
C    -7.2920230    0.2339240    1.8474170  
C    -7.3648520   -0.5608610    0.6538310  
C    -6.0949210   -0.4891360    0.0263820  
N    -5.2809180    0.3219170    0.8137330  
C    -5.7979910   -1.1752800   -1.1568870  
C    -6.8079880   -1.9356770   -1.7244580  
O    -6.5750430   -2.6202490   -2.8839050  
C    -8.0885300   -2.0126830   -1.1157700  
O    -8.9880080   -2.8101040   -1.8012520  
C    -8.3752780   -1.3409660    0.0577450  
H    -8.0881450    0.4164430    2.5567130  
H    -4.8301440   -1.1169920   -1.6398560  
H    -7.4030980   -3.0720500   -3.1203460  
H    -9.8474930   -2.7793190   -1.3560950  
H    -9.3616160   -1.4197940    0.5114230  
H    -5.5800430    1.4268120    2.6275520  
C    -1.9355070   -0.4749030    3.4529830  
C    -0.9492540    0.0614560    2.6678990  
C    -1.5684850    0.5329100    1.4616130  
C    -2.9542210    0.2600770    1.5922700  
N    -3.1504990   -0.3579710    2.8056090  
C    -3.9077770    0.6048450    0.6177370  
C    -3.4359610    1.2668100   -0.5133200  
O    -4.2958190    1.6586230   -1.4883300  
C    -2.0547350    1.5542630   -0.6648350  
O    -1.7565750    2.1872250   -1.8544290  
C    -1.0949750    1.1816340    0.2856900  
H     0.1005010    0.0981670    2.9150150  
H    -4.0439400   -0.6798750    3.1453830  
H    -3.7407450    2.0996210   -2.1604850  
H    -1.2002380    2.9690960   -1.6533890  
H    -1.8753950   -0.9378380    4.4276590  
C     2.4059520   -1.4524530    0.4975520  
C     3.4545320   -0.6102320    0.2053720  
C     2.8019550    0.6958750   -0.0251450  
C     1.3585630    0.4313440    0.2019210  
N     1.1524350   -0.8315670    0.4943620  
C     0.3372780    1.4646870    0.0634920  
C     0.8137000    2.6781650   -0.3479430  
O     0.0098630    3.7554280   -0.5695230  
C     2.2489090    2.9750060   -0.5858090  
O     2.5499010    4.1225630   -0.9270020  
C     3.2520970    1.9068300   -0.3988470  
H     0.6299880    4.4773020   -0.8295130  
H     4.2980880    2.1251970   -0.5791520  
H     2.4575930   -2.5120740    0.7191280  
C     4.8503430   -0.9084100    0.1193160  
C     5.4994740   -2.1068950    0.3226710  
C     6.8916900   -1.8422130    0.1115600  
C     6.9444190   -0.3775410   -0.2284400  
N     5.7595700    0.1581040   -0.2222620  
C     8.1883140    0.2863940   -0.5148850  
C     9.3178760   -0.4586010   -0.4671980  
O    10.5446210    0.0146350   -0.7080490  
C     9.2985370   -1.9386200   -0.1271450  
O    10.3888350   -2.5134710   -0.1135160  
C     8.0255130   -2.5904920    0.1594520  
H     5.0600040   -3.0584430    0.5875380  
H     8.2019380    1.3430090   -0.7577630  
H    11.1429340   -0.7605050   -0.5962080  
H     8.0470160   -3.6490710    0.3983700  
