64


C     4.8098150   -0.5035270   -2.2647150  
C     6.0392470   -1.0726550   -2.1501710  
C     6.3101860   -1.2402720   -0.7457580  
C     5.2014730   -0.7231560   -0.0347390  
N     4.2726770   -0.2602100   -0.9887410  
C     5.1122130   -0.8022810    1.3581360  
C     6.1775290   -1.3707400    2.0417350  
O     6.1356670   -1.4533080    3.4020440  
C     7.3071100   -1.8669620    1.3436590  
O     8.2822360   -2.4001620    2.1598310  
C     7.3808550   -1.8111910   -0.0371870  
H     6.6960050   -1.3274220   -2.9709160  
H     4.2721680   -0.4208150    1.9226720  
H     6.9638730   -1.8713920    3.6940340  
H     9.0278890   -2.7047860    1.6217140  
H     8.2437990   -2.2157530   -0.5619280  
H     4.2640490   -0.1768770   -3.1365560  
C     0.3742360   -0.8784160   -2.9461370  
C     1.6742480   -1.0435500   -2.6000250  
C     1.9109750   -0.0715900   -1.5382210  
C     0.6021520    0.5990540   -1.3573660  
N    -0.2867390    0.1251680   -2.1876730  
C     0.3811780    1.6624450   -0.3695270  
C     1.4895910    2.0078880    0.3453920  
O     1.4877540    2.9982830    1.2897760  
C     2.8171370    1.3728840    0.2014920  
O     3.7395910    1.8126100    0.8909890  
C     2.9978560    0.2608390   -0.7878380  
H     2.3872890   -1.7490070   -3.0010340  
H     2.4142410    3.0258920    1.6230460  
H    -0.1904830   -1.4139470   -3.6993950  
C    -3.8383810    0.1173750    0.1692760  
C    -2.4787660    0.2284310    0.0049500  
C    -2.1448410    1.6200470   -0.0846430  
C    -3.3588090    2.3373930    0.0528260  
N    -4.3809530    1.4160800    0.2640260  
C    -3.4370200    3.7294190    0.0223210  
C    -2.2427960    4.4233670   -0.1115400  
O    -2.2415990    5.7837350   -0.1388290  
C    -1.0043530    3.7405850   -0.2047570  
O     0.0821730    4.5788220   -0.3447880  
C    -0.9223590    2.3388840   -0.2215900  
H    -1.7915480   -0.6020490   -0.0191830  
H    -5.3296790    1.6035470   -0.0370500  
H    -4.3719870    4.2716850    0.1202200  
H    -1.3027060    6.0414030   -0.2125720  
H     0.7652210    4.2974460    0.3012150  
C    -3.7065730   -3.9368940   -1.7392950  
C    -3.4509760   -2.6354790   -1.3924160  
C    -4.4212650   -2.2643350   -0.4006770  
C    -5.2542010   -3.3945870   -0.1927400  
N    -4.7907190   -4.4004600   -1.0164110  
C    -6.3397540   -3.3916840    0.6914890  
C    -6.5880590   -2.2169330    1.3836090  
O    -7.6229400   -2.1559370    2.2730640  
C    -5.7743760   -1.0725130    1.1944200  
O    -6.1504410    0.0091890    1.9719390  
C    -4.6862320   -1.0649710    0.3157200  
H    -2.6758650   -2.0056820   -1.8044740  
H    -5.1921820   -5.3215860   -1.0905370  
H    -6.9748010   -4.2568040    0.8527810  
H    -7.5880660   -1.2731620    2.6816770  
H    -5.4334410    0.6691320    1.9597270  
H    -3.2053760   -4.5809730   -2.4481530  
