64


C    -5.1854270    0.0819770   -0.0389260  
C    -5.6099440   -1.0839400    0.5528400  
C    -7.0408590   -1.1465490    0.4437130  
C    -7.4561760    0.0248270   -0.2339010  
N    -6.3226560    0.8025170   -0.4693170  
C    -8.7931500    0.2858440   -0.5436210  
C    -9.7368140   -0.6539100   -0.1506570  
O   -11.0564730   -0.4502300   -0.4326460  
C    -9.3420410   -1.8235170    0.5487610  
O   -10.3938430   -2.6553160    0.8829040  
C    -8.0156920   -2.0773990    0.8514490  
H    -4.9697640   -1.7912310    1.0615820  
H    -6.2640770    1.4156820   -1.2737840  
H    -9.1147390    1.1806520   -1.0668460  
H   -11.5475670   -1.2102630   -0.0757500  
H   -10.0542700   -3.4370240    1.3429920  
H    -7.7367110   -2.9836660    1.3854380  
C    -1.1948350   -1.7755660   -0.8978650  
C    -2.5308610   -1.5693710   -0.6843470  
C    -2.7091420   -0.1658780   -0.4400060  
C    -1.4276390    0.4342870   -0.5330960  
N    -0.5059790   -0.5712630   -0.8069710  
C    -1.2194550    1.8127590   -0.4006200  
C    -2.3329640    2.5985620   -0.1487170  
O    -2.1914340    3.9479670    0.0128210  
C    -3.6240080    2.0248130   -0.0419540  
O    -4.6182280    2.9467060    0.2296100  
C    -3.8446230    0.6504370   -0.1838910  
H    -3.3007490   -2.3264860   -0.7077250  
H    -0.2400500    2.2692270   -0.4860440  
H    -3.0759860    4.2998660    0.2154830  
H    -5.4346940    2.4691230    0.4662390  
H    -0.6461440   -2.6857010   -1.0939330  
C     1.5967130   -0.7567390   -2.1077270  
C     0.8833090   -0.4090000   -0.9851860  
C     1.8202610    0.1037060   -0.0187230  
C     3.0970070    0.0466590   -0.6266320  
N     2.9308210   -0.4745020   -1.8953320  
C     4.2839210    0.4460120    0.0256170  
C     4.1339500    0.9058580    1.3350070  
O     5.2265450    1.3314970    2.0313490  
C     2.8578980    0.9614120    1.9573420  
O     2.9000490    1.4424420    3.2506710  
C     1.7053200    0.5737940    1.3035570  
H     3.6896230   -0.7368210   -2.5052630  
H     4.9149250    1.6194040    2.9075980  
H     1.9990660    1.5266710    3.5966020  
H     0.7374860    0.6277800    1.7950660  
H     1.2493510   -1.1695780   -3.0435520  
C     5.9037640    0.9468400   -1.8553980  
C     5.5940410    0.3925270   -0.6475350  
C     6.8080020   -0.2831910   -0.1873160  
C     7.8364340   -0.0629550   -1.2332970  
N     7.2176640    0.6737890   -2.2242150  
C     9.1115630   -0.5255020   -1.1719190  
C     9.5082810   -1.3086540   -0.0069250  
O    10.6306930   -1.7691280    0.1392290  
C     8.4273350   -1.5736810    1.1049930  
O     8.7349040   -2.2380930    2.0817800  
C     7.0844200   -1.0094790    0.9245850  
H     9.8494100   -0.3480650   -1.9484720  
H     6.3540950   -1.1799950    1.7074210  
H     5.2774670    1.5501830   -2.5001580  
H     7.6851490    1.0598040   -3.0294340  
