60


C    -5.5942550    1.6948580   -1.6830620  
C    -6.9447330    1.6961560   -1.5058850  
C    -7.2462800    0.7394720   -0.4746880  
C    -6.0186070    0.1648870   -0.0632350  
N    -5.0026770    0.7583470   -0.8268250  
C    -5.9417230   -0.7624960    0.9805430  
C    -7.1279930   -1.1402790    1.5950510  
O    -7.1002880   -2.0510490    2.6139680  
C    -8.3654460   -0.5914450    1.1806850  
O    -9.4569900   -1.0640050    1.8851990  
C    -8.4351960    0.3424460    0.1605800  
H    -7.6512530    2.3129470   -2.0444840  
H    -5.0115100   -1.2030260    1.3131490  
H    -8.0193620   -2.1862010    2.9017530  
H   -10.2651160   -0.6615240    1.5345940  
H    -9.3928500    0.7690370   -0.1317380  
H    -4.9725360    2.2766900   -2.3437620  
C    -1.7009780    3.5462970   -0.7234700  
C    -0.6396200    2.7141490   -0.6086160  
C    -1.2063980    1.3700450   -0.5927860  
C    -2.6771690    1.5991980   -0.7211380  
N    -2.9562310    2.8679060   -0.7955170  
C    -3.6281330    0.4951240   -0.7635560  
C    -3.1017910   -0.7659670   -0.7340440  
O    -3.8452900   -1.8846170   -0.8081960  
C    -1.6448060   -1.0182510   -0.5670160  
O    -1.2818330   -2.1871520   -0.4444590  
C    -0.6752080    0.1244550   -0.5305070  
H     0.4077020    2.9720130   -0.5470820  
H    -3.2046970   -2.6250420   -0.7220030  
H    -1.6993750    4.6284070   -0.7740410  
C     2.4541300    1.2024560    2.4483720  
C     1.3000500    1.1043480    1.7397720  
C     1.5667210    0.2713420    0.5876720  
C     2.9948130   -0.1100160    0.6892890  
N     3.4699600    0.4663910    1.8460410  
C     3.6524640   -0.9095830   -0.2087240  
C     2.8657340   -1.4761960   -1.3125510  
O     3.3293630   -2.2675490   -2.1169510  
C     1.3642070   -1.0468960   -1.4578340  
O     0.7683340   -1.4009780   -2.4579570  
C     0.7543610   -0.1963360   -0.4144660  
H     0.3529680    1.5551250    1.9928710  
H     2.6528540    1.7353130    3.3685030  
H     4.4449390    0.5005420    2.1065830  
C     5.5247800   -2.5560920   -0.2372200  
C     6.8664040   -2.5825870   -0.0671850  
C     7.3062910   -1.2254550    0.1707590  
C     6.0851140   -0.3817360    0.1196120  
N     5.0156380   -1.2470640   -0.1020900  
C     6.0952320    0.9740730    0.2365830  
C     7.3737770    1.6472240    0.4686330  
O     7.4680020    2.8587970    0.5869310  
C     8.6677590    0.7650570    0.5745720  
O     9.7373190    1.3061470    0.8026470  
C     8.5321380   -0.6824160    0.3857760  
H     7.4969640   -3.4588190   -0.1091450  
H     5.2149070    1.5954000    0.1163950  
H     9.4380250   -1.2802760    0.4154800  
H     4.8387270   -3.3613840   -0.4493030  
