64


C     4.4619430   -0.6504600    2.1440240  
C     5.6677030   -0.0061790    2.1179090  
C     5.8260880    0.5475990    0.8022300  
C     4.6706930    0.1978470    0.0591340  
N     3.8350330   -0.5366960    0.8992730  
C     4.4761400    0.6019780   -1.2666570  
C     5.4752380    1.3601140   -1.8560960  
O     5.3401340    1.7744970   -3.1492740  
C     6.6436160    1.7135950   -1.1294510  
O     7.5443320    2.4729140   -1.8533570  
C     6.8279220    1.3201470    0.1823900  
H     6.3751210    0.0470610    2.9346200  
H     3.6038970    0.3226990   -1.8452240  
H     6.1535590    2.2529390   -3.3845330  
H     8.3534250    2.5935740   -1.3349510  
H     7.7273630    1.6075670    0.7236320  
H     4.0004160   -1.2446420    2.9205980  
C     0.1184290    0.1820470    2.9548510  
C    -0.6975290   -0.6433130    2.2485310  
C     0.0992740   -1.2434660    1.1918150  
C     1.4591480   -0.6903670    1.3525130  
N     1.4051220    0.1789070    2.4219180  
C     2.5482860   -1.0312700    0.5986890  
C     2.3448940   -2.0198980   -0.4645200  
O     3.2467000   -2.4585790   -1.1576630  
C     0.8768270   -2.5321410   -0.7246850  
O     0.6809800   -3.1886810   -1.7292700  
C    -0.2117890   -2.1545440    0.2166890  
H    -1.7409890   -0.8396490    2.4426570  
H    -0.1009400    0.7845130    3.8269220  
H     2.2125770    0.6473840    2.8053190  
C    -4.1312280   -0.2195390   -0.6292470  
C    -4.8793620   -1.3775500   -0.6652900  
C    -3.9970310   -2.4784530   -0.4143030  
C    -2.7021600   -1.9340380   -0.2124210  
N    -2.8140460   -0.5616890   -0.3226760  
C    -1.5597640   -2.7244470    0.0289120  
C    -1.7630130   -4.1082670    0.0679500  
O    -0.7136020   -4.9326960    0.3416880  
C    -3.0520170   -4.6647070   -0.1156160  
O    -3.0801900   -6.0449710   -0.0206170  
C    -4.1633010   -3.8751070   -0.3499360  
H    -5.9491780   -1.4276270   -0.8162160  
H    -2.0319510    0.0611170   -0.4574300  
H    -1.0297360   -5.8464220    0.2321200  
H    -3.9448890   -6.3690070   -0.3124510  
H    -5.1425430   -4.3298870   -0.4861010  
C    -5.5371700    1.6021610   -1.6594260  
C    -4.5083180    1.1655260   -0.8511540  
C    -3.9005500    2.3548430   -0.2899670  
C    -4.6119090    3.4700080   -0.8023810  
N    -5.6084550    2.9780380   -1.6224110  
C    -4.2935380    4.7922180   -0.4692560  
C    -3.2339270    4.9968380    0.4008110  
O    -2.8739080    6.2662550    0.7501990  
C    -2.5209780    3.8933690    0.9374000  
O    -1.5044390    4.2479440    1.8073800  
C    -2.8428260    2.5886210    0.6122080  
H    -6.2496290    3.5394760   -2.1604080  
H    -4.8344910    5.6455790   -0.8654570  
H    -2.1038340    6.1936710    1.3400110  
H    -0.9699370    3.4645160    2.0040430  
H    -2.2977630    1.7665560    1.0706040  
H    -6.2128550    1.0282100   -2.2770840  
