62


C    -3.8946820    1.3466080   -0.2813980  
C    -5.0839020    0.7208160    0.0462210  
C    -4.8062060   -0.6709030    0.2232990  
C    -3.4158100   -0.8522580   -0.0091630  
N    -2.9006400    0.3792590   -0.3282260  
C    -2.7686670   -2.1020200    0.0671180  
C    -3.5796730   -3.1898990    0.4157010  
O    -3.0343020   -4.4279390    0.5648230  
C    -4.9689210   -3.0241790    0.6552490  
O    -5.6135060   -4.2029630    0.9901920  
C    -5.5882760   -1.7941270    0.5612940  
H    -6.0351710    1.2155820    0.1867020  
H    -1.9337030    0.5668720   -0.5340940  
H    -3.7597400   -5.0297740    0.8077770  
H    -6.5467180   -4.0189640    1.1715180  
H    -6.6559310   -1.6981170    0.7492120  
C     0.7587790   -0.2151260    1.8974450  
C     1.8071860   -0.8067900    1.2454110  
C     1.1509690   -1.7328840    0.2959250  
C    -0.3111430   -1.5314140    0.5240920  
N    -0.5152650   -0.6358950    1.4593240  
C    -1.3242940   -2.2809940   -0.1994050  
C    -0.8538620   -3.1897710   -1.1104010  
O    -1.6494120   -3.9346500   -1.8901810  
C     0.6018310   -3.4358310   -1.3338460  
O     0.9293120   -4.2735140   -2.1766210  
C     1.5998370   -2.6628420   -0.5659400  
H    -1.0415250   -4.4923130   -2.4240850  
H     2.6456230   -2.8895510   -0.7465840  
H     0.8192710    0.5221200    2.6913460  
C     3.8362000   -0.4321260    2.7034710  
C     3.2205000   -0.6297710    1.4981920  
C     4.3289640   -0.5496550    0.5178700  
C     5.5398990   -0.3082910    1.3552530  
N     5.2359280   -0.2373070    2.6238980  
C     6.8456330   -0.1599910    0.7727920  
C     6.9496100   -0.2143420   -0.5778760  
O     8.1043170   -0.0890670   -1.2512280  
C     5.7453420   -0.4170790   -1.4509950  
O     5.9120020   -0.4477420   -2.6684770  
C     4.4122090   -0.5747220   -0.8253060  
H     7.7070750    0.0021480    1.4111020  
H     7.8656480   -0.1626130   -2.2010650  
H     3.5694120   -0.7036050   -1.4970470  
H     3.3661600   -0.4373740    3.6798880  
C    -4.3853930    3.6923790   -1.1058950  
C    -3.5671580    2.7373360   -0.5398060  
C    -2.3041700    3.3930570   -0.2686410  
C    -2.4261390    4.7361870   -0.7035880  
N    -3.7084270    4.8903040   -1.1964040  
C    -1.3815430    5.6631010   -0.5969480  
C    -0.1892390    5.2246540   -0.0401510  
O     0.8656850    6.0831860    0.0740000  
C    -0.0569730    3.8887380    0.4217560  
O     1.1771330    3.6005710    0.9748120  
C    -1.0943520    2.9802850    0.3254910  
H    -4.0768270    5.7335300   -1.6074490  
H    -1.4699160    6.6917630   -0.9315280  
H     1.5959740    5.5860180    0.4814200  
H     1.2375700    2.6473450    1.1430180  
H    -0.9808130    1.9822940    0.7424080  
H    -5.3967350    3.5981640   -1.4745820  
