62


C    -6.9943830   -0.1765310    3.0304620  
C    -8.0611590   -0.6058260    2.2844680  
C    -7.5915200   -0.7731350    0.9393680  
C    -6.2107030   -0.4344700    0.9345590  
N    -5.8816520   -0.0657390    2.2214830  
C    -5.4057260   -0.4509320   -0.2292850  
C    -6.0754550   -0.8058420   -1.3996130  
O    -5.3923640   -0.8156480   -2.6041290  
C    -7.4468150   -1.1513840   -1.4184040  
O    -7.9149040   -1.4835140   -2.6777360  
C    -8.2108860   -1.1476070   -0.2683630  
H    -9.0664380   -0.7723630    2.6458700  
H    -4.9540730    0.1905660    2.5233730  
H    -6.0310490   -1.0891440   -3.2881730  
H    -8.8620850   -1.6802040   -2.6323700  
H    -9.2655650   -1.4121730   -0.3018230  
H    -6.9317180    0.0673420    4.0816510  
C    -2.0094510   -1.7614310    2.4107100  
C    -3.2164380   -1.6475270    1.7755910  
C    -3.0753040   -0.6359480    0.7578650  
C    -1.7326220   -0.1861450    0.8165140  
N    -1.0970450   -0.9024730    1.8173400  
C    -1.2004470    0.8039710   -0.0376110  
C    -2.0877430    1.3155170   -0.9873780  
O    -1.6534110    2.2204140   -1.8963660  
C    -3.4366970    0.8772900   -1.0683630  
O    -4.1568060    1.5054510   -2.0591260  
C    -3.9697070   -0.0743940   -0.1975820  
H    -4.0994030   -2.2334080    1.9853570  
H    -0.2064370   -0.6456690    2.2162640  
H    -2.4308040    2.4346190   -2.4485340  
H    -4.6821590    0.8202300   -2.5281800  
H    -1.7064200   -2.4051000    3.2244210  
C     2.5188830   -1.4510740   -0.4181350  
C     3.4477060   -0.4486360   -0.2708870  
C     2.6935450    0.7894680   -0.0762940  
C     1.2658560    0.4066760   -0.1074250  
N     1.2402590   -0.9666770   -0.3257160  
C     0.2031660    1.2520830    0.0201260  
C     0.5352440    2.6808610    0.2571950  
O    -0.3063830    3.5149120    0.5295940  
C     2.0423610    3.1229360    0.2008330  
O     2.3078970    4.3107800    0.2915330  
C     3.0692780    2.0918770    0.0501120  
H     4.1014570    2.4218100    0.0001920  
H     2.6934900   -2.5086860   -0.5659970  
H     0.3928340   -1.5124500   -0.3847080  
C     4.8812200   -0.6319850   -0.3030910  
C     5.6259640   -1.6074850   -0.9168480  
C     7.0110390   -1.3819330   -0.6031640  
C     7.0431580   -0.1762340    0.2613310  
N     5.7318900    0.2620110    0.3649250  
C     8.1666490    0.3418240    0.8139700  
C     9.4449210   -0.3072060    0.5235150  
O    10.5067540    0.0897270    0.9777870  
C     9.4406840   -1.5647960   -0.4213230  
O    10.5041060   -2.1112740   -0.6776970  
C     8.1592170   -2.0336560   -0.9420720  
H     5.2417180   -2.3753450   -1.5732860  
H     8.1707030    1.2206540    1.4517020  
H     8.1663680   -2.9123400   -1.5799460  
H     5.4132980    0.8850820    1.0923800  
