62


C     3.4294810   -1.5924630   -1.4613820  
C     3.9311780   -0.4790470   -0.8202480  
C     5.0589620   -0.9439230   -0.0345580  
C     5.1799030   -2.3403570   -0.2548120  
N     4.1723030   -2.7041720   -1.1253010  
C     6.1611780   -3.1235970    0.3654850  
C     7.0366560   -2.4861020    1.2302920  
O     8.0131630   -3.2009300    1.8585970  
C     6.9235270   -1.0907240    1.4754560  
O     7.8599280   -0.6063140    2.3673820  
C     5.9540050   -0.3197220    0.8623440  
H     4.0124280   -3.6365150   -1.4735140  
H     6.2543150   -4.1920690    0.1997480  
H     8.5027000   -2.5820570    2.4277370  
H     7.7035320    0.3371530    2.5222020  
H     5.8794630    0.7438790    1.0750480  
H     2.6036430   -1.6666470   -2.1543420  
C    -0.2066260    1.2784340   -0.4190260  
C     0.8823990    0.4269100   -0.4651860  
C     2.0362610    1.2081560   -0.7792840  
C     1.5993120    2.5543040   -0.9128150  
N     0.2405340    2.5738970   -0.6668450  
C     2.4658050    3.6100060   -1.2114460  
C     3.8060450    3.2941800   -1.3742280  
O     4.7014950    4.2737730   -1.6846330  
C     4.2667500    1.9579380   -1.2334510  
O     5.6245870    1.8203310   -1.4457250  
C     3.4151630    0.8973540   -0.9343490  
H     0.8591270   -0.6287540   -0.2343070  
H    -0.3668860    3.3533660   -0.8692660  
H     2.1355170    4.6379620   -1.3175710  
H     5.5679340    3.8428040   -1.7900790  
H     5.8506350    0.8746350   -1.4386310  
C    -2.2426120   -0.1805820   -0.4759290  
C    -1.6025330    0.9864680   -0.1682000  
C    -2.5959560    1.8477740    0.4639290  
C    -3.8650870    1.0824830    0.4844940  
N    -3.5930810   -0.1523960   -0.1172340  
C    -5.0081870    1.5275230    1.0594820  
C    -5.0161630    2.8615620    1.6623930  
O    -6.0090850    3.3411370    2.1863250  
C    -3.6888400    3.6943200    1.6368800  
O    -3.6732280    4.8090280    2.1343980  
C    -2.5076100    3.0837440    1.0217140  
H    -5.9258630    0.9561690    1.0898930  
H    -1.5777620    3.6405000    1.0727620  
H    -1.8434200   -1.0639400   -0.9486530  
C    -2.9765380   -4.3527710    0.6855750  
C    -4.1920430   -4.8666540    0.3872510  
C    -4.9915170   -3.7302290   -0.0588470  
C    -4.0572570   -2.5724180    0.0450820  
N    -2.8840130   -2.9395650    0.4705300  
C    -4.4833790   -1.2229970   -0.3025240  
C    -5.7522820   -1.0744800   -0.7911540  
O    -6.2602160    0.0999010   -1.2084540  
C    -6.6944340   -2.2210660   -0.9001350  
O    -7.8192970   -1.9937690   -1.3554480  
C    -6.2534300   -3.5725970   -0.5039850  
H    -4.5222950   -5.8932850    0.4628710  
H    -7.1796990   -0.1110410   -1.4904460  
H    -6.9746260   -4.3776630   -0.6072230  
H    -2.1004890   -4.8726670    1.0532760  
