62


C    -6.6111560    2.7097260   -0.4932150  
C    -5.5095550    1.9044730   -0.6253000  
C    -5.8339420    0.6327010   -0.0379320  
C    -7.1730210    0.7320230    0.4272800  
N    -7.6130620    2.0112000    0.1522960  
C    -7.8594230   -0.3339760    1.0166120  
C    -7.1811960   -1.5386260    1.1120600  
O    -7.7904460   -2.6276000    1.6548330  
C    -5.8451950   -1.6766490    0.6491990  
O    -5.3229320   -2.9357820    0.8425750  
C    -5.1322870   -0.6029550    0.1044010  
H    -4.5770200    2.1889150   -1.0896780  
H    -8.5444620    2.3532640    0.3280830  
H    -8.8842880   -0.2580160    1.3656090  
H    -7.1414520   -3.3532870    1.5722080  
H    -4.8430320   -3.1713290    0.0142180  
H    -6.7670590    3.7326320   -0.8057830  
C    -1.5686500    1.8634340    1.0283350  
C    -2.8018990    1.3003210    0.9990340  
C    -2.7532730    0.1920340    0.0750350  
C    -1.3622160    0.1571030   -0.4418310  
N    -0.6784970    1.1934960    0.1792300  
C    -0.9007270   -0.7260230   -1.3695540  
C    -1.8253960   -1.7376830   -1.8458660  
O    -1.5547360   -2.5551660   -2.7122730  
C    -3.2492990   -1.8121750   -1.1802480  
O    -3.9060470   -2.8265500   -1.4117160  
C    -3.7153290   -0.7153780   -0.3141950  
H    -3.6643670    1.6169740    1.5635290  
H     0.0923660   -0.6790680   -1.8018030  
H    -1.2074360    2.7086190    1.5966380  
C     2.9497370   -1.1687810    0.7262920  
C     3.8749460   -0.1882360    0.4033440  
C     3.0997960    0.9999100    0.0769500  
C     1.7347900    0.6533680    0.2391490  
N     1.6808940   -0.6615150    0.6555090  
C     0.6822590    1.5510650   -0.0152710  
C     1.0207240    2.8316800   -0.4496800  
O     0.0404500    3.7445030   -0.7015740  
C     2.3800090    3.1870320   -0.6160410  
O     2.5554440    4.4874870   -1.0471150  
C     3.4105970    2.2988120   -0.3704850  
H     0.8348560   -1.2013540    0.7599380  
H     0.4821970    4.5588770   -1.0011460  
H     3.5001130    4.6625500   -1.1710100  
H     4.4412650    2.6112290   -0.4890930  
H     3.1233750   -2.1997190    0.9869580  
C     6.1512720   -3.8570720   -0.3578830  
C     7.4304360   -3.4360900   -0.2553470  
C     7.3376770   -2.0144920    0.0631760  
C     5.8658910   -1.7377750    0.1095580  
N     5.1871310   -2.8188620   -0.1394990  
C     5.3209930   -0.4028670    0.3955480  
C     6.2639900    0.5552630    0.6570780  
O     5.9691900    1.8311260    1.0026430  
C     7.7298520    0.3019520    0.6167420  
O     8.4857490    1.2429590    0.8787050  
C     8.2388880   -1.0451350    0.2945770  
H     8.3391150   -4.0084600   -0.3799830  
H     6.8475190    2.2517890    1.1466520  
H     9.3160180   -1.1807070    0.2751990  
H     5.7879040   -4.8528570   -0.5810360  
