60


C    -8.0257130    2.4644260   -1.2433550  
C    -8.9983940    1.5890570   -0.8379950  
C    -8.3360460    0.5015400   -0.1753600  
C    -6.9453550    0.7806990   -0.2040150  
N    -6.7881830    1.9886510   -0.8503220  
C    -5.9612280   -0.0870090    0.3289760  
C    -6.4465700   -1.2667210    0.9057360  
O    -5.5793050   -2.1600370    1.4710770  
C    -7.8335410   -1.5552270    0.9465950  
O    -8.1259000   -2.7601860    1.5598390  
C    -8.7783370   -0.6940490    0.4226190  
H   -10.0625300    1.7031580   -0.9918640  
H    -5.8974220    2.3898040   -1.1002780  
H    -6.1188360   -2.8731790    1.8567310  
H    -9.0852720   -2.8533150    1.6537790  
H    -9.8366810   -0.9427450    0.4651080  
H    -8.1070320    3.4021420   -1.7746250  
C    -3.9777810    1.4893550    0.5147740  
C    -4.5388040    0.2664190    0.2981250  
C    -3.3852040   -0.5864880   -0.0599470  
C    -2.2011160    0.3193530    0.0127770  
N    -2.5673770    1.5227000    0.3523810  
C    -0.8349470   -0.1351400   -0.2655780  
C    -0.7270210   -1.4522780   -0.6642360  
O     0.4013050   -2.0718840   -1.0104060  
C    -1.9230230   -2.3634960   -0.7695560  
O    -1.7150110   -3.5211500   -1.1344370  
C    -3.2674210   -1.8685720   -0.4429140  
H     0.1248020   -2.9930800   -1.2325450  
H    -4.0917020   -2.5687790   -0.5023420  
H    -4.4799720    2.3984450    0.8244380  
C     0.2904550    0.7702520   -0.1329530  
C     0.2879250    2.1145850    0.1294170  
C     1.6733240    2.5166480    0.1434660  
C     2.4375400    1.2561310   -0.1218570  
N     1.6335860    0.2540020   -0.2753740  
C     3.9076490    1.2142560   -0.1770630  
C     4.5112710    2.4347660   -0.0146390  
O     5.8422970    2.6367610   -0.0899640  
C     3.7656930    3.7068670    0.2452750  
O     4.4385620    4.7364670    0.3696360  
C     2.3038450    3.6962860    0.3287790  
H    -0.5752540    2.7386660    0.2934340  
H     5.9483960    3.6066660    0.0583150  
H     1.8028520    4.6387710    0.5262260  
C     4.0535940   -1.1635870   -1.0132830  
C     4.5940600   -0.0472990   -0.4234430  
C     5.9735780   -0.4692780   -0.0703270  
C     6.0587590   -1.8743460   -0.5706950  
N     4.9398900   -2.2590280   -1.1222220  
C     7.2450150   -2.6746770   -0.4247870  
C     8.3007930   -2.1311990    0.2253900  
O     9.4661390   -2.7608380    0.4472640  
C     8.2376880   -0.7367520    0.7777660  
O     9.2300240   -0.3119140    1.3689180  
C     7.0126750    0.0702280    0.5973630  
H     7.2623470   -3.6850960   -0.8180120  
H    10.0173810   -2.1138380    0.9408290  
H     7.0277350    1.0761780    0.9944880  
H     3.0407220   -1.2743340   -1.3706450  
