62


C     1.1253310   -2.8489550   -0.0356740  
C     2.2107420   -3.6978610   -0.1876330  
C     3.3865920   -2.9045370   -0.0870100  
C     2.9679040   -1.5573190    0.1089940  
N     1.5895670   -1.5386850    0.0996070  
C     3.8567630   -0.4624160    0.2426710  
C     5.2093110   -0.8184230    0.2213720  
O     6.1786390    0.1375890    0.3555310  
C     5.6456960   -2.1616550    0.0263610  
O     7.0200460   -2.2865940    0.0168800  
C     4.7637040   -3.2034530   -0.1449260  
H     2.1598900   -4.7601020   -0.3846520  
H     1.1168860   -0.8468070    0.6780870  
H     7.0335260   -0.3285810    0.4058470  
H     7.2663470   -3.2235690    0.0130750  
H     5.1175620   -4.2179430   -0.3107560  
C    -0.2791140   -3.1200160   -0.0394230  
C    -0.9921000   -4.2938130    0.0035540  
C    -2.3886050   -3.9707010   -0.0329770  
C    -2.4704880   -2.4945960   -0.0785650  
N    -1.1812900   -2.0329980   -0.0470960  
C    -3.6336350   -1.7562730   -0.1442120  
C    -4.8788350   -2.5342390   -0.2828840  
O    -5.9707540   -2.0234820   -0.5050440  
C    -4.8210690   -4.0972520   -0.1397170  
O    -5.8780050   -4.7114550   -0.1415330  
C    -3.5201220   -4.7368000   -0.0296060  
H    -0.5736530   -5.2868750    0.0789560  
H    -3.4938040   -5.8200200    0.0329840  
H    -0.9348450   -1.1195730   -0.4077610  
C    -3.6454890   -0.3062600   -0.0965700  
C    -2.6674720    0.5768660    0.3264540  
C    -3.1887230    1.9063700    0.2049990  
C    -4.5661340    1.7625240   -0.3285860  
N    -4.7708290    0.4109740   -0.4998190  
C    -5.3968340    2.8084810   -0.5724460  
C    -4.9129860    4.1598350   -0.2977460  
O    -5.5897020    5.1597140   -0.4879570  
C    -3.4536000    4.3301830    0.2688740  
O    -3.0366010    5.4570190    0.5059790  
C    -2.6575460    3.1297540    0.4881970  
H    -1.7206660    0.3309060    0.7815570  
H    -6.4036870    2.6929350   -0.9611880  
H    -1.6508710    3.2410070    0.8790840  
H    -5.6372090   -0.0640140   -0.7256480  
C     5.1361330    3.1528390   -2.0069510  
C     4.2040110    4.0246580   -1.5153140  
C     3.4213640    3.2988090   -0.5558100  
C     3.9319400    1.9711660   -0.5150350  
N     4.9549420    1.9038650   -1.4392130  
C     3.3876040    0.9499990    0.3048740  
C     2.3153510    1.3574700    1.1085000  
O     1.6925880    0.4615860    1.9581490  
C     1.7985510    2.6737930    1.0760730  
O     0.7193440    2.8658120    1.9275150  
C     2.3262220    3.6465550    0.2520080  
H     4.0740410    5.0577150   -1.8064280  
H     5.6728850    1.1951880   -1.3954280  
H     1.0858400    0.9876090    2.5122150  
H     0.5506630    3.8143640    2.0366160  
H     1.8992060    4.6463480    0.2268890  
H     5.9199050    3.3094020   -2.7350400  
