64


C    -5.4146500    2.4700040   -0.1956860  
C    -4.8783640    1.1998340   -0.1531500  
C    -6.0070810    0.2882100   -0.1882390  
C    -7.1849150    1.0771850   -0.2550070  
N    -6.7899850    2.3995870   -0.2559600  
C    -8.4699530    0.5213290   -0.2858410  
C    -8.5711690   -0.8602030   -0.2444480  
O    -9.7988670   -1.4540800   -0.2763470  
C    -7.4049890   -1.6678360   -0.1643310  
O    -7.6693920   -3.0233970   -0.1209760  
C    -6.1376590   -1.1170680   -0.1324750  
H    -7.4101810    3.1925900   -0.3074510  
H    -9.3712280    1.1237780   -0.3365750  
H    -9.6550530   -2.4151520   -0.2316050  
H    -6.8356630   -3.5138310   -0.0686330  
H    -5.2609060   -1.7561450   -0.0638900  
H    -4.9071860    3.4239050   -0.2074750  
C    -1.5179440    2.6917020    2.4441370  
C    -2.7450990    2.4661420    1.8781710  
C    -2.5632320    1.4895670    0.8391200  
C    -1.1868630    1.1489950    0.8322910  
N    -0.5753720    1.8872260    1.8281930  
C    -0.6133790    0.2133690   -0.0548010  
C    -1.4964590   -0.3821470   -0.9553560  
O    -1.0406680   -1.3127300   -1.8398340  
C    -2.8751800   -0.0510550   -0.9654450  
O    -3.5920320   -0.7248670   -1.9387890  
C    -3.4427960    0.8693740   -0.0866700  
H    -3.6762370    2.9276520    2.1738390  
H     0.4210500    1.9283300    1.9780140  
H    -1.7888900   -1.5346830   -2.4216240  
H    -4.4840310   -0.3421030   -1.9916360  
H    -1.2309480    3.3530120    3.2495800  
C     1.7681570   -1.5345250    3.2035050  
C     2.9905020   -1.5480690    2.5811650  
C     2.7915630   -1.0162800    1.2621800  
C     1.4163230   -0.6881860    1.1439630  
N     0.8201640   -1.0160950    2.3439150  
C     0.8295310   -0.1267410   -0.0091300  
C     1.6978190    0.1040590   -1.0778740  
O     1.2379740    0.6766860   -2.2192720  
C     3.0745370   -0.2422240   -1.0061730  
O     3.7763300   -0.0247900   -2.1747930  
C     3.6260850   -0.7982500    0.1449480  
H     3.9208860   -1.8851770    3.0158130  
H    -0.1627990   -0.9015260    2.5398780  
H     2.0010880    0.7428680   -2.8222600  
H     4.6827140    0.2742830   -1.9777430  
H     1.4923980   -1.8476390    4.2005270  
C     5.4671880   -2.4784050    0.3847230  
C     6.8160300   -2.5495010    0.2762400  
C     7.2925220   -1.2158060   -0.0254140  
C     6.0849270   -0.3512970   -0.0727890  
N     5.0003430   -1.1695990    0.1818440  
C     6.1115470    0.9899820   -0.3227200  
C     7.4041550    1.6291340   -0.5563770  
O     7.5288070    2.8271060   -0.7595160  
C     8.6901820    0.7252650   -0.5348200  
O     9.7768750    1.2340490   -0.7580220  
C     8.5317770   -0.7031330   -0.2389730  
H     7.4240400   -3.4357160    0.3858440  
H     5.2285790    1.6206290   -0.2721330  
H     9.4312990   -1.3105050   -0.2032460  
H     4.7441040   -3.2567450    0.5868750  
