62


C     0.1525650    4.0713590    1.2694310  
C    -0.6157720    5.1914300    1.3506540  
C    -1.8367320    4.9365920    0.6296690  
C    -1.7566160    3.6206290    0.1174230  
N    -0.5239500    3.0869860    0.5321100  
C    -2.7525990    3.0719720   -0.6986460  
C    -3.8740130    3.8508030   -0.9546480  
O    -4.8694300    3.3517680   -1.7349850  
C    -3.9844060    5.1605920   -0.4206290  
O    -5.1521650    5.8037930   -0.7633030  
C    -2.9777570    5.7103140    0.3544840  
H    -0.3542820    6.0983840    1.8783360  
H    -2.6751740    2.0969130   -1.1642070  
H    -5.5609140    4.0327720   -1.8054070  
H    -5.1699980    6.6898970   -0.3719780  
H    -3.0669620    6.7255380    0.7348220  
H     1.1119000    3.8385130    1.7061950  
C    -0.0273780    1.8208580    0.3063020  
C     1.2675580    1.3967080    0.1752970  
C     1.2444290   -0.0320390    0.0293610  
C    -0.1656530   -0.4227480    0.0537160  
N    -0.8969580    0.7331380    0.1999320  
C    -0.6760170   -1.7141270   -0.0097740  
C     0.3322920   -2.7640310   -0.0832490  
O     0.1053430   -3.9658640    0.0240300  
C     1.8255000   -2.3632860   -0.3468660  
O     2.5665470   -3.2686090   -0.7091670  
C     2.2659210   -0.9663570   -0.1340410  
H     2.1249030    2.0430150    0.0928540  
H    -1.8426560    0.7336880    0.5612340  
C     3.6723510   -0.6623480   -0.0995360  
C     4.3576060    0.4732710    0.3590990  
C     5.7431010    0.2351520    0.2096810  
C     5.8823140   -1.0718770   -0.3514680  
N     4.6257290   -1.5817260   -0.5230160  
C     7.1300720   -1.6390540   -0.6372980  
C     8.2533910   -0.8814450   -0.3495450  
O     9.4902210   -1.3799460   -0.6033360  
C     8.1343870    0.4273740    0.2158570  
O     9.3508960    1.0368560    0.4372400  
C     6.9084970    0.9867280    0.4956930  
H     3.9108170    1.3441470    0.8119800  
H     4.3616940   -2.5049280   -0.8449680  
H     7.2429570   -2.6300550   -1.0632900  
H    10.1401770   -0.7076050   -0.3329470  
H     9.2132090    1.9142400    0.8242850  
H     6.8393370    1.9840400    0.9247680  
C    -2.0881630   -2.0292940    0.0424190  
C    -3.2043730   -1.2362380   -0.1718590  
C    -4.3712130   -2.0570970   -0.0148530  
C    -3.8750260   -3.4167690    0.3134810  
N    -2.5023370   -3.3270510    0.3433310  
C    -4.6768790   -4.4909220    0.5309770  
C    -6.1219540   -4.3087920    0.4405340  
O    -6.9205930   -5.2168490    0.6212530  
C    -6.6701800   -2.8749950    0.0938920  
O    -7.8801760   -2.7088010    0.0171350  
C    -5.7068750   -1.7995230   -0.1208700  
H    -3.2230300   -0.2155200   -0.5218000  
H    -4.2960540   -5.4793980    0.7683150  
H    -6.0952680   -0.8147160   -0.3633900  
H    -1.8334530   -4.0841890    0.4196550  
