60


C    -7.3130710   -0.8212380   -1.9690530  
C    -8.0749070    0.2557010   -1.6023000  
C    -7.2122980    1.1675000   -0.9048600  
C    -5.9220840    0.5743820   -0.8839480  
N    -6.0086660   -0.6300900   -1.5457860  
C    -4.8215680    1.2054060   -0.2736680  
C    -5.0308450    2.4541430    0.3095380  
O    -3.9903460    3.1050720    0.9028970  
C    -6.3135840    3.0566450    0.2756760  
O    -6.3495550    4.2951930    0.8850730  
C    -7.3964550    2.4332550   -0.3152860  
H    -9.1281640    0.3888040   -1.8060550  
H    -5.2616660   -1.3010900   -1.6362640  
H    -4.3449560    3.9358100    1.2666920  
H    -7.2630130    4.6151920    0.9236100  
H    -8.3698770    2.9185040   -0.3294170  
H    -7.5855510   -1.7203720   -2.5029420  
C    -2.3841290    1.1895080   -0.8107970  
C    -1.2914950    0.3948300   -0.6331570  
C    -1.7169960   -0.7707290    0.0929540  
C    -3.1698990   -0.5968620    0.3180230  
N    -3.5254520    0.6191690   -0.2602910  
C    -3.9730650   -1.4928470    0.9509740  
C    -3.3771950   -2.7385630    1.4195940  
O    -4.0316870   -3.6370030    1.9247560  
C    -1.8249850   -2.9199370    1.2825080  
O    -1.3095370   -3.8517160    1.8681550  
C    -1.0445030   -1.9007180    0.5232220  
H    -0.2974520    0.5983060   -0.9983700  
H    -5.0347350   -1.3348730    1.1056430  
H    -2.4643500    2.1477710   -1.3044070  
C     0.3716130   -2.1066480    0.3094120  
C     1.3812340   -1.1636780    0.2944010  
C     2.5908910   -1.8824590    0.0325520  
C     2.1358200   -3.3021620   -0.1359070  
N     0.8528150   -3.4293910    0.0401670  
C     3.0508490   -4.3544300   -0.4778860  
C     4.3547640   -4.0240660   -0.6268480  
O     5.3198920   -4.9013910   -0.9276920  
C     4.8673550   -2.6142410   -0.4228130  
O     6.0839070   -2.4675370   -0.4926870  
C     3.9110520   -1.5191790   -0.1073850  
H     1.2895590   -0.1088660    0.5005220  
H     2.6925530   -5.3708880   -0.5955580  
H     6.1528710   -4.3760000   -0.9259570  
C     4.3984940   -0.1613470    0.0456560  
C     3.9438070    0.7986800    0.9133720  
C     4.7466600    1.9719500    0.6573430  
C     5.6658490    1.5507150   -0.4488220  
N     5.4695080    0.3147700   -0.7974150  
C     6.6273890    2.4633530   -1.0153630  
C     6.6887350    3.7129330   -0.4990180  
O     7.5361520    4.6637920   -0.9194230  
C     5.7849160    4.1604560    0.6259870  
O     5.9135920    5.3183390    1.0253030  
C     4.8039970    3.2191520    1.1803680  
H     3.1930440    0.6878010    1.6826160  
H     7.2774630    2.1369190   -1.8193420  
H     7.3428160    5.4476430   -0.3576330  
H     4.1665800    3.5791160    1.9822480  
