62


C     3.2464070   -0.7164920   -2.7862030  
C     3.1221470   -0.4785770   -1.4335560  
C     3.9954790   -1.4233000   -0.7701210  
C     4.6143180   -2.1985230   -1.7828390  
N     4.1331900   -1.7479350   -2.9976860  
C     5.5226060   -3.2271940   -1.5031810  
C     5.8099730   -3.4817200   -0.1718940  
O     6.6919920   -4.4673480    0.1573420  
C     5.1887630   -2.7255610    0.8590520  
O     5.5662050   -3.1078680    2.1306540  
C     4.2894420   -1.7140800    0.5783810  
H     4.4261770   -2.0858900   -3.9010590  
H     5.9995370   -3.8188810   -2.2778130  
H     6.7641650   -4.4782490    1.1275670  
H     5.1753510   -2.5073790    2.7826620  
H     3.8197420   -1.1593480    1.3870280  
H     2.7830320   -0.2032860   -3.6171010  
C     0.9405200    0.7561850   -1.1323060  
C     2.2448180    0.5216990   -0.8272510  
C     2.6060000    1.5147010    0.1851010  
C     1.3887640    2.3236850    0.4413110  
N     0.4065650    1.8344110   -0.3953640  
C     1.3214860    3.3434140    1.3480730  
C     2.5205760    3.6788840    2.1112330  
O     2.5464960    4.5505420    2.9663090  
C     3.8326810    2.8696640    1.8114110  
O     4.8581420    3.1563710    2.4066680  
C     3.7710850    1.7797900    0.8270820  
H     0.3973130    3.8569670    1.5976400  
H     4.6775760    1.2115020    0.6455630  
H     0.3028540    0.2433900   -1.8389310  
C    -3.5917480   -0.1157940   -0.1601490  
C    -2.2202620    0.1528890   -0.1113060  
C    -2.0371350    1.5151080   -0.4482850  
C    -3.3310070    2.0676110   -0.6893150  
N    -4.2403270    1.0626070   -0.5138430  
C    -3.5335970    3.4150130   -1.0110530  
C    -2.4094340    4.2199940   -1.0952760  
O    -2.5351600    5.5335410   -1.3986480  
C    -1.0955320    3.6942740   -0.8891130  
O    -0.0907480    4.6094240   -1.0934020  
C    -0.9010210    2.3578390   -0.5698510  
H    -1.4545840   -0.5428730    0.1929940  
H    -5.2493890    1.1337840   -0.5237800  
H    -4.5170160    3.8398400   -1.1788510  
H    -1.6377390    5.9158980   -1.3889280  
H     0.6657610    4.4312770   -0.5026110  
C    -2.4722510   -4.4446270    0.3159490  
C    -2.3866890   -3.1241210    0.0077710  
C    -3.7250690   -2.5885390    0.2212020  
C    -4.5057770   -3.7679010    0.6565080  
N    -3.7718380   -4.8487310    0.7242850  
C    -5.9139900   -3.6948590    0.9540100  
C    -6.5331110   -2.5047050    0.7937620  
O    -7.8513900   -2.3077630    1.0000870  
C    -5.7884930   -1.2922420    0.3407630  
O    -6.4604750   -0.2688670    0.1658100  
C    -4.2992220   -1.3435220    0.1183310  
H    -1.5211280   -2.5989890   -0.3664800  
H    -6.4468730   -4.5838430    1.2728180  
H    -8.0166310   -1.3656750    0.7876900  
H    -1.6861360   -5.1889310    0.2718380  
