64


C    -0.1760780    1.6439600   -0.1418850  
C     1.0420180    0.9945430   -0.2520530  
C     0.8101630   -0.4059850   -0.1230850  
C    -0.5926900   -0.5707520    0.0356000  
N    -1.1592010    0.6830690    0.0289480  
C    -1.2335030   -1.8185370    0.1669330  
C    -0.3891550   -2.9305090    0.1094560  
O    -0.9055930   -4.1838120    0.1790970  
C     1.0141860   -2.7990820   -0.0562160  
O     1.6825820   -4.0076060   -0.0509570  
C     1.6535820   -1.5535480   -0.1522930  
H     1.9914630    1.4692300   -0.4405770  
H    -2.1462210    0.8909670    0.0721310  
H    -0.1361670   -4.7821420    0.1176940  
H     2.2764610   -4.0288310   -0.8312530  
C     2.2815340    5.0210150    1.2167470  
C     1.4216560    6.0327730    0.8767380  
C     0.2548840    5.4193940    0.3072070  
C     0.4797080    4.0188750    0.3150930  
N     1.7277240    3.8051880    0.8632880  
C    -0.4679910    3.0742400   -0.1438150  
C    -1.6878800    3.6048800   -0.5753020  
O    -2.6843170    2.7602860   -1.0025140  
C    -1.9251990    4.9998390   -0.5950580  
O    -3.1786590    5.3404290   -1.0755510  
C    -0.9741400    5.9111400   -0.1754090  
H     1.5947450    7.0908510    1.0181250  
H     2.0773990    2.8948190    1.1285750  
H    -3.4496180    3.3152830   -1.2334840  
H    -3.2970880    6.2993690   -1.0122920  
H    -1.1826030    6.9788130   -0.2007470  
H     3.2585330    5.0627540    1.6775530  
C    -4.4907200   -0.4277220   -2.4756520  
C    -5.5494840   -0.8728110   -1.7269900  
C    -5.0040000   -1.5044230   -0.5586820  
C    -3.5911290   -1.4095570   -0.6560470  
N    -3.3088850   -0.7546220   -1.8386960  
C    -2.7039160   -1.9366550    0.3093470  
C    -3.2978260   -2.5625480    1.4073430  
O    -2.5218780   -3.0561960    2.4114120  
C    -4.7096170   -2.6685190    1.5162370  
O    -5.1286340   -3.3164850    2.6663150  
C    -5.5625340   -2.1549760    0.5590720  
H    -6.5960130   -0.7683830   -1.9791620  
H    -2.3835540   -0.5161800   -2.1602110  
H    -3.1194450   -3.4798900    3.0513120  
H    -6.0943310   -3.3868830    2.6596010  
H    -6.6408600   -2.2515020    0.6717680  
H    -4.4742510    0.0978830   -3.4200100  
C     4.6919370    0.8487610    2.0396530  
C     5.8427400    0.4223830    1.4752220  
C     5.4314730   -0.5465250    0.4648080  
C     3.9342940   -0.5695820    0.5551840  
N     3.5181170    0.2538170    1.4728780  
C     3.1193390   -1.4582110   -0.2883710  
C     3.8415280   -2.2379520   -1.1483170  
O     3.2644800   -3.1316680   -2.0053220  
C     5.3184060   -2.2156100   -1.2744620  
O     5.8402370   -2.9563850   -2.1153660  
C     6.1021780   -1.3162610   -0.4108030  
H     6.8575810    0.7067570    1.7165210  
H     4.0240960   -3.5183880   -2.5017970  
H     7.1821160   -1.3284090   -0.5231530  
H     4.5651200    1.5609810    2.8463830  
