60


C    -3.0140560    0.1736640   -3.4983360  
C    -2.0496430   -0.3495300   -2.6652100  
C    -2.7064830   -1.2199970   -1.7372130  
C    -4.0808950   -1.1887530   -2.0699630  
N    -4.2385570   -0.3301870   -3.1368850  
C    -5.0591640   -1.9440930   -1.4084210  
C    -4.6449300   -2.7695900   -0.3816240  
O    -5.5464990   -3.5373240    0.2863160  
C    -3.2772270   -2.8371160    0.0009710  
O    -3.0540420   -3.6879860    1.0201220  
C    -2.2738010   -2.0517190   -0.6442670  
H    -0.9947070   -0.1485660   -2.7604070  
H    -5.1178410   -0.1091620   -3.5781010  
H    -6.1101590   -1.9052600   -1.6768260  
H    -5.0469030   -4.0179010    0.9718700  
H    -2.0623260   -3.6729330    1.2153000  
H    -2.9181380    0.8604870   -4.3269950  
C    -0.9231040   -2.0856590   -0.1717910  
C     0.1980440   -1.3407480   -0.5262570  
C     1.2678870   -1.7891520    0.2920930  
C     0.6688110   -2.8700720    1.1410310  
N    -0.5989800   -3.0204260    0.8690720  
C     1.4322600   -3.6136100    2.0940110  
C     2.7436360   -3.2872780    2.2092440  
O     3.5899120   -3.8784960    3.0476000  
C     3.3869340   -2.1617030    1.4081800  
O     4.5554940   -1.9061180    1.7078270  
C     2.5981320   -1.4364750    0.4138650  
H     0.2678500   -0.5811310   -1.2849710  
H     0.9751240   -4.3997880    2.6840850  
H     4.4444220   -3.3974460    2.9194330  
C     1.6364880    2.8229170   -0.1159460  
C     2.6707750    3.1877080   -0.9340120  
C     3.4552570    2.0062430   -1.1845200  
C     2.7935460    0.9058580   -0.4506830  
N     1.6643890    1.4557420    0.1471220  
C     3.2546890   -0.3748180   -0.3618170  
C     4.4721380   -0.6878280   -1.1549460  
O     4.8985830   -1.8217290   -1.2702320  
C     5.1957090    0.4727020   -1.9278100  
O     6.2371300    0.2191150   -2.5150170  
C     4.5944600    1.7995020   -1.9038020  
H     2.8373570    4.1664990   -1.3587600  
H     5.1014330    2.5961210   -2.4392520  
H     1.1734370    1.0114000    0.9096790  
C     0.8692670    4.9928480    0.7337600  
C    -0.2391640    5.5652800    1.2504470  
C    -1.2703880    4.5503500    1.3166940  
C    -0.6680680    3.3044400    0.7812500  
N     0.6612180    3.6279720    0.4504950  
C    -1.3471320    2.1405320    0.6351380  
C    -2.7497480    2.0933170    1.0690710  
O    -3.4266380    1.0829980    0.9822140  
C    -3.3931690    3.3940770    1.6625600  
O    -4.5565960    3.3705430    2.0283470  
C    -2.5589960    4.5969980    1.7395900  
H    -0.3351310    6.5920400    1.5729620  
H    -0.9358940    1.2378260    0.1983570  
H    -3.0139340    5.5036900    2.1265220  
H     1.8477740    5.4146320    0.5533230  
