62


C     5.4383070   -1.3045650    2.1511780  
C     6.7852170   -1.5068710    2.0350060  
C     7.1907290   -0.9576370    0.7717060  
C     6.0269470   -0.4227300    0.1600110  
N     4.9547820   -0.6484760    1.0197890  
C     6.0591970    0.2294650   -1.0836430  
C     7.2860240    0.3184300   -1.7285440  
O     7.3705930    0.9431030   -2.9372760  
C     8.4555260   -0.2262680   -1.1375260  
O     9.5942710   -0.0607920   -1.9013030  
C     8.4215490   -0.8495080    0.0972960  
H     7.4172570   -1.9968600    2.7629430  
H     5.1877340    0.6997670   -1.5272590  
H     8.3036170    0.9170970   -3.2116840  
H    10.3590610   -0.4191730   -1.4271180  
H     9.3344040   -1.2463190    0.5373700  
H     4.7490480   -1.5879010    2.9331510  
C     1.9896070    1.6714610    3.3515820  
C     3.1462790    1.0813930    2.9157980  
C     2.8378940    0.4268510    1.6760680  
C     1.4662520    0.6633190    1.4040610  
N     0.9741930    1.4146890    2.4485100  
C     0.8015090    0.1541200    0.2635530  
C     1.5884700   -0.5879620   -0.6243470  
O     1.0492210   -1.0447900   -1.7829210  
C     2.9584960   -0.8473370   -0.3689020  
O     3.5570540   -1.6424660   -1.3188780  
C     3.5897190   -0.3546880    0.7701210  
H     4.1054500    1.1096880    3.4118210  
H     0.0364330    1.7819290    2.5019690  
H     1.7488170   -1.5410550   -2.2457130  
H     4.5246710   -1.5407730   -1.2884270  
H     1.7980310    2.2632400    4.2352690  
C    -1.8702790    3.7300510    0.0227100  
C    -0.7698080    2.9515330    0.1502320  
C    -1.2536310    1.5815520    0.0130740  
C    -2.7205060    1.7314220   -0.2048630  
N    -3.0673870    2.9883120   -0.1917000  
C    -3.6173430    0.5867810   -0.4105030  
C    -2.9875900   -0.6293150   -0.4126610  
O    -3.6215150   -1.8028240   -0.6217870  
C    -1.5270300   -0.8122550   -0.1622540  
O    -1.1186750   -1.9695200   -0.0783120  
C    -0.6307270    0.3745080    0.0176660  
H     0.2562660    3.2596470    0.2918520  
H    -2.9166240   -2.4842330   -0.5247430  
H    -1.9330160    4.8112380    0.0529740  
C    -5.6349280    1.9332830   -1.1121390  
C    -5.0442150    0.7969860   -0.6194440  
C    -6.1920990   -0.0952900   -0.3237210  
C    -7.3847470    0.7014140   -0.7435230  
N    -7.0434780    1.8728960   -1.2075960  
C    -8.7277470    0.2023560   -0.6174330  
C    -8.8997730   -1.0209960   -0.0634810  
O   -10.0911850   -1.6093520    0.1288420  
C    -7.7271680   -1.8339410    0.4058740  
O    -7.9599730   -2.9311210    0.9119320  
C    -6.3565320   -1.3045260    0.2479020  
H    -9.5607720    0.8122930   -0.9488840  
H    -9.8866170   -2.4740940    0.5488910  
H    -5.5454950   -1.9390080    0.5793810  
H    -5.1289780    2.8384520   -1.4123140  
