60


C    -6.0581540    4.2497070   -0.4160100  
C    -5.1022290    3.2885070   -0.2090610  
C    -5.7892200    2.0569970    0.0576040  
C    -7.1804240    2.3394230   -0.0093210  
N    -7.3119890    3.6833880   -0.2920940  
C    -8.1668360    1.3654750    0.1740150  
C    -7.7388280    0.0720840    0.4353610  
O    -8.6567100   -0.9143580    0.6487800  
C    -6.3588160   -0.2360000    0.5007950  
O    -6.1031710   -1.5696510    0.7858800  
C    -5.3610470    0.7236070    0.3111720  
H    -4.0339220    3.4412640   -0.2557360  
H    -8.1868720    4.1693950   -0.4109670  
H    -9.2292050    1.5824320    0.1307620  
H    -8.1588470   -1.7223770    0.8645600  
H    -5.2155900   -1.6483880    1.1684240  
H    -5.9501930    5.3008940   -0.6429730  
C    -2.9319160    1.0719130    1.0004240  
C    -3.9354690    0.3813300    0.3877340  
C    -3.2297730   -0.7351010   -0.2861520  
C    -1.7920780   -0.5357880    0.0671970  
N    -1.6360430    0.5172410    0.8199470  
C    -0.7460370   -1.4222810   -0.4157760  
C    -1.1504710   -2.4440420   -1.2274410  
O    -0.3172140   -3.3705930   -1.7189700  
C    -2.5827960   -2.6500960   -1.6169580  
O    -2.8469580   -3.6048130   -2.3466480  
C    -3.6186870   -1.7282410   -1.1076460  
H    -0.8729000   -3.9505540   -2.2853370  
H    -4.6443100   -1.9113320   -1.4102140  
H    -3.0302790    1.9713920    1.5957190  
C     1.6058760   -0.9565940    3.3512580  
C     0.6153600   -1.1324430    2.4420160  
C     1.2135720   -1.0638640    1.1261920  
C     2.6604510   -0.8416440    1.3489190  
N     2.8413090   -0.8275060    2.7198900  
C     3.6144950   -0.6948080    0.3770760  
C     3.1332690   -0.7745920   -1.0106000  
O     3.8733010   -0.6978120   -1.9776770  
C     1.5965050   -0.9824960   -1.2769260  
O     1.2142930   -0.9340370   -2.4319110  
C     0.6804750   -1.1804280   -0.1304950  
H    -0.4323870   -1.2704350    2.6546820  
H     1.5497330   -0.9254100    4.4313190  
H     3.6823090   -0.4802750    3.1568540  
C     5.7704830   -1.3056580    1.5430840  
C     5.0448260   -0.5447280    0.6689910  
C     5.9827990    0.4367000    0.1103800  
C     7.2958120    0.1696750    0.7462690  
N     7.0925350   -0.8898670    1.6109390  
C     8.4358720    0.8623080    0.4957790  
C     8.3786190    1.9681890   -0.4537320  
O     9.3478800    2.6536110   -0.7421410  
C     6.9922910    2.2890600   -1.1211910  
O     6.9123770    3.2274250   -1.8965000  
C     5.8354470    1.4479700   -0.7808820  
H     9.3860300    0.6400230    0.9718920  
H     4.8979320    1.6600920   -1.2812290  
H     5.4433960   -2.1569710    2.1262880  
H     7.8238240   -1.3655660    2.1162290  
