60


C    -5.2683820   -0.8492640    0.0115630  
C    -6.1079360   -1.7317530   -0.6207780  
C    -7.4341850   -1.4502060   -0.1519130  
C    -7.3361340   -0.3694760    0.7634220  
N    -6.0018930   -0.0141140    0.8428520  
C    -8.4495090    0.1771620    1.4121500  
C    -9.6873720   -0.3805060    1.1329690  
O   -10.8038270    0.1085020    1.7416610  
C    -9.8067170   -1.4598390    0.2148770  
O   -11.1042490   -1.8982450    0.0420380  
C    -8.7053410   -1.9947660   -0.4254850  
H    -5.8112560   -2.4665290   -1.3562380  
H    -5.6015970    0.6389250    1.4991760  
H    -8.3788890    1.0037860    2.1113630  
H   -11.5625280   -0.4040540    1.4128190  
H   -11.1215160   -2.6230040   -0.6003110  
H    -8.8212460   -2.8196500   -1.1254040  
C    -2.9796290   -1.7972390    0.1469010  
C    -1.6940960   -1.4016990   -0.0371960  
C    -1.7116610    0.0022610   -0.3785600  
C    -3.1364950    0.3996680   -0.3831820  
N    -3.8710630   -0.7403660   -0.0574920  
C    -3.6019520    1.6460040   -0.6627880  
C    -2.6267410    2.6860260   -0.9387300  
O    -2.9255840    3.8431000   -1.1906840  
C    -1.0987900    2.3096100   -0.8965730  
O    -0.2924000    3.2049010   -1.0857000  
C    -0.6987060    0.8996830   -0.6485540  
H    -0.8188760   -2.0194630    0.0903310  
H    -4.6559820    1.8984250   -0.6906100  
H    -3.3763950   -2.7618600    0.4323310  
C     1.1725900   -0.6705280   -1.2850010  
C     0.6977960    0.4988370   -0.7560580  
C     1.9241740    1.2020700   -0.3087590  
C     3.0319040    0.2642260   -0.6436180  
N     2.5734020   -0.8149350   -1.2225500  
C     4.4346200    0.5487840   -0.3484460  
C     4.6728300    1.7617260    0.2397990  
O     5.9035690    2.2269140    0.5274170  
C     3.5829260    2.7091770    0.6048790  
O     3.9007490    3.7717680    1.1422590  
C     2.1753180    2.3742500    0.2990670  
H     5.7527710    3.1075550    0.9400050  
H     1.4239370    3.1128440    0.5477420  
H     0.5937160   -1.4510540   -1.7632080  
C     5.4164260   -1.2719680   -1.7706230  
C     5.4689900   -0.4278870   -0.6903770  
C     6.7034610   -0.7613720    0.0263540  
C     7.3572740   -1.8420240   -0.7557580  
N     6.5267520   -2.0879490   -1.8325340  
C     8.5264760   -2.4474730   -0.4298960  
C     9.2032090   -2.0336070    0.7944420  
O    10.2592840   -2.5179070    1.1719620  
C     8.5166420   -0.9209090    1.6634980  
O     9.0502340   -0.5716750    2.7049110  
C     7.2544400   -0.3376320    1.1940190  
H     8.9751190   -3.2358270   -1.0267600  
H     6.8141780    0.4417650    1.8016240  
H     4.6345440   -1.3551170   -2.5098110  
H     6.6888770   -2.7920450   -2.5357620  
