62


C    -3.6257260   -0.0454290   -2.2610340  
C    -4.2428530    1.1329390   -2.5794900  
C    -5.2622540    1.3587190   -1.5934220  
C    -5.2211060    0.2660110   -0.6906390  
N    -4.2067790   -0.5916590   -1.1132790  
C    -6.0646130    0.1754710    0.4227000  
C    -6.9780390    1.1996920    0.6161910  
O    -7.8297580    1.1576770    1.6806650  
C    -7.0405040    2.2979100   -0.2833730  
O    -7.9989020    3.2381280    0.0473500  
C    -6.1986590    2.3889620   -1.3754910  
H    -4.0180400    1.7543950   -3.4359660  
H    -6.0514730   -0.6665170    1.1041750  
H    -8.4213270    1.9263620    1.6069600  
H    -8.1018830    3.8651140   -0.6836540  
H    -6.2585640    3.2419290   -2.0487920  
H    -2.8586430   -0.5993150   -2.7849480  
C    -0.2638020   -1.4436640    0.4207160  
C    -0.4771480   -2.7373910    0.8229750  
C    -1.8564980   -3.0671090    0.5743040  
C    -2.4554450   -1.8555460   -0.0271880  
N    -1.4647230   -0.8942480   -0.0568350  
C    -3.7438130   -1.7552770   -0.4606720  
C    -4.6214170   -2.9249150   -0.2765450  
O    -5.7855500   -2.9429540   -0.6344200  
C    -4.0121230   -4.1995390    0.4241800  
O    -4.7483980   -5.1551380    0.6167240  
C    -2.6036410   -4.1841470    0.8050290  
H     0.2478050   -3.3729220    1.3110000  
H    -2.1937580   -5.0809030    1.2587510  
H    -1.5132950   -0.0775530   -0.6499490  
C     2.2193950   -1.1218340    0.3379730  
C     0.9375760   -0.6393820    0.4501670  
C     1.0400820    0.8047390    0.5681500  
C     2.4128330    1.1324810    0.5167370  
N     3.1268830   -0.0716930    0.3636630  
C     2.8808160    2.4415240    0.6768830  
C     1.9349730    3.4426260    0.8536710  
O     2.3426760    4.7293600    1.0015740  
C     0.5505510    3.1320840    0.8991400  
O    -0.2569060    4.2257480    1.0960020  
C     0.0982020    1.8302140    0.7724280  
H     3.9324770    2.6990120    0.7004600  
H     1.5511700    5.2771810    1.1459530  
H    -1.1841620    3.9514930    1.1651850  
H    -0.9618840    1.6098690    0.8642880  
H     2.5661820   -2.1289130    0.1623950  
C     4.4981770   -0.2409150    0.2495600  
C     5.2685300   -1.2908590    0.6605310  
C     6.6208640   -1.0186940    0.2425360  
C     6.5838040    0.2916020   -0.4514570  
N     5.2691620    0.7483190   -0.3683670  
C     7.6507690    0.8809740   -1.0377000  
C     8.9463710    0.2005280   -0.9606240  
O     9.9614560    0.6594300   -1.4580170  
C     9.0195970   -1.1689380   -0.1923390  
O    10.0956160   -1.7416070   -0.1118150  
C     7.7871070   -1.7063640    0.3831500  
H     4.9352920   -2.1334330    1.2481900  
H     7.6033230    1.8375960   -1.5489690  
H     7.8459510   -2.6612850    0.8962230  
H     4.8751420    1.3988680   -1.0343700  
