64


C     6.2439290    2.4854870    0.4204940  
C     5.7462280    3.6446540    0.9570150  
C     4.3170560    3.5749250    0.8504820  
C     4.0024960    2.3431580    0.2283630  
N     5.1956820    1.7048960   -0.0295920  
C     2.6739150    1.8953340    0.0047700  
C     1.6458220    2.7677390    0.4140750  
O     0.3618330    2.4481470    0.1632050  
C     1.9584610    4.0180300    1.0177580  
O     0.8575750    4.7874170    1.3338650  
C     3.2610710    4.4230270    1.2364520  
H     6.3273290    4.4524350    1.3802760  
H     5.2657100    0.7657360   -0.3915340  
H    -0.2400350    3.1792350    0.4283440  
H     1.1517960    5.5704690    1.8221070  
H     3.4615800    5.3879110    1.6990720  
H     7.2646120    2.1481990    0.3084440  
C     2.4353170    0.6102630   -0.6349840  
C     3.1519250    0.0784910   -1.6785350  
C     2.6446800   -1.2499800   -1.8801590  
C     1.5998350   -1.4093560   -0.8080610  
N     1.4489970   -0.3150470   -0.1183170  
C     0.9075960   -2.6741670   -0.6119880  
C     1.1926910   -3.6543760   -1.5153220  
O     0.6370680   -4.8713220   -1.4887760  
C     2.1841320   -3.4875420   -2.6450550  
O     2.3370190   -4.4550230   -3.3962330  
C     2.9111170   -2.2331030   -2.7741820  
H     3.8933260    0.5808210   -2.2851590  
H     1.0407150   -5.3453710   -2.2526830  
H     3.6415510   -2.1508600   -3.5730040  
C    -3.2020390   -1.2451090    0.3566170  
C    -3.4093000   -2.0312490    1.4613550  
C    -2.2004890   -2.7691530    1.6789220  
C    -1.2849680   -2.3843640    0.6631570  
N    -1.9249890   -1.4674540   -0.1429740  
C     0.0001470   -2.9452300    0.5330920  
C     0.3613170   -3.8824850    1.5014470  
O     1.5919110   -4.4697180    1.4523270  
C    -0.5312400   -4.2531710    2.5403210  
O    -0.0075000   -5.1909940    3.4134690  
C    -1.8029760   -3.7251940    2.6329730  
H    -4.3162480   -2.0613660    2.0487360  
H    -1.4786470   -0.9079350   -0.8549460  
H     1.6282610   -5.1111650    2.1828170  
H    -0.6811350   -5.4332720    4.0655590  
H    -2.4776560   -4.0401500    3.4265550  
C    -5.2780410   -0.6501710   -0.8878390  
C    -5.8769550    0.4920710   -1.3443880  
C    -5.0144230    1.5908170   -1.0050270  
C    -3.8957260    1.0403990   -0.3305750  
N    -4.0677210   -0.3387300   -0.2732750  
C    -2.8510290    1.8172250    0.1758680  
C    -2.9385560    3.1842810   -0.0174520  
O    -1.9377570    3.9955010    0.4663880  
C    -4.0361640    3.7644350   -0.6976980  
O    -3.9632500    5.1412600   -0.8133180  
C    -5.0705510    2.9865290   -1.1897930  
H    -6.8223680    0.5453100   -1.8669370  
H    -1.9941650    1.3901020    0.6852340  
H    -2.1073760    4.9033460    0.1624000  
H    -4.7075850    5.4580250   -1.3458990  
H    -5.9103070    3.4504290   -1.7038090  
H    -5.5899840   -1.6829920   -0.9464880  
