62


C    -3.5347070    0.2813520   -0.3784760  
C    -4.0052540    1.5676190   -0.2837360  
C    -5.4342510    1.4812760   -0.1786900  
C    -5.7754520    0.1029980   -0.2043140  
N    -4.5955070   -0.6116100   -0.3155340  
C    -7.0950640   -0.3522480   -0.1139290  
C    -8.0945620    0.6023730    0.0030170  
O    -9.4007110    0.2125660    0.0869840  
C    -7.7732400    1.9844000    0.0381020  
O    -8.8753040    2.8105350    0.1640050  
C    -6.4669120    2.4305740   -0.0485810  
H    -3.3948960    2.4590130   -0.2528460  
H    -4.5172760   -1.5976740   -0.5129140  
H    -7.3585630   -1.4047720   -0.1329010  
H    -9.9360900    1.0205100    0.1681500  
H    -8.5844780    3.7339410    0.1892340  
H    -6.2463070    3.4958430   -0.0181330  
C    -1.3205250    0.3345570   -1.4787610  
C    -0.1344500   -0.3351430   -1.3911750  
C    -0.2731820   -1.3266380   -0.3616430  
C    -1.5937310   -1.2067040    0.1453610  
N    -2.2275640   -0.1819530   -0.5555380  
C    -2.0974890   -2.0080420    1.1747630  
C    -1.2597880   -2.9949200    1.6700160  
O    -1.6906810   -3.8214130    2.6619330  
C     0.0498220   -3.1728440    1.1577750  
O     0.7568350   -4.1818340    1.7792950  
C     0.5833400   -2.3358600    0.1645060  
H     0.7466160   -0.1187700   -1.9736170  
H    -3.0926940   -1.8843720    1.5863400  
H    -0.9465160   -4.4282780    2.8375720  
H     1.1438710   -4.7549770    1.0842260  
H    -1.6294560    1.1380110   -2.1309750  
C     3.9343100    0.5371440   -0.3086630  
C     4.9428730   -0.2887750   -0.7066030  
C     4.3532290   -1.6115450   -0.7896390  
C     2.9245970   -1.4079680   -0.3876400  
N     2.6894330   -0.1631960   -0.1106800  
C     1.9730840   -2.5231560   -0.3008390  
C     2.5017220   -3.7407170   -0.6190440  
O     1.7809540   -4.8976170   -0.5833510  
C     3.9080970   -3.9679320   -1.0470890  
O     4.2440260   -5.1227960   -1.3281650  
C     4.8331580   -2.8271590   -1.1189640  
H     5.9606250   -0.0205180   -0.9531600  
H     2.4153040   -5.5920160   -0.8815650  
H     5.8572420   -3.0280850   -1.4181510  
C     6.8122000    3.2845720    1.7146180  
C     6.2397130    2.1574140    1.2220780  
C     5.0110500    2.6041240    0.5840650  
C     5.0035430    4.0849360    0.8153240  
N     6.0596450    4.4740230    1.4720800  
C     3.9225740    4.9179390    0.3619280  
C     2.8996050    4.3202380   -0.2915810  
O     1.8352810    4.9742470   -0.7803620  
C     2.8880390    2.8398450   -0.5796150  
O     1.9781230    2.4191300   -1.2855990  
C     3.9927530    1.9734140   -0.0642690  
H     6.5973180    1.1411040    1.2967420  
H     3.9460170    5.9863740    0.5451770  
H     1.2947440    4.2911360   -1.2352640  
H     7.7436770    3.3694030    2.2620430  
