64


C    -5.5437680   -1.5376590    3.3553670  
C    -4.4594990   -1.0359620    2.6827270  
C    -4.7357330   -1.1599470    1.2795750  
C    -6.0251310   -1.7463660    1.1641940  
N    -6.4888910   -1.9692850    2.4443650  
C    -6.6409770   -2.0003770   -0.0653650  
C    -5.9346750   -1.6587070   -1.2093250  
O    -6.4723940   -1.9083320   -2.4377260  
C    -4.6512180   -1.0676030   -1.1201790  
O    -4.0760990   -0.8006830   -2.3548900  
C    -4.0282670   -0.7972960    0.0999760  
H    -3.5728840   -0.6176680    3.1365250  
H    -7.3815410   -2.3753620    2.6765640  
H    -7.6217460   -2.4562550   -0.1539780  
H    -5.8011960   -1.6542720   -3.0955850  
H    -3.1105730   -0.7997980   -2.2614610  
H    -5.7243550   -1.6260340    4.4173460  
C    -1.6399980   -0.5445740    0.9501270  
C    -2.6950680   -0.1832880    0.1683750  
C    -2.2214330    1.0392290   -0.5168410  
C    -0.8330200    1.2546030    0.0008770  
N    -0.5072330    0.3069990    0.8423530  
C    -0.0142490    2.3855760   -0.4169220  
C    -0.5749660    3.2060520   -1.3582810  
O     0.0604210    4.2508870   -1.9045000  
C    -1.9651570    3.0161400   -1.8824490  
O    -2.3775250    3.8152140   -2.7237110  
C    -2.7803520    1.8830960   -1.4032820  
H    -0.5887980    4.6542680   -2.5226260  
H    -3.7776320    1.7707530   -1.8147510  
H    -1.5822560   -1.3987140    1.6134190  
C     3.5209710   -0.2492620    0.1739660  
C     4.3328490    0.6895340    0.7813380  
C     3.6021590    1.9181960    0.8488770  
C     2.3329410    1.6826250    0.2586150  
N     2.3206000    0.3738180   -0.1558870  
C     1.3145810    2.6550350    0.1754070  
C     1.6213130    3.9038820    0.7301770  
O     0.6816530    4.8880980    0.7663740  
C     2.8928140    4.1598910    1.3082890  
O     3.0225770    5.4467930    1.8021600  
C     3.8783030    3.1959970    1.3749570  
H     5.3123930    0.4946760    1.1940490  
H     1.5692220   -0.0648110   -0.6636190  
H     1.0937690    5.6573130    1.1974090  
H     3.8813270    5.5382010    2.2401900  
H     4.8395740    3.4187870    1.8338390  
C     7.0905020   -2.7209470   -0.9553190  
C     6.2490340   -1.6799600   -0.6614370  
C     4.9593370   -2.2441180   -0.3748000  
C     5.0830260   -3.6506230   -0.5210420  
N     6.3927580   -3.9121250   -0.8687130  
C     4.0117790   -4.5334730   -0.3428850  
C     2.7871400   -3.9783950   -0.0064230  
O     1.7071900   -4.7885190    0.1983860  
C     2.6325460   -2.5769570    0.1449280  
O     1.3355370   -2.2072530    0.4763280  
C     3.6975200   -1.6867320   -0.0340990  
H     6.5095340   -0.6318540   -0.6675590  
H     6.7749810   -4.8275240   -1.0450550  
H     4.1057080   -5.6092970   -0.4497160  
H     0.9779150   -4.2049990    0.4746640  
H     1.3077240   -1.3416320    0.9255240  
H     8.1374810   -2.7169090   -1.2241150  
