62


C    -4.0875380   -0.6840460    0.0534640  
C    -4.0367430   -2.0543620   -0.1283520  
C    -5.3632060   -2.5646720    0.0181440  
C    -6.2078610   -1.4539810    0.2948740  
N    -5.4160510   -0.3210370    0.2754190  
C    -7.5819150   -1.5863550    0.5154890  
C    -8.1211990   -2.8633530    0.4478410  
O    -9.4561520   -3.0491130    0.6584090  
C    -7.2968650   -3.9838480    0.1564160  
O    -7.9838540   -5.1828630    0.1156970  
C    -5.9386820   -3.8502530   -0.0600620  
H    -3.1485840   -2.6139890   -0.3884300  
H    -5.6844300    0.5701330    0.6653660  
H    -8.2295700   -0.7430490    0.7327780  
H    -9.6314910   -4.0017820    0.5679930  
H    -7.3645700   -5.9033040   -0.0726920  
H    -5.3273470   -4.7234600   -0.2793310  
C    -1.7281080    0.0931780    0.4187560  
C    -3.0333400    0.3066340    0.0385010  
C    -3.1229110    1.6985810   -0.3591730  
C    -1.8423510    2.2707980   -0.1802750  
N    -0.9939870    1.2633550    0.3067570  
C    -1.5534040    3.5887010   -0.5415120  
C    -2.5855450    4.3520430   -1.0721020  
O    -2.3502360    5.6468010   -1.4293670  
C    -3.8740680    3.7957080   -1.2580570  
O    -4.7907480    4.6688790   -1.8084260  
C    -4.1500180    2.4824190   -0.9144870  
H    -0.5752310    4.0333670   -0.4185700  
H    -3.1778670    6.0005050   -1.7983280  
H    -5.6198220    4.2010120   -1.9873520  
H    -5.1325350    2.0599680   -1.1118290  
H    -1.2607900   -0.8038250    0.7910840  
C     2.2366020   -1.3281140   -0.8288900  
C     3.3351790   -0.6845260   -0.2984470  
C     2.7632610    0.5023580    0.3673650  
C     1.3094080    0.3880570    0.1220690  
N     1.0214630   -0.6909470   -0.5745990  
C     0.3728240    1.3805420    0.6119270  
C     0.8919480    2.4098310    1.3538510  
O     0.1435130    3.3785120    1.9122370  
C     2.3490320    2.5408390    1.6069450  
O     2.7269790    3.4957100    2.2946960  
C     3.2815810    1.5271640    1.0719430  
H     0.7929940    3.9578130    2.3727960  
H     4.3416610    1.6331680    1.2701450  
H     2.2305890   -2.2485370   -1.4009980  
C     4.7127930   -1.0566670   -0.3710890  
C     5.2919850   -2.1467530   -0.9859690  
C     6.6988990   -2.0327940   -0.7480610  
C     6.8383650   -0.7704940    0.0593270  
N     5.6851860   -0.2093090    0.2744040  
C     8.1219930   -0.2990340    0.5066890  
C     9.2072590   -1.0364340    0.1727760  
O    10.4628810   -0.7293120    0.5138000  
C     9.1004060   -2.3147300   -0.6409590  
O    10.1586380   -2.9004050   -0.8826510  
C     7.7899840   -2.7729570   -1.0831040  
H     4.7960400   -2.9326440   -1.5384040  
H     8.1983140    0.6133850    1.0874730  
H    11.0131370   -1.4500460    0.1269660  
H     7.7484830   -3.6896950   -1.6627480  
