62


C    -4.1101860    0.4151600   -0.2830550  
C    -5.1326290   -0.4987120   -0.2166290  
C    -4.5332890   -1.7768820    0.0443430  
C    -3.1329320   -1.5661740    0.1385540  
N    -2.8962460   -0.2171640   -0.0441660  
C    -2.2346010   -2.6114130    0.4118520  
C    -2.7661790   -3.8888530    0.5979710  
O    -1.9320200   -4.9354580    0.8637290  
C    -4.1640190   -4.0998180    0.5277580  
O    -4.5314960   -5.4120480    0.7523780  
C    -5.0471750   -3.0698370    0.2542720  
H    -6.1862100   -0.2737360   -0.2982090  
H    -1.9991180    0.1911890   -0.2661100  
H    -2.4893910   -5.7308510    0.9317830  
H    -5.4784100   -5.5202890    0.5795150  
H    -6.1172570   -3.2596860    0.2116300  
C    -0.0674000   -2.6801870    1.6539060  
C     1.2332760   -2.3444150    1.4681190  
C     1.3579860   -1.8045570    0.1318530  
C    -0.0031460   -1.8544030   -0.4525140  
N    -0.8353650   -2.3932620    0.5205380  
C    -0.3254710   -1.4399240   -1.7090720  
C     0.7319410   -0.8867980   -2.5381790  
O     0.5526010   -0.4744050   -3.6742930  
C     2.1863770   -0.8121140   -1.9427130  
O     3.0724200   -0.3594240   -2.6474760  
C     2.4344930   -1.3157440   -0.5683360  
H     2.0224370   -2.4362430    2.1985290  
H    -1.3213430   -1.5282290   -2.1287890  
H    -0.5554450   -3.1068200    2.5184810  
C     4.3775220   -2.4237160    0.5779980  
C     3.8029770   -1.3510370   -0.0459990  
C     4.8181460   -0.2902850   -0.0458610  
C     6.0092940   -0.8539770    0.6368760  
N     5.6705470   -2.1468070    0.9895080  
C     7.1729470   -0.1890210    0.8506530  
C     7.2722630    1.1940070    0.3990910  
O     8.2746380    1.8768280    0.5470980  
C     6.0147930    1.8259690   -0.2998410  
O     6.0619490    2.9910500   -0.6596040  
C     4.8209330    0.9908860   -0.4912800  
H     8.0296040   -0.6319100    1.3495640  
H     3.9806460    1.4351180   -1.0110000  
H     3.9551430   -3.4051360    0.7480510  
H     6.3034390   -2.8138400    1.4028890  
C    -4.9465700    2.3577770   -1.5578140  
C    -4.7460160    3.7070930   -1.5821140  
C    -3.7741700    4.0155210   -0.5683720  
C    -3.4179610    2.7947000    0.0559870  
N    -4.1444290    1.7773630   -0.5716100  
C    -2.5130100    2.7303010    1.1233390  
C    -1.9371360    3.9192260    1.5469730  
O    -1.0444820    3.9078550    2.5786120  
C    -2.2680570    5.1488520    0.9206040  
O    -1.6129920    6.2407040    1.4547730  
C    -3.1776560    5.2090480   -0.1194040  
H    -5.2233570    4.4050750   -2.2561770  
H    -2.2596090    1.8067850    1.6309400  
H    -0.7415600    4.8233160    2.7078590  
H    -1.8215700    7.0315320    0.9358910  
H    -3.4284700    6.1638410   -0.5770980  
H    -5.5680810    1.7241040   -2.1731880  
