62


C    -4.5841150   -0.0399750    0.0655480  
C    -5.2283990   -1.2070330    0.4189480  
C    -6.6395790   -0.9693730    0.3716800  
C    -6.8200010    0.3787970   -0.0265740  
N    -5.5609120    0.9550320   -0.1482960  
C    -8.0820080    0.9500910   -0.2123210  
C    -9.1878670    0.1454850    0.0230060  
O   -10.4416970    0.6505140   -0.1449830  
C    -9.0270550   -1.2024950    0.4455400  
O   -10.2208170   -1.8651550    0.6480500  
C    -7.7767570   -1.7635750    0.6243470  
H    -4.7372080   -2.1151870    0.7385850  
H    -5.3853760    1.7358960   -0.7684640  
H    -8.2251690    1.9800790   -0.5223470  
H   -11.0719510   -0.0579200    0.0730730  
H   -10.0449050   -2.7740460    0.9330880  
H    -7.6771040   -2.7988860    0.9437570  
C    -1.0507030   -2.4795330   -1.2053300  
C    -2.3190420   -2.0504430   -0.9140810  
C    -2.2047150   -0.7109030   -0.4124500  
C    -0.8292740   -0.3781330   -0.4227260  
N    -0.1511790   -1.4784790   -0.8968800  
C    -0.3141710    0.9021460   -0.0770270  
C    -1.2869270    1.8527190    0.3034280  
O    -0.9224960    3.0774450    0.7398700  
C    -2.6648020    1.5284160    0.3234360  
O    -3.4638240    2.5777170    0.7488370  
C    -3.1612050    0.2661220   -0.0162420  
H    -3.2293780   -2.6111670   -1.0633180  
H     0.8364820   -1.4870840   -1.1034850  
H    -1.7423040    3.5329720    1.0079250  
H    -4.3110080    2.2216470    1.0716280  
H    -0.7065430   -3.4241000   -1.6018890  
C     1.1025500    1.1877390   -0.1176600  
C     2.1491980    0.3001620    0.0495120  
C     3.3504120    1.0609060   -0.1337400  
C     2.8591240    2.4466560   -0.4232800  
N     1.5596470    2.5170280   -0.4112300  
C     3.7674100    3.5355950   -0.6650010  
C     5.0919300    3.2683480   -0.5954360  
O     6.0556520    4.1775780   -0.7925040  
C     5.6256870    1.8791530   -0.3206970  
O     6.8472290    1.7412780   -0.3826750  
C     4.6863920    0.7679810   -0.0659030  
H     2.0959060   -0.7248250    0.3865240  
H     3.3853510    4.5275450   -0.8782310  
H     6.8984250    3.6755790   -0.7037680  
C     4.1652110   -3.2067500   -2.0042890  
C     4.0951700   -1.8885900   -1.6815930  
C     4.9243020   -1.6854490   -0.5095460  
C     5.4952630   -3.0124610   -0.1782390  
N     4.9742940   -3.8946120   -1.1074610  
C     6.3728810   -3.2555690    0.8294600  
C     6.7915830   -2.1348290    1.6587160  
O     7.6059960   -2.2361390    2.5633830  
C     6.1515450   -0.7272460    1.3784520  
O     6.3822640    0.1812330    2.1549540  
C     5.2390170   -0.5656060    0.2140000  
H     3.5443620   -1.1260130   -2.2108030  
H     6.7938960   -4.2353040    1.0331290  
H     3.6980990   -3.7385300   -2.8229280  
H     5.2406650   -4.8633180   -1.1884840  
