60


C    -6.1452760   -2.5602270    2.4759510  
C    -5.1451700   -1.9384910    1.7721140  
C    -5.7703460   -1.0619710    0.8230730  
C    -7.1736670   -1.1920070    1.0165870  
N    -7.3696650   -2.1213510    2.0168020  
C    -8.1154600   -0.4513230    0.3007820  
C    -7.6301100    0.4723910   -0.6144290  
O    -8.4958590    1.2325200   -1.3343220  
C    -6.2381780    0.6520680   -0.8164050  
O    -5.9421350    1.5905940   -1.7783140  
C    -5.2829900   -0.1259090   -0.1436560  
H    -4.0872310   -2.1003410    1.9142980  
H    -8.2661120   -2.3933400    2.3887940  
H    -9.1856540   -0.5536470    0.4491440  
H    -7.9401480    1.8239290   -1.8775790  
H    -5.2102950    2.1426060   -1.4262240  
H    -6.0839940   -3.2903570    3.2704200  
C    -2.0288720   -3.0757230   -0.9417840  
C    -3.2507900   -2.5235310   -0.7673940  
C    -3.0107330   -1.0942910   -0.5886010  
C    -1.5361530   -0.9636560   -0.6795060  
N    -0.9680880   -2.1208620   -0.8739660  
C    -0.8427710    0.3225290   -0.5538120  
C    -1.6672200    1.4091370   -0.4626750  
O    -1.2178930    2.6848000   -0.4613820  
C    -3.1467450    1.3036060   -0.4362740  
O    -3.7666240    2.3818820   -0.4472420  
C    -3.8362180   -0.0237530   -0.4027490  
H    -4.2132730   -3.0122920   -0.7705700  
H    -2.0251530    3.2430160   -0.4262470  
H    -1.7781770   -4.1133400   -1.1236300  
C     1.4123990   -0.5209950   -1.2432570  
C     0.6157950    0.3770480   -0.5774690  
C     1.5274560    1.3026520    0.1049740  
C     2.8980300    0.8637160   -0.2559890  
N     2.7516910   -0.2185990   -1.0936310  
C     4.0505550    1.4472210    0.1952250  
C     3.9257890    2.6208790    1.0720020  
O     4.8905050    3.2511670    1.4738820  
C     2.4823160    3.0724700    1.4899170  
O     2.3752320    4.0292060    2.2393600  
C     1.3322270    2.3448830    0.9555910  
H     0.3488030    2.6921780    1.2400220  
H     1.1046570   -1.3803830   -1.8183880  
H     3.5108180   -0.8132010   -1.3947690  
C     6.3825360    1.8195020   -0.5957690  
C     7.5106950    1.1130760   -0.8394270  
C     7.2403170   -0.2690990   -0.5113430  
C     5.8321890   -0.3130370   -0.0395190  
N     5.3410320    0.9863800   -0.1421950  
C     5.2210140   -1.4389160    0.4196390  
C     5.9745070   -2.6931610    0.4193720  
O     5.5026090   -3.7465360    0.8178510  
C     7.4481350   -2.6736420   -0.1223610  
O     8.0784240   -3.7180740   -0.1638970  
C     8.0076740   -1.3891040   -0.5511050  
H     8.4467360    1.5105730   -1.2039910  
H     4.2197770   -1.4532780    0.8357830  
H     9.0413070   -1.3765550   -0.8834900  
H     6.1934720    2.8769580   -0.7003370  
