60


C     4.2489650   -1.5687550    2.7325280  
C     5.0651100   -2.5333770    2.2027260  
C     4.4106180   -3.0403310    1.0305380  
C     3.1873760   -2.3330830    0.8953790  
N     3.1125940   -1.4527310    1.9539760  
C     2.2471980   -2.6028010   -0.1284840  
C     2.6067820   -3.6048170   -1.0412550  
O     1.7950310   -3.8693290   -2.0979100  
C     3.8312670   -4.3080620   -0.9228700  
O     4.0279600   -5.2481560   -1.9175680  
C     4.7273290   -4.0447060    0.0948480  
H     6.0171070   -2.8535570    2.6032270  
H     2.3758720   -0.7792430    2.0934880  
H     2.1549400   -4.6511770   -2.5524250  
H     4.7995180   -5.7917910   -1.7006880  
H     5.6598830   -4.6009810    0.1660240  
H     4.3769460   -0.9474490    3.6075530  
C     1.0076180    1.6965100   -0.1856470  
C     1.7093410    0.5111340   -0.1636100  
C     0.7614670   -0.5676310   -0.2279630  
C    -0.5728190    0.0565090   -0.3144510  
N    -0.3585650    1.4099720   -0.2880000  
C    -1.7825410   -0.6034860   -0.4206850  
C    -1.6901990   -2.0693160   -0.4311290  
O    -2.6513810   -2.8086600   -0.5851660  
C    -0.2908020   -2.7588120   -0.2307750  
O    -0.2849890   -3.9553550   -0.0104530  
C     0.9440610   -1.9342790   -0.2343920  
H     2.7830330    0.4321810   -0.1249350  
H    -1.0840800    2.1113780   -0.2525530  
C     5.1009300    3.2767630    0.1908650  
C     4.8872650    4.6106150    0.1497650  
C     3.4436230    4.7625670    0.0151010  
C     2.9259390    3.3573450   -0.0135590  
N     3.8984620    2.5032130    0.0937790  
C     1.4944220    3.0621470   -0.1429470  
C     0.6764940    4.1622520   -0.2196380  
O    -0.6653490    4.0953760   -0.3356910  
C     1.1770510    5.5696940   -0.1877810  
O     0.3358580    6.4684700   -0.2673850  
C     2.6190990    5.8244550   -0.0663580  
H     5.6135920    5.4093540    0.2043440  
H    -0.9679520    5.0340610   -0.3689530  
H     2.9437650    6.8602730   -0.0466760  
H     6.0413330    2.7481490    0.2851650  
C    -3.2804670    1.2940300   -1.2027820  
C    -3.0524340    0.0895100   -0.5867800  
C    -4.3954000   -0.2908010   -0.0677070  
C    -5.2759740    0.8360660   -0.4765630  
N    -4.6167140    1.7448150   -1.1471370  
C    -6.6776920    0.8679880   -0.1551070  
C    -7.1878830   -0.1622470    0.5611950  
O    -8.4734880   -0.2602070    0.9420040  
C    -6.3255640   -1.3063470    1.0025980  
O    -6.8538060   -2.2027950    1.6599680  
C    -4.8905400   -1.3255080    0.6377960  
H    -7.2862680    1.7051840   -0.4787470  
H    -8.5299730   -1.1066370    1.4379550  
H    -4.3178680   -2.1953900    0.9337880  
H    -2.5668140    1.8946480   -1.7544240  
