64


C     4.5600380   -0.3460030   -0.0166050  
C     5.2754410   -1.5221330   -0.2033050  
C     6.6657060   -1.2036270   -0.1209550  
C     6.7535490    0.1947380    0.1181760  
N     5.4698010    0.6855730    0.1659650  
C     7.9776600    0.8602460    0.2644100  
C     9.1331340    0.1016580    0.1690720  
O    10.3528670    0.6983710    0.3046380  
C     9.0646270   -1.2988350   -0.0699390  
O    10.3024260   -1.9113120   -0.1399480  
C     7.8571730   -1.9534750   -0.2153670  
H     4.8548100   -2.5143260   -0.2911850  
H     5.1920040    1.6167290    0.4390190  
H     8.0493800    1.9273720    0.4472450  
H    11.0257640    0.0023390    0.2104480  
H    10.1844560   -2.8618340   -0.2831100  
H     7.8313460   -3.0263070   -0.3973180  
C     1.3149800   -2.5659280   -1.9966930  
C     0.2573080   -1.8436660   -1.5096920  
C     0.8079880   -0.8174750   -0.6703250  
C     2.2174980   -0.9763320   -0.6782270  
N     2.4930820   -2.0613270   -1.4827260  
C     3.1180910   -0.1168770   -0.0040220  
C     2.5166740    0.9657710    0.6520570  
O     3.2874640    1.8939620    1.3008930  
C     1.1120580    1.1335570    0.7087290  
O     0.6986970    2.1870310    1.5000790  
C     0.2498810    0.2469780    0.0687100  
H    -0.7861420   -2.0123710   -1.7346640  
H     3.4221280   -2.2971980   -1.7981770  
H     2.6670390    2.5404690    1.6879760  
H    -0.0708900    2.6329790    1.0987020  
H     1.3284680   -3.4103040   -2.6711050  
C    -2.0344280   -0.5542190    0.6867150  
C    -3.3078130   -0.0831340    0.7509590  
C    -3.2901080    1.2820920    0.2394200  
C    -1.8833020    1.5468640   -0.1441290  
N    -1.1598520    0.4092610    0.1646190  
C    -1.4504360    2.7187620   -0.6946850  
C    -2.4211000    3.7904650   -0.9052940  
O    -2.1315650    4.8617410   -1.4148490  
C    -3.9049550    3.5416620   -0.4515820  
O    -4.7205970    4.4404190   -0.5673250  
C    -4.2563680    2.2220100    0.0945420  
H    -0.4394250    2.8611790   -1.0660010  
H    -5.2919090    2.0427940    0.3651390  
H    -1.6448830   -1.5162890    0.9889110  
C    -4.5219050   -1.2231850    2.5971190  
C    -5.7265570   -1.8416230    2.7749670  
C    -6.4310600   -1.7722840    1.5242420  
C    -5.5907370   -1.0911490    0.6087870  
N    -4.4183060   -0.7540630    1.2856830  
C    -5.9483780   -0.8698170   -0.7268870  
C    -7.1897890   -1.3293820   -1.1401750  
O    -7.5890050   -1.1373020   -2.4306450  
C    -8.0510950   -2.0030780   -0.2341360  
O    -9.2500790   -2.3996720   -0.7951470  
C    -7.6872220   -2.2298900    1.0803250  
H    -6.0784240   -2.2896040    3.6942910  
H    -5.3029480   -0.3618390   -1.4346160  
H    -8.4816780   -1.5141800   -2.5156330  
H    -9.8012380   -2.8190650   -0.1181190  
H    -8.3594020   -2.7569520    1.7547070  
H    -3.7125240   -1.0417430    3.2898710  
