60


C     4.3537230   -0.1918820    2.2874490  
C     5.5797750    0.4012870    2.2387660  
C     5.8287990    0.7609020    0.8682890  
C     4.7082270    0.3390840    0.1123430  
N     3.7982300   -0.2487130    1.0020490  
C     4.5986850    0.5822380   -1.2606970  
C     5.6515380    1.2357660   -1.8832040  
O     5.5936790    1.4875310   -3.2231160  
C     6.7888770    1.6491140   -1.1429490  
O     7.7505670    2.2881900   -1.9010130  
C     6.8862530    1.4222350    0.2180640  
H     6.2447780    0.5488410    3.0790060  
H     3.7531390    0.2584160   -1.8541080  
H     6.4318520    1.9127150   -3.4732610  
H     8.5304250    2.4625870   -1.3537410  
H     7.7591160    1.7599600    0.7732550  
H     3.8240390   -0.6416850    3.1139880  
C    -0.0761360    0.3101970    2.9558750  
C     1.2193290    0.4299150    2.5696320  
C     1.4244240   -0.4754840    1.4569650  
C     0.1269900   -1.1363830    1.2162180  
N    -0.7499190   -0.5980620    2.1409150  
C    -0.1345250   -2.0808680    0.2577350  
C     0.9828370   -2.4207180   -0.6355380  
O     0.8569570   -3.1056060   -1.6352140  
C     2.4058750   -1.8187190   -0.3414010  
O     3.3548140   -2.2418300   -0.9727120  
C     2.5350320   -0.7759300    0.7086620  
H     1.9572600    1.0910440    2.9972160  
H    -0.6078140    0.8223050    3.7466340  
H    -1.6679270   -0.9758040    2.3208210  
C    -4.1352840   -0.4402390   -0.6597780  
C    -4.8272170   -1.6242170   -0.7208650  
C    -3.9173550   -2.6982650   -0.4279090  
C    -2.6053710   -2.0643600   -0.1783440  
N    -2.8057350   -0.6880510   -0.2607850  
C    -1.4399610   -2.7306690    0.0601740  
C    -1.5333000   -4.2106930    0.1497660  
O    -0.5877680   -4.9023740    0.4783900  
C    -2.9201200   -4.9003890   -0.1145570  
O    -2.9791410   -6.1205260   -0.0860230  
C    -4.0764430   -4.0519750   -0.3798120  
H    -5.8870250   -1.7248000   -0.9077750  
H    -5.0293870   -4.5370890   -0.5668820  
H    -2.0475940   -0.0790930   -0.5422100  
C    -5.6409690    1.3150030   -1.6768020  
C    -4.5894540    0.9040590   -0.9002510  
C    -4.0366440    2.1581620   -0.3511650  
C    -4.9105360    3.2213210   -0.9322420  
N    -5.8410160    2.7099360   -1.6975730  
C    -4.7116840    4.6110170   -0.6341410  
C    -3.7078180    4.9400000    0.2168800  
O    -3.4145920    6.1943030    0.5827080  
C    -2.8299640    3.8905240    0.8440390  
O    -1.9557320    4.2599260    1.6231660  
C    -3.0493050    2.4646720    0.5111140  
H    -5.3591450    5.3584180   -1.0787170  
H    -2.6573610    6.1250450    1.2043700  
H    -2.4017980    1.7416530    0.9973920  
H    -6.2934330    0.6865860   -2.2716030  
