62


C    -4.9932680    0.8328760   -2.0073400  
C    -5.0033710    0.1229430   -0.8131440  
C    -6.3659460    0.2066560   -0.3097610  
C    -7.1071630    0.9669660   -1.2487990  
N    -6.2416820    1.3174700   -2.2719750  
C    -8.4577830    1.2895420   -1.0876050  
C    -9.0874070    0.8412870    0.0634960  
O   -10.4048520    1.1231490    0.2759780  
C    -8.3639360    0.0931070    1.0260150  
O    -9.1174220   -0.2778670    2.1243920  
C    -7.0273820   -0.2206820    0.8593930  
H    -6.4870810    1.8728640   -3.0770860  
H    -9.0144210    1.8718060   -1.8148310  
H   -10.6506540    0.7173960    1.1253990  
H    -8.5789440   -0.8292630    2.7110810  
H    -6.5078050   -0.8077250    1.6080820  
H    -4.1670490    1.0236440   -2.6722610  
C    -0.8176760    1.2478280   -1.1121000  
C    -0.1623140    0.2881100   -0.3822310  
C    -1.2496240   -0.6051680    0.0731800  
C    -2.4912090    0.0104800   -0.4788610  
N    -2.2089760    1.0874230   -1.1705680  
C    -3.8303400   -0.5339930   -0.2452660  
C    -3.8595400   -1.6731520    0.5205300  
O    -4.9896190   -2.3611720    0.8010700  
C    -2.6474340   -2.2924390    1.1012300  
O    -2.7814060   -3.3205930    1.7745380  
C    -1.3158130   -1.6993860    0.8498690  
H    -4.6817090   -3.1245030    1.3406040  
H    -0.4590840   -2.2008630    1.2815270  
H    -0.3619970    2.0639240   -1.6598730  
C     2.9256210    3.3863290    0.3977520  
C     1.7318030    2.7785510    0.1954420  
C     2.0433290    1.3689100    0.0099740  
C     3.5272250    1.3021930    0.1163180  
N     4.0270700    2.4892960    0.3537640  
C     4.2766380    0.0576050   -0.0168210  
C     3.5002000   -1.0714890   -0.0389840  
O     4.0011830   -2.3161300   -0.0078280  
C     2.0094800   -1.0455470   -0.1084760  
O     1.4316940   -2.1349360   -0.1398150  
C     1.2682800    0.2544090   -0.1471630  
H     0.7487350    3.2254680    0.2156040  
H     3.2219110   -2.9108240   -0.0661240  
H     3.1186420    4.4341900    0.5936800  
C     7.5596370    1.9976870    2.3285070  
C     8.6052530    1.3182600    1.7615970  
C     8.0487890    0.4772080    0.7398340  
C     6.6432140    0.6810120    0.7552100  
N     6.3688840    1.5896970    1.7560190  
C     5.7513060   -0.0082230   -0.1047470  
C     6.3591370   -0.8331240   -1.0666430  
O     5.6066940   -1.4419990   -2.0242040  
C     7.7621180   -1.0335320   -1.0926580  
O     8.1785940   -1.8982780   -2.0921060  
C     8.6069790   -0.4155420   -0.1937890  
H     9.6482580    1.4006090    2.0357400  
H     5.5250460    2.1545430    1.7046600  
H     6.2140820   -1.9833110   -2.5583530  
H     9.1448870   -1.9582340   -2.0819100  
H     9.6797050   -0.5969190   -0.2270510  
H     7.5586690    2.7445030    3.1104750  
