62


C    -1.4647070   -0.1718500    0.8594920  
C    -2.8291250   -0.0679400    0.8639870  
C    -3.1684360    1.2429820    0.3650300  
C    -1.9492130    1.9014330    0.0838280  
N    -0.9039550    1.0218040    0.4023050  
C    -1.9097720    3.1875480   -0.4651630  
C    -3.1196760    3.8224000   -0.7004510  
O    -3.1312880    5.0772660   -1.2311760  
C    -4.3496400    3.1805590   -0.3972230  
O    -5.4630030    3.9429710   -0.6805060  
C    -4.3876250    1.9038480    0.1310210  
H    -0.9874490    3.7092820   -0.6856860  
H    -4.0614370    5.3510780   -1.3090320  
H    -6.2637650    3.4397210   -0.4702130  
H    -5.3346510    1.4162090    0.3463420  
H    -0.8327010   -0.9820920    1.1898570  
C     2.1797590   -1.4529770   -1.4700070  
C     0.9964220   -0.9421200   -1.0496690  
C     1.2812550    0.3029750   -0.3707120  
C     2.7456610    0.4874900   -0.4382080  
N     3.2542350   -0.6336960   -1.0966710  
C     3.4163880    1.5833930    0.0069320  
C     2.6509870    2.6414100    0.6454700  
O     3.1402130    3.6905800    1.0345920  
C     1.1048530    2.4305600    0.8430700  
O     0.4817660    3.2398940    1.5035200  
C     0.4728920    1.2305990    0.2342140  
H     0.0220130   -1.3811930   -1.2005480  
H     4.4849570    1.7197730   -0.1114030  
H     2.3866830   -2.3658060   -2.0116580  
C     5.0907950   -1.2293920   -2.6526230  
C     4.5932810   -0.8720500   -1.4388770  
C     5.7387550   -0.9437870   -0.5133640  
C     6.8704200   -1.3480550   -1.3995090  
N     6.4812310   -1.5151390   -2.6344580  
C     8.2019400   -1.5186920   -0.8836510  
C     8.3946330   -1.3477730    0.4470620  
O     9.5793380   -1.4894320    1.0596690  
C     7.2638880   -0.9822650    1.3690690  
O     7.5129550   -0.8525130    2.5645880  
C     5.9062430   -0.7815810    0.8115630  
H     9.0096650   -1.7933160   -1.5528620  
H     9.4125090   -1.3059820    2.0099870  
H     5.1229910   -0.4938610    1.5056230  
H     4.5471370   -1.3165100   -3.5859170  
C    -3.6814800   -1.6129880    2.6160780  
C    -4.6736390   -2.5454080    2.7451110  
C    -5.3839720   -2.5826420    1.4976800  
C    -4.7652730   -1.6380210    0.6384150  
N    -3.7212250   -1.0458880    1.3445730  
C    -5.1828660   -1.4331080   -0.6835040  
C    -6.2602620   -2.1788230   -1.1371540  
O    -6.7128640   -2.0123910   -2.4164520  
C    -6.9008660   -3.1178450   -0.2871490  
O    -7.9592670   -3.7810760   -0.8826810  
C    -6.4761760   -3.3282260    1.0118460  
H    -4.8823750   -3.1311090    3.6300660  
H    -4.6991360   -0.7261520   -1.3479650  
H    -7.4551470   -2.6287830   -2.5389160  
H    -8.3344340   -4.4160640   -0.2550200  
H    -6.9768230   -4.0606440    1.6425990  
H    -2.9454970   -1.2644400    3.3264620  
