60


C     3.8087270    0.1482390   -0.1765440  
C     4.3894090    0.5902730   -1.3478900  
C     5.7677570    0.2079730   -1.3226590  
C     5.9848690   -0.4787350   -0.0983910  
N     4.7741950   -0.5304130    0.5661020  
C     7.2344900   -0.9882850    0.2719120  
C     8.2859550   -0.8072330   -0.6135990  
O     9.5267010   -1.2800570   -0.3015190  
C     8.0852930   -0.1346190   -1.8499530  
O     9.2271370   -0.0422460   -2.6232710  
C     6.8501700    0.3670800   -2.2126520  
H     3.8692830    1.0922690   -2.1525910  
H     4.6695870   -0.7620550    1.5425270  
H     7.4057120   -1.5101020    1.2078370  
H    10.1161260   -1.0526300   -1.0412110  
H     9.0292510    0.4484570   -3.4344900  
H     6.7215810    0.8805580   -3.1634760  
C     1.6216870    1.3587330    0.0642750  
C     2.4471210    0.2995750    0.3044220  
C     1.6781590   -0.6493800    1.1031490  
C     0.3460940   -0.0314370    1.3200910  
N     0.3488130    1.1728150    0.6236310  
C    -0.6325490   -0.5854150    2.0853840  
C    -0.3987220   -1.8988770    2.6798700  
O    -1.2286520   -2.4725530    3.3692100  
C     0.9755910   -2.6015940    2.3990450  
O     1.1758940   -3.7183410    2.8495820  
C     1.9720590   -1.8776550    1.6037510  
H    -1.5789840   -0.0992310    2.2902950  
H     2.9241030   -2.3688680    1.4310930  
H     1.8352700    2.2752760   -0.4631910  
C    -3.8877030    0.6549080   -0.3963790  
C    -4.2721930    1.9643320   -0.2368570  
C    -3.1118200    2.7276610    0.1323930  
C    -1.9879010    1.7643470    0.1877860  
N    -2.5043960    0.5452140   -0.1545940  
C    -0.7056630    2.1080110    0.5320530  
C    -0.4213600    3.5249260    0.7993470  
O     0.6987910    3.9361940    1.0595550  
C    -1.6110290    4.5531200    0.7263100  
O    -1.3656510    5.7291430    0.9465010  
C    -2.9376030    4.0566920    0.3857720  
H    -5.2747740    2.3350160   -0.3730630  
H    -3.7527960    4.7716610    0.3427360  
H    -2.0088760   -0.3347110   -0.1415420  
C    -8.1740110    0.2861280   -1.3389460  
C    -8.2992120   -1.0415660   -1.5514340  
C    -6.9608900   -1.5878420   -1.3582100  
C    -6.1200660   -0.3935840   -1.0193730  
N    -6.8357170    0.6887140   -1.0121440  
C    -4.6832440   -0.5085650   -0.7439030  
C    -4.1753210   -1.7803530   -0.8252320  
O    -2.8851530   -2.0919770   -0.6109540  
C    -5.0048020   -2.9850560   -1.1631820  
O    -4.4241160   -4.0690430   -1.2012350  
C    -6.4414770   -2.8275600   -1.4288940  
H    -9.1879690   -1.6000260   -1.8094500  
H    -2.8311880   -3.0723420   -0.7144970  
H    -7.0074630   -3.7224310   -1.6682270  
H    -8.9396220    1.0504510   -1.3854330  
