62


C    -3.1210520   -2.6929010   -0.0013660  
C    -3.9288720   -3.7745440    0.1575450  
C    -5.2850030   -3.2968440    0.2508760  
C    -5.2458190   -1.8870770    0.1404040  
N    -3.8967670   -1.5219540   -0.0303240  
C    -6.3954440   -1.0967880    0.2597090  
C    -7.6077760   -1.7500620    0.4432920  
O    -8.7499550   -1.0194710    0.5561930  
C    -7.6660560   -3.1647160    0.5241250  
O    -8.9379660   -3.6602940    0.7047200  
C    -6.5213040   -3.9379750    0.4400520  
H    -3.6029900   -4.8050000    0.1943530  
H    -6.3830420   -0.0138730    0.2549000  
H    -9.4837560   -1.6414400    0.7031420  
H    -8.9077970   -4.6242900    0.7969680  
H    -6.5787170   -5.0206760    0.5278060  
H    -2.0531440   -2.6243760   -0.1420840  
C    -3.3653670   -0.2637520   -0.2113000  
C    -2.1073290    0.1927850    0.0885160  
C    -2.0285250    1.5607580   -0.3492650  
C    -3.3505450    1.8833250   -0.9356830  
N    -4.1395120    0.7463930   -0.7838130  
C    -3.6859260    3.0718360   -1.4879890  
C    -2.6837760    4.1355460   -1.4835330  
O    -2.8997030    5.2483190   -1.9353100  
C    -1.2712150    3.8280600   -0.8666330  
O    -0.4144400    4.6930840   -0.9328790  
C    -1.0241700    2.4939450   -0.2790720  
H    -1.3519590   -0.3457260    0.6398580  
H    -4.6654590    3.2861530   -1.9041920  
H    -4.9461050    0.5537150   -1.3609060  
C     2.0504510   -0.4258700   -1.4849600  
C     3.0106340   -0.1185590   -0.5351830  
C     2.4540670    0.9408040    0.2845040  
C     1.1641420    1.2186000   -0.2248560  
N     0.9516790    0.3664130   -1.2965040  
C     0.3049460    2.2023330    0.3030530  
C     0.7950320    2.9138360    1.3989320  
O     0.0150470    3.8536660    1.9909440  
C     2.0780600    2.6341240    1.9401230  
O     2.3904900    3.4062990    3.0382340  
C     2.9062930    1.6639390    1.4063550  
H     0.1352580    0.3894560   -1.8886370  
H     0.5435870    4.2795220    2.6881340  
H     3.2872760    3.2013170    3.3418150  
H     3.8679960    1.4515960    1.8665220  
H     2.0976550   -1.1325770   -2.3009440  
C     4.3070940   -0.7432200   -0.4374070  
C     4.7196640   -1.9992620   -0.8087500  
C     6.1263470   -2.1132910   -0.5430530  
C     6.5413080   -0.8049690    0.0220660  
N     5.3888410   -0.0380760    0.1216180  
C     7.8147390   -0.4835690    0.3543520  
C     8.8542740   -1.4984640    0.1854710  
O    10.0259570   -1.2973940    0.4671220  
C     8.4311080   -2.9080980   -0.3693930  
O     9.2919740   -3.7674690   -0.5041020  
C     7.0293790   -3.1222650   -0.7097410  
H     4.0781200   -2.7862140   -1.1791680  
H     8.1033280    0.4836000    0.7552990  
H     6.7520480   -4.0925880   -1.1106660  
H     5.4106220    0.9720430    0.1344340  
