64


C     3.6887770    1.4379110    1.6060860  
C     4.3827090    0.5236680    0.8397650  
C     5.4285720    1.2733890    0.1694310  
C     5.3077370    2.6253770    0.5830070  
N     4.2394580    2.6911880    1.4548740  
C     6.1504360    3.6404030    0.1138110  
C     7.1341740    3.2863370   -0.7959610  
O     7.9834560    4.2350850   -1.2820820  
C     7.2627110    1.9406200   -1.2347680  
O     8.2798900    1.7499150   -2.1484450  
C     6.4291410    0.9401980   -0.7707660  
H     3.9156430    3.5265590    1.9172500  
H     6.0574640    4.6751490    0.4273280  
H     8.5785940    3.7948500   -1.9133720  
H     8.2837360    0.8273320   -2.4439790  
H     6.5383320   -0.0788450   -1.1337110  
H     2.8523180    1.2764310    2.2709080  
C     0.5970430   -1.8289220    0.1133540  
C     1.5428340   -0.8142840    0.2842770  
C     2.7927400   -1.4306950    0.5218230  
C     2.5759530   -2.8475880    0.4788070  
N     1.2466510   -3.0498970    0.2372770  
C     3.6100310   -3.7749780    0.6491690  
C     4.8779910   -3.2642380    0.8702800  
O     5.9247810   -4.1087630    1.0598540  
C     5.1152240   -1.8571640    0.9212810  
O     6.4319800   -1.5400920    1.1801920  
C     4.1058280   -0.9203000    0.7527850  
H     1.3417740    0.2457020    0.2268070  
H     0.7497610   -3.9253940    0.1482580  
H     3.4544600   -4.8477690    0.6192080  
H     6.7089220   -3.5590810    1.2375580  
H     6.5091800   -0.5780610    1.3019150  
C    -0.8009030   -1.8009020   -0.1464310  
C    -1.6685950   -0.7379630   -0.3058170  
C    -2.9511490   -1.3193490   -0.5282640  
C    -2.7101540   -2.7965450   -0.4832470  
N    -1.4559550   -3.0729720   -0.2586970  
C    -3.7743500   -3.7509180   -0.6497530  
C    -5.0169840   -3.2605370   -0.8554070  
O    -6.1104660   -4.0149590   -1.0161270  
C    -5.3067870   -1.7723060   -0.9401940  
O    -6.4739660   -1.4626990   -1.1931000  
C    -4.2138340   -0.8165260   -0.7399980  
H    -1.4351860    0.3151580   -0.2526850  
H    -3.5705010   -4.8144910   -0.6010470  
H    -6.8383180   -3.3694810   -1.1776810  
C    -3.7188690    1.4083050   -1.7029360  
C    -4.1786250    2.6881200   -1.5947370  
C    -5.2642790    2.6732710   -0.6522520  
C    -5.4287530    1.3325380   -0.2227730  
N    -4.4692490    0.5588400   -0.8843570  
C    -6.3735700    0.9685360    0.7430750  
C    -7.1827920    1.9682850    1.2604210  
O    -8.1260940    1.6589840    2.1992960  
C    -7.0428840    3.3115880    0.8274970  
O    -7.9193970    4.1925030    1.4339710  
C    -6.0967910    3.6721960   -0.1147360  
H    -3.7990740    3.5452350   -2.1344970  
H    -6.5097090   -0.0507850    1.0813250  
H    -8.5929840    2.4832180    2.4189010  
H    -7.7978060    5.0765720    1.0577650  
H    -5.9941890    4.7106360   -0.4242460  
H    -2.9357120    0.9919820   -2.3191270  
