60


C     3.4786600   -1.9200860   -1.4547320  
C     3.4871720   -0.8222980   -0.5980690  
C     4.8539570   -0.7082050   -0.1110440  
C     5.5903960   -1.7664030   -0.6978930  
N     4.7224860   -2.4751490   -1.5152810  
C     6.9426180   -2.0057810   -0.4346360  
C     7.5776660   -1.1522560    0.4539740  
O     8.8954770   -1.3297240    0.7458140  
C     6.8590230   -0.0903810    1.0631060  
O     7.6219600    0.6730000    1.9233370  
C     5.5219310    0.1370710    0.7971310  
H     4.9849410   -3.2463040   -2.1105070  
H     7.4966570   -2.8198880   -0.8902890  
H     9.1492640   -0.6308410    1.3736270  
H     7.0927380    1.4127740    2.2568900  
H     5.0083410    0.9733830    1.2579000  
H     2.6698750   -2.2973020   -2.0628380  
C    -0.8643480   -1.7945820   -0.2090160  
C     0.5113010   -1.8999350   -0.2861160  
C     1.0203900   -0.5638540   -0.2669690  
C    -0.1973380    0.2858620   -0.1582640  
N    -1.2871620   -0.4272170   -0.1347920  
C    -0.1307820    1.7387420   -0.0907590  
C     1.1218870    2.2676500   -0.0789100  
O     1.3699700    3.5742270    0.0582580  
C     2.3796860    1.4321310   -0.1757760  
O     3.4355630    2.0690280   -0.1408550  
C     2.2963620   -0.0353830   -0.3253900  
H     1.0937190   -2.8092170   -0.3077370  
H     2.3508870    3.6528720    0.0073630  
C    -3.7358610    2.1107400    2.5684390  
C    -2.5784980    1.6537360    2.0355880  
C    -2.3356270    2.4978250    0.8690080  
C    -3.4975000    3.4419220    0.8630400  
N    -4.3058130    3.2163430    1.8585400  
C    -3.6364410    4.4733070   -0.1323560  
C    -2.6735700    4.5658300   -1.0763390  
O    -2.6765110    5.4671470   -2.0732280  
C    -1.4955210    3.6288020   -1.1079560  
O    -0.7138220    3.7475210   -2.0468350  
C    -1.3353300    2.5882740   -0.0434950  
H    -1.9626730    0.8333630    2.3713620  
H    -4.4921270    5.1388380   -0.1091980  
H    -1.8734860    5.2687280   -2.6032550  
H    -4.2558150    1.7429720    3.4451540  
C    -1.6832170   -4.1915050   -0.2660250  
C    -1.8518000   -2.8248140   -0.1856880  
C    -3.3197860   -2.6590410   -0.0709320  
C    -3.8438160   -4.0474980   -0.1011820  
N    -2.8704810   -4.9267360   -0.2145830  
C    -5.2447160   -4.3343210   -0.0128910  
C    -6.0963190   -3.2830180    0.1011120  
O    -7.4290650   -3.3989080    0.1915620  
C    -5.5975810   -1.8645010    0.1362130  
O    -6.4344170   -0.9696790    0.2403670  
C    -4.1435500   -1.6002250    0.0453120  
H    -5.5939410   -5.3605750   -0.0383220  
H    -7.7658430   -2.4776740    0.2615490  
H    -3.7999790   -0.5729110    0.0777490  
H    -0.7457220   -4.7266390   -0.3648930  
