62


C    -4.7087350    0.0129210   -0.0983160  
C    -5.5606500    1.0139800   -0.5818780  
C    -6.8862040    0.6309900   -0.2802980  
C    -6.8186380   -0.6266250    0.3975490  
N    -5.4996720   -0.9718490    0.4936300  
C    -7.9611960   -1.3020760    0.8438850  
C    -9.1872400   -0.7032190    0.6044050  
O   -10.3301110   -1.3114750    1.0139090  
C    -9.2752850    0.5546840   -0.0716920  
O   -10.5719010    1.0010690   -0.2231980  
C    -8.1540350    1.2193510   -0.5103570  
H    -5.2205770    1.9019130   -1.0905350  
H    -5.1145570   -1.8082130    0.9091460  
H    -7.9201370   -2.2560800    1.3584860  
H   -11.0746430   -0.7403530    0.7544420  
H   -10.5724780    1.8504810   -0.6891210  
H    -8.2386320    2.1749860   -1.0230280  
C    -1.7182860    2.7150230   -1.8447510  
C    -0.5659300    2.0872320   -1.5165200  
C    -0.9706120    0.8874310   -0.7899960  
C    -2.4515930    0.9571260   -0.7757330  
N    -2.8795280    2.0285840   -1.3821390  
C    -3.2771770   -0.0833690   -0.1426960  
C    -2.5637390   -1.1464640    0.3708040  
O    -3.1706860   -2.2246900    0.9533930  
C    -1.1171430   -1.2606650    0.3082740  
O    -0.6165400   -2.3293720    0.7390970  
C    -0.2773790   -0.1447210   -0.2287870  
H     0.4463980    2.3810330   -1.7493190  
H    -2.4296480   -2.8296310    1.1792520  
H    -1.8496720    3.6339580   -2.4023620  
C     2.6391140    2.9116800    1.2593770  
C     1.4994750    2.2275320    0.9274500  
C     1.9039080    0.9598370    0.3868090  
C     3.3236500    0.9332780    0.4358560  
N     3.7419980    2.1413770    0.9489200  
C     4.0967800   -0.1620500   -0.0031830  
C     3.3757410   -1.2792670   -0.4353570  
O     4.0336070   -2.4090240   -0.7936780  
C     1.9589910   -1.2972460   -0.4586210  
O     1.4392440   -2.4825990   -0.9169790  
C     1.1934770   -0.1782660   -0.1042610  
H     0.4901620    2.5911130    1.0469400  
H     4.6998840    2.3748000    1.1613520  
H     3.3378040   -3.0530310   -1.0320510  
H     0.6798020   -2.7053510   -0.3266320  
H     2.7603370    3.8938970    1.6934350  
C     7.3029920    0.6088350    3.0397170  
C     6.0823900    0.4424300    2.4722920  
C     6.3543290    0.1332360    1.0707530  
C     7.8454260    0.1513550    0.9844800  
N     8.3924400    0.4328540    2.1351460  
C     8.5403610   -0.1355130   -0.2435060  
C     7.7932120   -0.4201350   -1.3338000  
O     8.3018690   -0.6999580   -2.5445930  
C     6.2858650   -0.4058810   -1.2961330  
O     5.7027120   -0.5573730   -2.3630960  
C     5.5692140   -0.1535580   -0.0016090  
H     5.1127650    0.4882730    2.9472830  
H     9.6241960   -0.1201580   -0.2713790  
H     7.5234170   -0.8145240   -3.1332440  
H     7.5268870    0.8403140    4.0746570  
