60


C    -4.3531490    0.0386090   -2.5589270  
C    -3.2052480   -0.3766780   -1.9300660  
C    -3.5969350   -1.1330360   -0.7713430  
C    -5.0166110   -1.1491740   -0.7643070  
N    -5.4484670   -0.4096220   -1.8483330  
C    -5.7706380   -1.8465880    0.1841990  
C    -5.0663990   -2.5733920    1.1308320  
O    -5.7307420   -3.2931010    2.0723250  
C    -3.6450830   -2.5936110    1.1475780  
O    -3.1258460   -3.3482170    2.1684010  
C    -2.8780920   -1.8508410    0.2384780  
H    -2.1992970   -0.1812580   -2.2705090  
H    -6.4094850   -0.3184840   -2.1381870  
H    -6.8557780   -1.8623940    0.1837930  
H    -5.0373240   -3.7496760    2.5880200  
H    -2.3561510   -3.8445320    1.7960040  
H    -4.4811770    0.6108140   -3.4670970  
C    -0.0591670    1.5816190    0.0945780  
C    -1.1569980    0.7466610    0.2043920  
C    -0.6995150   -0.6030100    0.2138570  
C     0.7775710   -0.5324760    0.1215140  
N     1.0964490    0.7984100    0.0356430  
C     1.6120010   -1.6187620    0.0706450  
C     0.9734030   -2.9300360    0.2386090  
O     1.5972960   -3.9751860    0.2964070  
C    -0.5832920   -3.0024030    0.4465450  
O    -1.0334540   -4.1091360    0.7475870  
C    -1.4029460   -1.7962560    0.2994520  
H    -2.1816170    1.0507600    0.3283820  
H     2.0214320    1.2102240    0.0819140  
C     5.0735400    0.4376920    2.0742840  
C     3.8109170    0.0322710    1.7916670  
C     3.9404850   -0.8272060    0.6202100  
C     5.4094200   -0.8293650    0.3400190  
N     6.0636970   -0.0905420    1.1919920  
C     5.9783700   -1.5977780   -0.7365800  
C     5.1345440   -2.3217890   -1.5060580  
O     5.5217140   -3.0752730   -2.5483950  
C     3.6451720   -2.3074230   -1.2849310  
O     2.9515700   -2.8851930   -2.1148520  
C     3.0653320   -1.5503070   -0.1280200  
H     2.9018870    0.2756840    2.3225770  
H     7.0490580   -1.5825340   -0.9071350  
H     4.6922800   -3.4380310   -2.9298750  
H     5.3953240    1.0908910    2.8766790  
C    -3.0741650    4.7298800   -0.8375000  
C    -2.4122660    3.5408140   -0.7174210  
C    -1.0917740    3.8297720   -0.2280050  
C    -1.0252480    5.3014570   -0.0866500  
N    -2.2719910    5.7822430   -0.4435300  
C     0.0615870    6.0064990    0.3220240  
C     1.2813330    5.2695980    0.6090120  
O     2.3111110    5.7940440    1.0000470  
C     1.2745260    3.7150140    0.3897320  
O     2.3487910    3.1350500    0.4803510  
C    -0.0003510    3.0260070    0.0788170  
H    -2.8089900    2.5765390   -0.9957790  
H     0.0667030    7.0850070    0.4436440  
H    -4.0807630    4.9165070   -1.1874840  
H    -2.5193820    6.7585810   -0.4901500  
