62


C     3.7930100   -1.6853910   -2.4580770  
C     3.7894450   -1.0107640   -1.2557310  
C     4.9022050   -1.5343610   -0.4915940  
C     5.5299900   -2.5216180   -1.2928680  
N     4.8269440   -2.5956120   -2.4800470  
C     6.6466960   -3.2501360   -0.8643150  
C     7.1402650   -2.9780700    0.4016230  
O     8.2317620   -3.6504150    0.8664320  
C     6.5171440   -2.0023740    1.2254190  
O     7.1138290   -1.8559590    2.4633790  
C     5.4105900   -1.2908130    0.8011420  
H     5.0736300   -3.1749360   -3.2671610  
H     7.1315610   -4.0012020   -1.4795600  
H     8.4339960   -3.2934850    1.7487900  
H     6.7630860   -1.0665080    2.9018470  
H     4.9487040   -0.5557560    1.4556090  
H     3.1437840   -1.5624540   -3.3135950  
C     1.4574380   -0.0815560   -0.9971880  
C     2.8101850   -0.0013810   -0.8539070  
C     3.0758830    1.3123580   -0.2701840  
C     1.7607480    1.9714010   -0.0843030  
N     0.8034340    1.0780880   -0.5514800  
C     1.5901230    3.2046390    0.4547580  
C     2.7730890    3.9507450    0.8706750  
O     2.7185440    5.0618630    1.3769970  
C     4.1808600    3.2846210    0.6548650  
O     5.1838460    3.8923770    0.9961140  
C     4.2317880    1.9447560    0.0614180  
H     0.6176310    3.6679570    0.5776080  
H     5.2069870    1.4935520   -0.0888000  
H     0.8668990   -0.8934430   -1.4017330  
C    -2.2550770   -1.0262210    1.7255120  
C    -3.3388750   -0.3541550    1.2086960  
C    -2.8433050    0.6150070    0.2645620  
C    -1.4366530    0.4720110    0.2598840  
N    -1.1060940   -0.5228490    1.1563220  
C    -0.6018380    1.2647480   -0.5501200  
C    -1.2126180    2.2188380   -1.3614450  
O    -0.4553950    2.9978770   -2.1732450  
C    -2.6265700    2.3786750   -1.3433350  
O    -3.0678070    3.3692310   -2.1913450  
C    -3.4430820    1.5940140   -0.5524570  
H    -0.1656300   -0.8076000    1.3841740  
H    -1.0586960    3.5954140   -2.6502220  
H    -4.0364900    3.3815450   -2.2138590  
H    -4.5211820    1.7301520   -0.5619790  
H    -2.2204160   -1.8267670    2.4500440  
C    -5.2290320   -0.3365410    2.8448800  
C    -6.5533720   -0.6268240    2.8854420  
C    -6.9368350   -1.0686610    1.5616720  
C    -5.7025320   -1.0176540    0.7382150  
N    -4.6868440   -0.5609600    1.5735030  
C    -5.6388770   -1.3695500   -0.5713400  
C    -6.8644020   -1.8147560   -1.2294790  
O    -6.9064530   -2.1415730   -2.4061840  
C    -8.1867080   -1.8690980   -0.3785480  
O    -9.2205360   -2.2359730   -0.9152800  
C    -8.1207860   -1.4743980    1.0307070  
H    -7.2037390   -0.5378120    3.7435220  
H    -4.7229160   -1.3349770   -1.1510130  
H    -9.0375700   -1.5227220    1.6106240  
H    -4.5774410    0.0339990    3.6251820  
