60


C     0.7249160    4.2706570   -0.7430210  
C    -0.0053720    3.1305240   -0.4084060  
C    -1.3782950    3.5709360   -0.2235690  
C    -1.4016020    4.9642710   -0.4588350  
N    -0.1029120    5.3507380   -0.7734930  
C    -2.5601250    5.7403880   -0.3571470  
C    -3.7304120    5.0854260   -0.0018420  
O    -4.8918140    5.7861150    0.1144310  
C    -3.7253950    3.6871670    0.2484270  
O    -4.9598970    3.1823890    0.5973700  
C    -2.5736850    2.9278340    0.1451810  
H     0.1782100    6.2875450   -1.0226900  
H    -2.5749360    6.8102800   -0.5370830  
H    -5.5857850    5.1555150    0.3750060  
H    -4.8808020    2.2363230    0.7923580  
H    -2.5782860    1.8608580    0.3433230  
H     1.7737170    4.3670360   -0.9848220  
C     0.5264890    1.8091680   -0.2851300  
C     1.8404800    1.3837680   -0.2530260  
C     1.7975400   -0.0315780   -0.1177870  
C     0.3277660   -0.3635180   -0.1003450  
N    -0.3951840    0.7146470   -0.1842960  
C    -0.1772260   -1.7288460   -0.0049440  
C     0.8010600   -2.6954610    0.0983620  
O     0.5836420   -3.9967560    0.1672560  
C     2.2920910   -2.3763400    0.1287750  
O     3.0297870   -3.3465380    0.3154780  
C     2.7639200   -1.0021690   -0.0190540  
H     2.7299140    1.9954180   -0.2909620  
H     1.4897460   -4.3914660    0.2520340  
C     5.5071290    1.5014840    2.4531910  
C     4.4162640    0.8876220    1.9256170  
C     4.8705000    0.0796870    0.8127440  
C     6.3397340    0.2731220    0.7400280  
N     6.6573230    1.1621400    1.7494460  
C     7.1663540   -0.3443220   -0.1431270  
C     6.5781220   -1.2655300   -1.1042770  
O     7.2342630   -1.8962520   -1.9187940  
C     5.0174100   -1.4450200   -1.0967000  
O     4.5036720   -2.1003540   -1.9850590  
C     4.2148450   -0.7626060   -0.0464230  
H     3.3979170    0.9857100    2.2687510  
H     8.2425270   -0.2016320   -0.1554590  
H     5.5724530    2.1771520    3.2958430  
H     7.5953190    1.4323000    2.0004680  
C    -1.5978240   -2.0141020   -0.0390100  
C    -2.6164800   -1.2173840   -0.5002130  
C    -3.8248640   -1.9801980   -0.3218510  
C    -3.3621710   -3.2635140    0.3044880  
N    -2.0750320   -3.2851460    0.4636740  
C    -4.2927510   -4.3057390    0.6618610  
C    -5.6027290   -4.0935860    0.3986160  
O    -6.5823310   -4.9692320    0.6697820  
C    -6.0976330   -2.8148690   -0.2420070  
O    -7.3123680   -2.7217520   -0.4337010  
C    -5.1375150   -1.7676610   -0.5898670  
H    -2.5210760   -0.2339930   -0.9310420  
H    -3.9341100   -5.2219790    1.1174590  
H    -7.4069530   -4.5278300    0.3630090  
H    -5.5300850   -0.8665110   -1.0518550  
