62


C    -3.9339980    0.7842260   -0.0662100  
C    -3.6233970   -0.5615270   -0.2120270  
C    -4.6611140   -1.3181290    0.4138700  
C    -5.5937950   -0.3830140    0.9378060  
N    -5.1236260    0.8758200    0.6433890  
C    -6.7544930   -0.7757940    1.6173610  
C    -6.9771720   -2.1350580    1.7685490  
O    -8.0929560   -2.5746990    2.4209050  
C    -6.0539500   -3.0848980    1.2503790  
O    -6.4178040   -4.3982300    1.4847090  
C    -4.9092870   -2.6965260    0.5824310  
H    -2.8001210   -0.9689190   -0.7818180  
H    -5.6178740    1.7464940    0.7698150  
H    -7.4708230   -0.0663150    2.0185790  
H    -8.0660960   -3.5470460    2.4098800  
H    -5.7707110   -4.9901320    1.0734010  
H    -4.2177850   -3.4414830    0.1935350  
C     0.3445630    1.3431430   -0.9055720  
C     0.2942040    2.6461400   -1.3322530  
C    -1.0769650    3.0579400   -1.2334550  
C    -1.8171850    1.9454310   -0.7624750  
N    -0.9280880    0.8995420   -0.5852480  
C    -3.2103610    1.9697620   -0.5198280  
C    -3.8229260    3.2110890   -0.7384600  
O    -5.1649120    3.3673950   -0.4950470  
C    -3.0994570    4.3291700   -1.2201810  
O    -3.8826690    5.4546690   -1.3943440  
C    -1.7443360    4.2720610   -1.4836900  
H     1.1289220    3.2257270   -1.7007230  
H    -1.1311880    0.0841120   -0.0236370  
H    -5.3957500    4.2806700   -0.7409290  
H    -3.3494420    6.1675780   -1.7754540  
H    -1.2110040    5.1452750   -1.8518420  
C     2.6473910    0.8922150   -0.1517450  
C     3.5908030   -0.1009760   -0.1766420  
C     2.9459520   -1.2586150   -0.8011430  
C     1.5781700   -0.8216630   -1.1748670  
N     1.4537600    0.5013450   -0.7440330  
C     0.6622880   -1.5941620   -1.8108970  
C     1.0101900   -2.9812840   -2.1087660  
O     0.2477630   -3.7515580   -2.6723190  
C     2.4219550   -3.4914720   -1.6582180  
O     2.7234840   -4.6574880   -1.8601530  
C     3.3356680   -2.5427660   -1.0125920  
H    -0.3179230   -1.2350910   -2.1036470  
H     4.3198930   -2.9063290   -0.7497510  
H     2.7210810    1.8754000    0.2858470  
C     4.9609340    2.2570120    3.2471150  
C     6.2688700    1.9273960    3.3259580  
C     6.4947800    0.9999310    2.2220540  
C     5.1553240    0.8743470    1.5641640  
N     4.2704400    1.6111990    2.1696340  
C     4.9302370    0.0152540    0.3988150  
C     6.0453840   -0.6154970   -0.0833780  
O     6.0521420   -1.3803290   -1.1925580  
C     7.3905640   -0.5040350    0.5568810  
O     8.3253070   -1.1166530    0.0368800  
C     7.5679030    0.3373600    1.7557900  
H     7.0050560    2.2653590    4.0418610  
H     6.9813080   -1.6922680   -1.2813930  
H     8.5629620    0.3865530    2.1874560  
H     4.3988040    2.9278470    3.8853930  
