66


C    -2.3261840   -0.7136290    1.5532800  
C    -1.4354080    0.3156940    1.4135220  
C    -1.7549400    0.9868250    0.1861690  
C    -2.8724610    0.3139870   -0.3752060  
N    -3.2080310   -0.7339810    0.4768470  
C    -3.4863590    0.7236880   -1.5695720  
C    -2.9424050    1.8222820   -2.2183570  
O    -3.4864900    2.2583160   -3.3904600  
C    -1.8218460    2.5039970   -1.6772580  
O    -1.3901110    3.5655850   -2.4427290  
C    -1.2168860    2.1181810   -0.4788560  
H    -0.6347840    0.5641780    2.0950270  
H    -4.3665590    0.2375600   -1.9764930  
H    -2.9467090    3.0088880   -3.6945410  
H    -0.5493850    3.8909060   -2.0759350  
H    -2.4152970   -1.4662000    2.3232760  
C    -6.7208690   -1.8543450    2.9554300  
C    -5.5932170   -1.2373580    2.4797270  
C    -5.2643810   -1.8709330    1.2340690  
C    -6.2414320   -2.8743370    1.0014190  
N    -7.1140560   -2.8416430    2.0701850  
C    -6.2489350   -3.6815310   -0.1429520  
C    -5.2406960   -3.4781880   -1.0715390  
O    -5.1943120   -4.2351700   -2.2053570  
C    -4.2339130   -2.4998410   -0.8579710  
O    -3.2747150   -2.4542580   -1.8453640  
C    -4.2381640   -1.6959150    0.2784170  
H    -5.0615500   -0.4255860    2.9548490  
H    -7.9214380   -3.4347690    2.1788610  
H    -7.0045460   -4.4381080   -0.3274150  
H    -4.4355640   -3.9182670   -2.7265450  
H    -2.7655580   -1.6289790   -1.7766120  
H    -7.2854970   -1.6719580    3.8588470  
C     3.1046980    1.0036510    0.2702670  
C     1.7673640    0.9881610   -0.0665830  
C     1.2365780    2.2898760    0.2039470  
C     2.3054700    3.0802700    0.7036980  
N     3.4421200    2.2905230    0.6981990  
C     2.1507350    4.4168030    1.0839780  
C     0.8870330    4.9732200    0.9530190  
O     0.6697630    6.2674400    1.3261000  
C    -0.1904850    4.2100320    0.4336780  
O    -1.3823620    4.9007210    0.3651920  
C    -0.0465740    2.8759110    0.0457980  
H     1.2386280    0.1497070   -0.4958930  
H     4.2597860    2.4830020    1.2589240  
H     2.9650990    5.0184380    1.4745880  
H    -0.2780920    6.4460560    1.1958640  
H    -2.0962910    4.2701450    0.1661590  
C     4.1024510   -0.0397260    0.2061440  
C     3.9739480   -1.4090390    0.3024760  
C     5.2809790   -1.9788130    0.1697430  
C     6.1890290   -0.9011130   -0.0044360  
N     5.4580810    0.2738700    0.0639790  
C     7.5622710   -1.0921390   -0.1879780  
C     8.0332450   -2.3971620   -0.1858890  
O     9.3646650   -2.6400290   -0.3648740  
C     7.1432370   -3.4870240    0.0057160  
O     7.7646210   -4.7222940   -0.0071580  
C     5.7859660   -3.2948990    0.1856190  
H     3.0498860   -1.9362840    0.4961260  
H     5.7753060    1.1487610   -0.3286240  
H     8.2591900   -0.2718670   -0.3270780  
H     9.4871460   -3.6044330   -0.3312760  
H     7.1005440   -5.4181890    0.1056680  
H     5.1233160   -4.1463830    0.3278340  
