62


C    -5.5062890   -1.9560320    0.8473720  
C    -4.7006220   -0.9509250    0.3196930  
C    -5.5900970    0.1601090    0.0238620  
C    -6.8973890   -0.2489100    0.3826920  
N    -6.8081880   -1.5365390    0.8851300  
C    -8.0302520    0.5547360    0.2098510  
C    -7.8379210    1.8114330   -0.3404180  
O    -8.8978720    2.6442090   -0.5249880  
C    -6.5349900    2.2413720   -0.7123450  
O    -6.5035710    3.5141230   -1.2421610  
C    -5.4234950    1.4394120   -0.5433880  
H    -7.5731110   -2.0561870    1.2881350  
H    -9.0286330    0.2345940    0.4891500  
H    -8.5517060    3.4752300   -0.8951350  
H    -5.5837390    3.7913600   -1.3697290  
H    -4.4381770    1.8067880   -0.8077520  
H    -5.2217990   -2.9089540    1.2711900  
C    -2.3112510   -4.3352740   -1.0232650  
C    -1.0553410   -3.8220510   -0.8523040  
C    -1.1954690   -2.4793420   -0.3628350  
C    -2.6413540   -2.2409760   -0.2544740  
N    -3.2643060   -3.4282150   -0.6209130  
C    -3.2618310   -1.0736190    0.1243570  
C    -2.3398340    0.0545500    0.3703020  
O    -2.7118990    1.1594910    0.7245900  
C    -0.7898330   -0.1501860    0.1806890  
O    -0.1070150    0.8666360    0.2306220  
C    -0.2547900   -1.4963770   -0.0550390  
H    -0.1351420   -4.3247370   -1.1004140  
H    -2.6068220   -5.3016340   -1.4100450  
H    -4.2509600   -3.4799040   -0.8314230  
C     1.1707600   -1.7377810   -0.0053570  
C     1.8677800   -2.9270200    0.1170560  
C     3.2653650   -2.6238190    0.1429200  
C     3.3715800   -1.1471420    0.0415020  
N     2.0859650   -0.6817260   -0.0466700  
C     4.5468520   -0.4276590    0.0246580  
C     5.7632970   -1.2393420   -0.0063330  
O     6.8856070   -0.7795530   -0.2329670  
C     5.6827920   -2.7926320    0.2302330  
O     6.7305800   -3.4107870    0.3596250  
C     4.3727290   -3.4158820    0.2529650  
H     1.4435780   -3.9107830    0.2379150  
H     4.3192290   -4.4935170    0.3710230  
H     1.7929610    0.2886400   -0.0270360  
C     2.4381390    2.6278170    2.5504930  
C     2.9477690    1.4612020    2.0409170  
C     3.7753560    1.8085140    0.9162870  
C     3.7373670    3.2245250    0.8089640  
N     2.9078980    3.6922890    1.8083380  
C     4.4739290    3.9391880   -0.1414660  
C     5.2849870    3.2001590   -0.9867650  
O     6.0532350    3.8234020   -1.9225400  
C     5.3419720    1.7815880   -0.9109240  
O     6.1785600    1.2132440   -1.8424920  
C     4.5720170    1.0550490    0.0023880  
H     2.7653200    0.4727720    2.4365090  
H     2.6962120    4.6624200    1.9792620  
H     4.4523320    5.0217350   -0.2159750  
H     6.5584360    3.1077340   -2.3555070  
H     6.6664970    0.4891510   -1.3794730  
H     1.7733280    2.7903850    3.3868680  
