62


C     2.9127130    2.4691650   -2.3773240  
C     1.6988220    1.9160090   -2.0578730  
C     1.9638030    0.8339250   -1.1539790  
C     3.3701660    0.7861830   -0.9529930  
N     3.9170520    1.7848780   -1.7282100  
C     4.0233770   -0.1492000   -0.1168400  
C     3.1714310   -1.0653210    0.5000950  
O     3.6913430   -2.0428310    1.3212540  
C     1.7696880   -1.0708250    0.3050200  
O     1.1090620   -2.1054820    0.9384330  
C     1.1549480   -0.1292510   -0.5145380  
H     0.7346840    2.2444310   -2.4187540  
H     4.8933270    2.0419220   -1.7075770  
H     2.9266010   -2.5505330    1.6569130  
H     0.2574470   -1.7938770    1.2994290  
H     3.1468050    3.3043860   -3.0221430  
C    -0.8585000   -0.3225420   -1.9876590  
C    -2.2062910   -0.4226690   -1.8680330  
C    -2.5271060   -0.3381230   -0.4602750  
C    -1.2348250   -0.1523520    0.2337880  
N    -0.2497150   -0.1703540   -0.7349950  
C    -1.0816130    0.0186360    1.5830890  
C    -2.2762470    0.0421060    2.4038080  
O    -2.2722390    0.2459210    3.6086460  
C    -3.6647650   -0.1912140    1.7011000  
O    -4.6578290   -0.2164890    2.4073950  
C    -3.7252040   -0.3801090    0.2233520  
H    -2.9065700   -0.5246840   -2.6820800  
H    -0.1279340    0.2542050    2.0462210  
H    -0.2347530   -0.3469430   -2.8702820  
C    -5.2000940   -1.5029230   -1.4898550  
C    -4.9950580   -0.6606560   -0.4261380  
C    -6.3478920   -0.1155890   -0.1500320  
C    -7.2118670   -0.7538790   -1.1850510  
N    -6.5294970   -1.5695290   -1.9479970  
C    -8.6181700   -0.4772750   -1.2885050  
C    -9.1538640    0.4091720   -0.4152410  
O   -10.4453180    0.7691130   -0.3967660  
C    -8.3097100    1.0830010    0.6312660  
O    -8.8624600    1.8856690    1.3797610  
C    -6.8671210    0.7655600    0.7255200  
H    -9.2100350   -0.9684710   -2.0527420  
H   -10.5254260    1.4185690    0.3366500  
H    -6.3090660    1.2458540    1.5193850  
H    -4.4596270   -2.1340850   -1.9660420  
C     6.9934020    3.0982120    0.8572830  
C     5.8399030    2.3844010    0.6548280  
C     6.2229610    1.0322090    0.3359550  
C     7.6425590    0.9935380    0.3751960  
N     8.0813180    2.2661470    0.6803170  
C     8.3838590   -0.1739400    0.1603880  
C     7.6662280   -1.3344720   -0.0744610  
O     8.3142240   -2.5150130   -0.2696400  
C     6.2448560   -1.3288030   -0.1231190  
O     5.6943050   -2.5625410   -0.4028650  
C     5.4986060   -0.1606420    0.0472520  
H     4.8357030    2.7697850    0.7573800  
H     9.0453940    2.5309060    0.8080380  
H     9.4681010   -0.2018800    0.1960320  
H     7.6104070   -3.1811330   -0.3899680  
H     4.9460200   -2.7037090    0.2160650  
H     7.1321200    4.1364820    1.1237850  
