60


C    -4.3529860    0.0386440   -2.5590660  
C    -3.2051620   -0.3766810   -1.9300910  
C    -3.5969860   -1.1328850   -0.7713190  
C    -5.0166580   -1.1489470   -0.7643910  
N    -5.4483890   -0.4094970   -1.8485370  
C    -5.7707730   -1.8462770    0.1841040  
C    -5.0666170   -2.5730570    1.1308140  
O    -5.7310740   -3.2926390    2.0723330  
C    -3.6453020   -2.5933580    1.1476590  
O    -3.1261740   -3.3479620    2.1685340  
C    -2.8782270   -1.8506740    0.2385680  
H    -2.1991670   -0.1813250   -2.2704320  
H    -6.4093910   -0.3181530   -2.1383770  
H    -6.8559130   -1.8620070    0.1836390  
H    -5.0377260   -3.7492710    2.5880620  
H    -2.3565740   -3.8443640    1.7961710  
H    -4.4809260    0.6108090   -3.4672720  
C    -0.0590360    1.5816270    0.0946120  
C    -1.1569320    0.7467410    0.2043960  
C    -0.6995710   -0.6029780    0.2139300  
C     0.7775340   -0.5325450    0.1216040  
N     1.0965160    0.7983240    0.0357610  
C     1.6118810   -1.6188760    0.0707700  
C     0.9732290   -2.9301170    0.2386990  
O     1.5970860   -3.9752810    0.2966000  
C    -0.5834800   -3.0024080    0.4466110  
O    -1.0337200   -4.1090820    0.7476950  
C    -1.4030580   -1.7961920    0.2995730  
H    -2.1815180    1.0509080    0.3284720  
H     2.0215520    1.2100370    0.0818740  
C    -3.0738070    4.7301010   -0.8376150  
C    -2.4119530    3.5410050   -0.7176120  
C    -1.0914740    3.8298630   -0.2281040  
C    -1.0248900    5.3015390   -0.0866760  
N    -2.2715750    5.7824070   -0.4436140  
C     0.0619570    6.0065150    0.3220560  
C     1.2816570    5.2695620    0.6090600  
O     2.3114920    5.7939830    0.9999850  
C     1.2747940    3.7149720    0.3898000  
O     2.3490430    3.1349990    0.4804460  
C    -0.0001060    3.0260140    0.0787810  
H    -2.8086550    2.5767730   -0.9961470  
H     0.0671270    7.0850270    0.4436530  
H    -4.0803810    4.9168000   -1.1876290  
H    -2.5189940    6.7587490   -0.4899850  
C     5.0735100    0.4377700    2.0739720  
C     3.8108650    0.0324300    1.7913740  
C     3.9403860   -0.8272980    0.6200920  
C     5.4093380   -0.8296270    0.3399380  
N     6.0636520   -0.0907050    1.1917920  
C     5.9782360   -1.5982670   -0.7365300  
C     5.1343480   -2.3222750   -1.5059510  
O     5.5214630   -3.0759100   -2.5482020  
C     3.6449780   -2.3077270   -1.2848680  
O     2.9513350   -2.8855530   -2.1147230  
C     3.0652150   -1.5505010   -0.1280090  
H     2.9018140    0.2760210    2.3221720  
H     7.0489300   -1.5831450   -0.9070540  
H     4.6920050   -3.4386440   -2.9296410  
H     5.3953360    1.0910790    2.8762600  
