60


C    -6.2573380    0.7794220    3.0704530  
C    -5.1343890    0.6364930    2.2957480  
C    -5.5414920    0.0359020    1.0553650  
C    -6.9480980   -0.1494290    1.1394040  
N    -7.3511220    0.2947880    2.3825100  
C    -7.7162250   -0.6623900    0.0908830  
C    -7.0487130   -0.9682060   -1.0853190  
O    -7.7352960   -1.4543620   -2.1528460  
C    -5.6465730   -0.7823770   -1.2117640  
O    -5.1512480   -1.1599810   -2.4384130  
C    -4.8589450   -0.3215370   -0.1486740  
H    -4.1356210    0.9315310    2.5811320  
H    -8.3060160    0.3306040    2.7030460  
H    -8.7909330   -0.7986080    0.1556870  
H    -7.0749690   -1.5515680   -2.8662250  
H    -4.5168070   -0.4609360   -2.7176560  
H    -6.3691540    1.1887470    4.0645130  
C    -1.5898060   -1.7267580    2.4997770  
C    -2.7831570   -1.5017060    1.8947390  
C    -2.5324080   -0.6970520    0.7188580  
C    -1.0691100   -0.4767650    0.6827680  
N    -0.5536870   -1.1410070    1.7740450  
C    -0.3887780    0.2743190   -0.2436160  
C    -1.2084270    0.8535880   -1.3079330  
O    -0.7706340    1.5801830   -2.1854780  
C    -2.7372660    0.4788850   -1.3749500  
O    -3.3137890    0.7770810   -2.4175220  
C    -3.3887710   -0.2001420   -0.2416400  
H    -3.7465090   -1.8608910    2.2194200  
H    -1.3666850   -2.2868790    3.3979220  
H     0.3963220   -1.0315250    2.0957450  
C     1.9995830   -0.5061700   -0.0685640  
C     1.0650670    0.4749540   -0.2116410  
C     1.8036150    1.7384400   -0.2802670  
C     3.2388320    1.3987820   -0.1456360  
N     3.3048780   -0.0003610    0.0022200  
C     4.2416100    2.3031410   -0.2293760  
C     3.8968290    3.7173980   -0.3932660  
O     4.7416340    4.5944790   -0.4689110  
C     2.3806990    4.1036650   -0.4655450  
O     2.0683350    5.2787720   -0.5579880  
C     1.3896420    3.0206590   -0.4259700  
H     5.2916030    2.0509140   -0.1537690  
H     0.3476920    3.2886050   -0.5529740  
H     1.8549340   -1.5761100   -0.0044450  
C     4.5610360   -3.6920280   -2.0819960  
C     3.8353190   -2.5936290   -1.7526940  
C     4.5928090   -1.9488160   -0.6862440  
C     5.7759500   -2.8317920   -0.4959180  
N     5.7525100   -3.8474350   -1.3145780  
C     6.8053410   -2.5399880    0.4696940  
C     6.6720160   -1.4242840    1.2215630  
O     7.5598100   -1.0314020    2.1516020  
C     5.4817260   -0.5196350    1.0922110  
O     5.3820420    0.4138140    1.8818960  
C     4.4433260   -0.8150520    0.0509040  
H     2.9197850   -2.2435490   -2.2077570  
H     7.6553600   -3.2053200    0.5707780  
H     7.1820320   -0.2267930    2.5659910  
H     4.3406690   -4.4261270   -2.8476250  
