62


C    -2.7112660    1.0822480   -0.1775100  
C    -3.4752480    2.2389560   -0.0139120  
C    -4.8360980    1.8514500   -0.0054350  
C    -4.8701970    0.4282270   -0.1672670  
N    -3.5766890   -0.0008890   -0.2706740  
C    -6.0687060   -0.2961150   -0.2010390  
C    -7.2475260    0.4182420   -0.0723390  
O    -8.4394740   -0.2304950   -0.0983290  
C    -7.2339470    1.8404020    0.0884260  
O    -8.4942760    2.3858970    0.2004220  
C    -6.0584660    2.5545560    0.1227420  
H    -3.0812910    3.2414060    0.0824570  
H    -3.2385370   -0.9466640   -0.3792390  
H    -6.1030520   -1.3735060   -0.3214330  
H    -9.1406080    0.4366210    0.0069700  
H    -8.4287870    3.3465380    0.3083540  
H    -6.0690900    3.6352400    0.2459340  
C    -1.3046650    0.8682610   -0.2530710  
C    -0.2475210    1.7479890   -0.1686250  
C     0.9381830    0.9578640   -0.3175970  
C     0.4267950   -0.4336420   -0.4965520  
N    -0.8730490   -0.4865320   -0.4583570  
C     1.3177450   -1.5591400   -0.7066180  
C     2.6489440   -1.2811210   -0.7456880  
O     3.5973750   -2.1987630   -0.9477540  
C     3.1966640    0.1106440   -0.5056530  
O     4.4246620    0.1844950   -0.4544450  
C     2.2804350    1.2525720   -0.3326050  
H    -0.2929900    2.8198180   -0.0422600  
H     4.4449160   -1.6980430   -0.8590810  
C     1.7200370    4.1410210    2.9844110  
C     2.5649210    5.1150940    2.5218640  
C     3.0916790    4.6549680    1.2680340  
C     2.5201570    3.3798340    1.0190720  
N     1.6965190    3.0895270    2.0859380  
C     2.8403280    2.5971360   -0.1151730  
C     3.7411310    3.1668940   -1.0216600  
O     4.0409190    2.5122510   -2.1768870  
C     4.3112050    4.4434690   -0.7878730  
O     5.1719810    4.8552580   -1.7886950  
C     4.0058740    5.1851840    0.3372220  
H     2.7929580    6.0486230    3.0175320  
H     1.1132840    2.2700900    2.1572110  
H     4.7279590    3.0305810   -2.6312360  
H     5.5918770    5.6893430   -1.5319910  
H     4.4609560    6.1612000    0.4939710  
H     1.1268400    4.1009880    3.8870260  
C    -0.2422190   -3.1929670   -1.7483590  
C    -0.5716910   -4.5044190   -1.6589270  
C     0.2658920   -5.0934080   -0.6380430  
C     1.1309590   -3.9983180   -0.1314770  
N     0.7880560   -2.8577300   -0.8592740  
C     2.0315800   -4.1455070    0.8714440  
C     2.1832410   -5.4645210    1.4827110  
O     2.9659700   -5.6851120    2.3947170  
C     1.2962720   -6.6437810    0.9416820  
O     1.4197600   -7.7539550    1.4366890  
C     0.3469210   -6.3527590   -0.1328620  
H    -1.3216410   -5.0171020   -2.2439060  
H     2.6564350   -3.3408060    1.2380180  
H    -0.2788870   -7.1661960   -0.4876600  
H    -0.6480060   -2.4212550   -2.3857800  
