60


C    -5.1439340   -1.9535510    1.2984200  
C    -6.4344610   -2.3417940    1.0958930  
C    -7.0766460   -1.3117090    0.3240720  
C    -6.1170740   -0.2951170    0.0974000  
N    -4.9216910   -0.7034080    0.7050730  
C    -6.3976790    0.8380070   -0.6733390  
C    -7.6757650    0.9584550   -1.1973870  
O    -7.9986060    2.0514380   -1.9487040  
C    -8.6533920   -0.0425790   -0.9641910  
O    -9.8759230    0.2186910   -1.5517670  
C    -8.3678690   -1.1700720   -0.2156880  
H    -6.8872620   -3.2505120    1.4688950  
H    -5.6780310    1.6271700   -0.8495850  
H    -8.9348980    1.9640660   -2.1968090  
H   -10.5081580   -0.4716130   -1.3030630  
H    -9.1250770   -1.9358700   -0.0595100  
H    -4.3495240   -2.4226620    1.8597790  
C    -0.9013620   -2.1445940   -0.2097760  
C    -2.2426710   -2.0284750   -0.0702770  
C    -2.5180550   -0.6862630    0.3931100  
C    -1.2077240   -0.0145700    0.5202900  
N    -0.2507700   -0.9398040    0.1195460  
C    -1.0287910    1.2680450    0.9536170  
C    -2.2035060    2.0511880    1.2892610  
O    -2.1599800    3.2219700    1.6381830  
C    -3.6154260    1.3635090    1.1906090  
O    -4.5944860    1.9888790    1.5494960  
C    -3.6868810   -0.0406740    0.7027550  
H    -2.9741450   -2.7940410   -0.2788760  
H    -0.0550500    1.7193290    1.1028590  
H    -0.3087660   -2.9874840   -0.5300950  
C     2.1254040    2.1949370   -1.7784940  
C     3.3629230    1.7505060   -1.4458020  
C     3.1973970    0.5345120   -0.6742530  
C     1.7361410    0.3099200   -0.5894420  
N     1.1434360    1.3338630   -1.2914090  
C     1.1461280   -0.7487220    0.0515400  
C     2.0275730   -1.7608790    0.6384340  
O     1.6119350   -2.7905570    1.1462440  
C     3.5761640   -1.5074170    0.6063720  
O     4.2857040   -2.2610040    1.2445570  
C     4.1066460   -0.3390120   -0.1381350  
H     4.3025560    2.2041700   -1.7204860  
H     1.8358670    3.0646240   -2.3527660  
H     0.1526110    1.5293240   -1.2814160  
C     6.9547190    2.8557610    1.1494300  
C     5.8365630    2.1266460    0.8934590  
C     6.2556200    0.9107500    0.2290820  
C     7.7342140    0.9913540    0.1251830  
N     8.0896720    2.2052980    0.6832220  
C     8.5333630    0.0271200   -0.3985150  
C     7.9053430   -1.1843990   -0.9087580  
O     8.5351300   -2.1215320   -1.3728730  
C     6.3384140   -1.2762260   -0.8711100  
O     5.7954120   -2.2165140   -1.4221270  
C     5.5655890   -0.1826220   -0.2248640  
H     4.8242170    2.4023450    1.1459020  
H     9.6154690    0.1041790   -0.4395500  
H     7.0480270    3.8163640    1.6387080  
H     9.0383530    2.5157870    0.8235500  
