62


C    -4.6807040   -0.9943280    2.5423250  
C    -4.4344890   -0.5881660    1.2505790  
C    -5.5337040   -1.0296170    0.4321150  
C    -6.4248570   -1.7071620    1.3002840  
N    -5.8745170   -1.6768360    2.5691710  
C    -7.6221420   -2.2799740    0.8523180  
C    -7.9205950   -2.1625020   -0.4953510  
O    -9.0738860   -2.6962510   -0.9835360  
C    -7.0334160   -1.4869780   -1.3802560  
O    -7.4715490   -1.4621070   -2.6870590  
C    -5.8516620   -0.9253960   -0.9370330  
H    -6.2941910   -2.0758800    3.3944900  
H    -8.3111420   -2.7971700    1.5119430  
H    -9.1100430   -2.4918760   -1.9342430  
H    -6.8794090   -0.9135970   -3.2230000  
H    -5.1878290   -0.4134570   -1.6293560  
H    -4.0952690   -0.8429870    3.4376720  
C    -1.9832170   -0.3901200    0.8401880  
C    -1.0633420    0.5133840    0.3815050  
C    -1.8241880    1.6982810   -0.0001630  
C    -3.2448440    1.4026340    0.3098890  
N    -3.2812130    0.1055410    0.8145230  
C    -4.2706150    2.2674670    0.1131560  
C    -3.9745020    3.5794130   -0.4606340  
O    -4.8324010    4.4239280   -0.6649660  
C    -2.4838160    3.9016680   -0.8390810  
O    -2.2217050    4.9779010   -1.3516280  
C    -1.4613150    2.8874430   -0.5606530  
H    -5.3001850    2.0259390    0.3537930  
H    -0.4397470    3.1165360   -0.8491760  
H    -1.8143750   -1.3930780    1.2088370  
C     1.3605360   -2.8379050   -1.3342490  
C     0.3346620   -2.0169450   -0.9443160  
C     0.9258190   -0.8914260   -0.2766080  
C     2.3263220   -1.0906700   -0.2900620  
N     2.5604540   -2.2893380   -0.9256550  
C     3.2648890   -0.1464050    0.2032920  
C     2.7067260    1.0306820    0.7383850  
O     3.4960900    1.9674940    1.3075950  
C     1.3010670    1.2291780    0.7822500  
O     0.9535500    2.4026610    1.4215350  
C     0.3892800    0.2972980    0.2896280  
H    -0.7165150   -2.1859790   -1.1285680  
H     3.4793730   -2.6142080   -1.1873110  
H     2.9130850    2.6922000    1.5994870  
H     0.0060400    2.5823540    1.3155550  
H     1.3397800   -3.7790940   -1.8648750  
C     4.6925160   -0.3927840    0.1431380  
C     5.3447000   -1.6035350    0.2205870  
C     6.7449190   -1.3113460    0.0603780  
C     6.7839680    0.1758310   -0.1385630  
N     5.5987400    0.7058250   -0.0813250  
C     8.0255880    0.8720760   -0.3630960  
C     9.1633220    0.1394570   -0.3611170  
O    10.3908220    0.6453120   -0.5466670  
C     9.1565070   -1.3592750   -0.1428630  
O    10.2512320   -1.9275670   -0.1621040  
C     7.8848920   -2.0473810    0.0662630  
H     4.9202890   -2.5659790    0.4721350  
H     8.0270170    1.9456550   -0.5147620  
H    10.9939980   -0.1309900   -0.4883030  
H     7.9178190   -3.1230810    0.2099290  
