62


C     4.9615660   -2.1266380   -1.3967710  
C     4.6282640   -0.9919130   -0.6828610  
C     5.8837290   -0.4095650   -0.2427500  
C     6.9236690   -1.2405500   -0.7337220  
N     6.3278340   -2.2731860   -1.4311370  
C     8.2780120   -0.9948870   -0.4788590  
C     8.5935340    0.1108850    0.2945400  
O     9.8959730    0.3974690    0.5699390  
C     7.5668310    0.9467310    0.8122030  
O     8.0387170    1.9963210    1.5728100  
C     6.2299450    0.7011310    0.5596280  
H     6.8195190   -3.0165810   -1.9029000  
H     9.0726140   -1.6323660   -0.8526360  
H     9.9070220    1.1889280    1.1357650  
H     7.2943870    2.4993980    1.9353770  
H     5.4649960    1.3484060    0.9808360  
H     4.3143810   -2.8242650   -1.9085760  
C     0.8882890   -3.0014150    0.7458370  
C     2.1734830   -2.7254160    0.3671700  
C     2.2065230   -1.3481490   -0.0375150  
C     0.8909420   -0.8381300    0.1126700  
N     0.1086790   -1.8710410    0.5794650  
C     0.5479010    0.5168990   -0.1494940  
C     1.6262130    1.3405710   -0.5209540  
O     1.4181630    2.6660620   -0.7949040  
C     2.9343230    0.8401720   -0.6778370  
O     3.8348030    1.7977270   -1.1044940  
C     3.2620240   -0.4985400   -0.4587660  
H     3.0083080   -3.4099830    0.3925950  
H    -0.8398860   -1.7774060    0.9120900  
H     2.2692030    3.0262330   -1.1066740  
H     4.6723250    1.3655360   -1.3449650  
H     0.4482740   -3.9147530    1.1199650  
C    -0.8128600    1.0036980   -0.0494140  
C    -1.9972120    0.2877770   -0.0674060  
C    -3.0815580    1.1997240    0.0963330  
C    -2.4691630    2.5463190    0.1859320  
N    -1.1064400    2.3567730    0.1170780  
C    -3.1687220    3.7039860    0.2976530  
C    -4.6251120    3.6316360    0.3381770  
O    -5.3380690    4.6215240    0.3973910  
C    -5.3016920    2.2152400    0.3212460  
O    -6.5054150    2.1442310    0.5114870  
C    -4.4491750    1.0236640    0.1425150  
H    -2.0997620   -0.7678600   -0.2560630  
H    -2.7006170    4.6825790    0.3404560  
H    -0.4102970    3.0804580    0.0102250  
C    -3.9861360   -2.8969550    2.2847620  
C    -3.8143270   -1.5981790    1.9273310  
C    -4.7564550   -1.3765170    0.8344060  
C    -5.4362040   -2.6940960    0.6796990  
N    -4.9763780   -3.5804160    1.5231700  
C    -6.4879280   -2.9005900   -0.2818680  
C    -6.8446720   -1.8506150   -1.0558510  
O    -7.8023070   -1.8972710   -1.9956900  
C    -6.1432720   -0.5192950   -0.9671820  
O    -6.4319870    0.3169230   -1.8150840  
C    -5.0827230   -0.2961750    0.0719940  
H    -3.1628990   -0.8618980    2.3759080  
H    -6.9674870   -3.8696610   -0.3637060  
H    -7.7933370   -1.0107200   -2.4197520  
H    -3.4798640   -3.4396780    3.0753010  
