62


C    -3.4155760    1.0117510   -1.9706870  
C    -3.8619040    2.2907700   -2.1263620  
C    -4.8715910    2.5166680   -1.1272840  
C    -5.0078960    1.3152340   -0.3887180  
N    -4.1046460    0.3888090   -0.9239090  
C    -5.8740890    1.2052490    0.7043820  
C    -6.6360590    2.3152820    1.0358130  
O    -7.5027510    2.2511750    2.0891180  
C    -6.5252010    3.5190610    0.2940680  
O    -7.3469790    4.5344660    0.7446040  
C    -5.6541080    3.6311880   -0.7746720  
H    -3.5239700    2.9919310   -2.8774730  
H    -5.9872040    0.2958180    1.2806260  
H    -7.9475910    3.1139020    2.1487510  
H    -7.2526680    5.3061700    0.1670240  
H    -5.5706510    4.5676970   -1.3227770  
H    -2.6862950    0.4476060   -2.5329520  
C    -0.3774490   -1.8170330    0.0139530  
C    -1.2743050   -0.8123910   -0.3059120  
C    -2.5724860   -1.3979080   -0.2807490  
C    -2.3441260   -2.8266380    0.0777070  
N    -1.0732210   -3.0568230    0.2515020  
C    -3.4133010   -3.7734730    0.2260570  
C    -4.6680820   -3.3110050    0.0236180  
O    -5.7718860   -4.0525650    0.1361570  
C    -4.9578580   -1.8702120   -0.3727400  
O    -6.1408720   -1.6014370   -0.5891800  
C    -3.8465610   -0.9213220   -0.4902090  
H    -1.0681150    0.2278740   -0.4862800  
H    -3.2098870   -4.8032010    0.4966230  
H    -6.5113940   -3.4459560   -0.1058590  
C     2.7990280    1.3191950   -0.6703670  
C     1.6082940    0.6466230   -0.6172720  
C     1.8765430   -0.6773270   -0.1324490  
C     3.2723190   -0.7531290    0.0730650  
N     3.8287490    0.4845220   -0.2530710  
C     3.9145660   -1.8947820    0.5714920  
C     3.1329440   -3.0023140    0.8355820  
O     3.7031360   -4.1426930    1.3086630  
C     1.7268270   -2.9836560    0.6279520  
O     1.1299540   -4.1537490    0.9353310  
C     1.0545640   -1.8196700    0.1566200  
H     0.6656810    1.0613880   -0.9354830  
H     4.9846960   -1.9473030    0.7269960  
H     2.9818130   -4.7909250    1.4086420  
H     0.1455590   -4.0506710    0.7402300  
H     3.0229840    2.3183570   -1.0135550  
C     5.7356810    3.9272390    1.6550980  
C     4.8400550    2.9880500    1.2517560  
C     5.5669140    2.0142700    0.4665910  
C     6.9772960    2.4669350    0.4430720  
N     7.0067460    3.6402490    1.1714350  
C     8.0005690    1.8132860   -0.1671610  
C     7.7013460    0.5726450   -0.8627220  
O     8.5463560   -0.1197650   -1.4079700  
C     6.2030780    0.0864760   -0.9152120  
O     5.9302200   -0.8993940   -1.5743130  
C     5.1809990    0.8676450   -0.1755560  
H     3.7868850    2.9630060    1.4858910  
H     9.0274120    2.1642490   -0.1536200  
H     5.5785650    4.8045370    2.2683910  
H     7.8407740    4.1696790    1.3713330  
