62


C     4.0134430    0.9193560    0.0569310  
C     3.7215400   -0.3660460   -0.3797880  
C     4.8024300   -1.2151190    0.0092690  
C     5.7426950   -0.3972080    0.6915650  
N     5.2353250    0.8814960    0.7146930  
C     6.9423170   -0.9008520    1.2116640  
C     7.1959830   -2.2520790    1.0387570  
O     8.3495800   -2.7965440    1.5245400  
C     6.2651470   -3.0854730    0.3586210  
O     6.6634740   -4.4064400    0.2709420  
C     5.0825730   -2.5881930   -0.1525640  
H     2.8798450   -0.6546220   -0.9932420  
H     5.7190920    1.7136870    1.0172970  
H     7.6644310   -0.2813890    1.7334560  
H     8.3364940   -3.7428100    1.2992370  
H     5.9941410   -4.9138690   -0.2116010  
H     4.3854200   -3.2446420   -0.6697140  
C    -0.3313480    1.5143320   -0.3900730  
C    -0.3089730    2.8915170   -0.5029120  
C     1.0525020    3.3126770   -0.4061930  
C     1.8382070    2.1420390   -0.2472530  
N     0.9795920    1.0615960   -0.2715270  
C     3.2432170    2.1536500   -0.0776650  
C     3.8198300    3.4296900   -0.0397700  
O     5.1696100    3.5674710    0.1604830  
C     3.0500810    4.6083800   -0.2147430  
O     3.8055410    5.7642260   -0.1697860  
C     1.6845350    4.5729030   -0.4108000  
H    -1.1703280    3.5225760   -0.6763760  
H     1.2413650    0.1504580    0.0788050  
H     5.3699120    4.5195440    0.1209020  
H     3.2385190    6.5321200   -0.3333910  
H     1.1152920    5.4906060   -0.5385400  
C    -2.7107640    0.8891830    0.0802210  
C    -1.4574310    0.6031360   -0.3764190  
C    -1.4885690   -0.7867120   -0.8233820  
C    -2.8599550   -1.2849240   -0.5673220  
N    -3.5724700   -0.2121730    0.0039540  
C    -3.2907570   -2.5152330   -0.9275400  
C    -2.3396570   -3.4403980   -1.5515970  
O    -2.6498730   -4.5718550   -1.8855420  
C    -0.8768100   -2.9414220   -1.8022080  
O    -0.0656550   -3.6961320   -2.3136660  
C    -0.5492410   -1.5653600   -1.4193980  
H    -4.2989400   -2.8735210   -0.7649020  
H     0.4423840   -1.2019600   -1.6662210  
H    -3.0745740    1.8049260    0.5237110  
C    -6.7956220    2.7388400   -0.6667450  
C    -5.5858480    2.1258590   -0.7406030  
C    -5.7313450    0.9098780    0.0494680  
C    -7.1304720    0.9649990    0.5441630  
N    -7.7492120    2.0348500    0.1200910  
C    -7.6969780   -0.0746110    1.3659300  
C    -6.9128630   -1.1277630    1.6882860  
O    -7.3175590   -2.1673030    2.4401960  
C    -5.4864300   -1.2206160    1.2358470  
O    -4.8139980   -2.1606950    1.6488600  
C    -4.9273890   -0.1501080    0.3465900  
H    -4.7153060    2.4446540   -1.2959440  
H    -8.7247520    0.0026280    1.7023890  
H    -6.5317180   -2.7435480    2.5507240  
H    -7.0971520    3.6670330   -1.1373150  
