60


C     3.5469460   -3.1144640   -1.9664530  
C     3.5790800   -1.7726000   -1.6780970  
C     4.3090600   -1.6114570   -0.4491960  
C     4.7087110   -2.9131400   -0.0472110  
N     4.2125350   -3.8081920   -0.9753910  
C     5.4971150   -3.1585420    1.0812660  
C     5.9157420   -2.0518790    1.8021460  
O     6.7022230   -2.2077560    2.8997870  
C     5.5453950   -0.7323240    1.4240090  
O     6.0348360    0.2305980    2.2700080  
C     4.7093210   -0.4771460    0.3282960  
H     3.1464530   -0.9912800   -2.2850130  
H     4.4065580   -4.7971030   -0.9841720  
H     5.8072670   -4.1537850    1.3831340  
H     6.9014390   -1.3008080    3.2050610  
H     6.3282750    0.9862960    1.7030390  
H     3.1106010   -3.6358650   -2.8069050  
C     0.6596500    1.1167570   -0.6261000  
C     1.7470570    0.3601700   -0.2147830  
C     2.9202190    1.1602350   -0.3208860  
C     2.4652150    2.4841620   -0.8114820  
N     1.1080210    2.3830980   -1.0025480  
C     3.2797850    3.5487000   -1.0299080  
C     4.6893230    3.3863680   -0.7289650  
O     5.5300290    4.2523430   -0.9174060  
C     5.1653410    2.0269860   -0.0923450  
O     6.3193300    2.0084530    0.3427500  
C     4.2484480    0.8823420   -0.0273230  
H     1.7149110   -0.6396920    0.1812750  
H     2.9362890    4.4966780   -1.4302290  
H     0.4557130    3.1374490   -1.1801640  
C    -1.4962380   -2.7767190   -0.5848690  
C    -0.5454940   -1.8043290   -0.7151370  
C    -1.2142920   -0.5375830   -0.6274430  
C    -2.6459960   -0.8507070   -0.4386030  
N    -2.7427810   -2.2292550   -0.3552260  
C    -3.6552840    0.0692240   -0.3121720  
C    -3.2777570    1.4626630   -0.6346890  
O    -4.0922220    2.3295210   -0.8861530  
C    -1.7594680    1.8351300   -0.7510670  
O    -1.4989830    3.0189690   -0.9319660  
C    -0.7419240    0.7717310   -0.6652690  
H     0.5041630   -1.9744630   -0.8991650  
H    -1.3799710   -3.8514930   -0.6335700  
H    -3.6169310   -2.7007710   -0.5643620  
C    -6.2362660    1.9928080    2.6273470  
C    -7.4269140    1.3880820    2.4208540  
C    -7.1738880    0.3953720    1.3792520  
C    -5.7305470    0.5842780    1.0407100  
N    -5.1836740    1.4906540    1.7882250  
C    -5.0511310   -0.2294480    0.0280560  
C    -5.7975780   -1.2425130   -0.4968720  
O    -5.3325790   -2.1343230   -1.4079740  
C    -7.2378580   -1.4646920   -0.1604950  
O    -7.8119390   -2.3928180   -0.7350700  
C    -7.9042060   -0.5837600    0.8122860  
H    -8.3673880    1.5668770    2.9229850  
H    -6.1182520   -2.6917370   -1.6245810  
H    -8.9466170   -0.7880060    1.0367550  
H    -5.9961670    2.7814410    3.3295440  
