62


C     3.6980450   -1.2302450   -2.1790300  
C     4.9060780   -1.8655090   -2.0926320  
C     5.4445700   -1.5803730   -0.7926340  
C     4.5000350   -0.7588900   -0.1234670  
N     3.4309530   -0.5483200   -0.9934370  
C     4.6888320   -0.3067860    1.1920630  
C     5.8616800   -0.6783650    1.8338510  
O     6.0937690   -0.2654300    3.1129250  
C     6.8225720   -1.4893090    1.1745470  
O     7.9355980   -1.7701750    1.9430750  
C     6.6255790   -1.9437330   -0.1168460  
H     5.3658460   -2.4613810   -2.8693060  
H     3.9531340    0.2882350    1.7221830  
H     6.9542180   -0.6303050    3.3826820  
H     8.5440140   -2.3317440    1.4405110  
H     7.3718250   -2.5732500   -0.5977910  
H     2.9902370   -1.1713960   -2.9931130  
C    -0.9088610   -1.5374830   -1.0395470  
C     0.4673350   -1.6116280   -1.0936310  
C     0.9797870   -0.2997740   -0.8332130  
C    -0.1321350    0.5528940   -0.6199090  
N    -1.2662680   -0.2259330   -0.7336220  
C    -0.0261660    1.9288110   -0.3224360  
C     1.2766050    2.4275340   -0.2288380  
O     1.4761670    3.7248590    0.1113870  
C     2.4095240    1.6006470   -0.4523510  
O     3.6080560    2.2643910   -0.3550830  
C     2.2798390    0.2482550   -0.7519090  
H     1.0455970   -2.5137330   -1.2349550  
H    -2.2009760    0.1446440   -0.8196650  
H     2.4343150    3.8935560    0.0733900  
H     4.3444430    1.6296620   -0.3608390  
C    -1.9266680   -3.6402910   -2.0184810  
C    -1.9246890   -2.5694060   -1.1703020  
C    -3.1305300   -2.6932930   -0.3544170  
C    -3.8260090   -3.9221500   -0.8082780  
N    -3.0341170   -4.4544790   -1.8060880  
C    -4.9985600   -4.3705300   -0.2911540  
C    -5.6161090   -3.6154300    0.7979620  
O    -6.6720580   -3.9388610    1.3187940  
C    -4.8710250   -2.3336450    1.3216160  
O    -5.3433220   -1.7041960    2.2573060  
C    -3.6241920   -1.9427630    0.6641090  
H    -5.4998070   -5.2691410   -0.6373020  
H    -3.1236080   -1.0533450    1.0283040  
H    -1.2047850   -3.8963610   -2.7823610  
H    -3.2643970   -5.2707090   -2.3509240  
C    -3.5566880    1.6478830    2.3209010  
C    -4.2390330    2.7431740    1.9011230  
C    -3.4480940    3.3829870    0.8708790  
C    -2.2273700    2.5546140    0.7149030  
N    -2.3651970    1.5026590    1.6085050  
C    -1.2053300    2.8043670   -0.1575150  
C    -1.3759260    3.9830800   -1.0413730  
O    -0.6107460    4.2400550   -1.9529560  
C    -2.6291840    4.9124900   -0.8364060  
O    -2.7111460    5.9334980   -1.5021090  
C    -3.6447190    4.5070180    0.1303170  
H    -5.2064800    3.0683250    2.2550150  
H    -4.5228930    5.1359370    0.2395240  
H    -3.8402290    0.9004500    3.0505460  
H    -1.6037410    0.8950430    1.8724730  
