64


C     3.0601940   -2.2045970   -2.0137290  
C     4.0788510   -3.1153280   -1.9835950  
C     4.8671460   -2.8347020   -0.8165100  
C     4.2627040   -1.7288640   -0.1642510  
N     3.1522590   -1.3494050   -0.9150580  
C     4.7576330   -1.1977240    1.0383260  
C     5.8966780   -1.7833270    1.5757830  
O     6.4151460   -1.3062240    2.7420760  
C     6.5215230   -2.8804090    0.9272580  
O     7.6430960   -3.3478280    1.5824540  
C     6.0181910   -3.4114090   -0.2469540  
H     4.2533650   -3.8945950   -2.7127750  
H     4.2633020   -0.3976350    1.5796720  
H     7.1869380   -1.8561370    2.9626490  
H     7.9915890   -4.1244570    1.1201820  
H     6.5064250   -4.2619000   -0.7186610  
H     2.2702450   -2.0565600   -2.7356030  
C    -1.2688250   -0.9928390   -0.5130620  
C     0.0198790   -1.4842490   -0.6573810  
C     0.9067130   -0.3723860   -0.5816070  
C     0.1120300    0.7899990   -0.3808840  
N    -1.1969640    0.3824820   -0.3456730  
C     0.6269430    2.0993170   -0.2427480  
C     2.0138550    2.1777650   -0.3450870  
O     2.6388810    3.3997740   -0.2517770  
C     2.8431480    1.0458290   -0.5678530  
O     4.1772440    1.3569630   -0.6892210  
C     2.3128100   -0.2328780   -0.6769810  
H     0.2901250   -2.5257160   -0.7547200  
H    -1.9802110    1.0182860   -0.3099880  
H     3.5989820    3.2313670   -0.3137050  
H     4.7275490    0.5714010   -0.5180900  
C    -2.5308870   -1.6783250   -0.4439020  
C    -2.8924050   -2.9234910   -0.8901550  
C    -4.2721360   -3.1382730   -0.5501030  
C    -4.7185230   -1.9086230    0.1505190  
N    -3.6414490   -1.0321890    0.1343480  
C    -5.9513960   -1.7369890    0.6849530  
C    -6.9285420   -2.8153160    0.5390970  
O    -8.0627900   -2.7448730    0.9871120  
C    -6.4926480   -4.1102020   -0.2394380  
O    -7.3050840   -5.0140360   -0.3780220  
C    -5.1279310   -4.1803930   -0.7534200  
H    -2.2603300   -3.6001710   -1.4470630  
H    -6.2586260   -0.8334170    1.2029230  
H    -4.8318810   -5.0863690   -1.2735130  
H    -3.5355850   -0.3023420    0.8277010  
C    -2.8036820    2.8411670    2.5908550  
C    -1.7027530    2.3142430    1.9623690  
C    -1.3171090    3.2386960    0.9249400  
C    -2.2309540    4.3240820    0.9918510  
N    -3.1300310    4.0462300    2.0020700  
C    -2.1455050    5.4505090    0.1657240  
C    -1.0932960    5.4872440   -0.7333840  
O    -0.9301780    6.5590920   -1.5540000  
C    -0.1653650    4.4132460   -0.8316780  
O     0.7885130    4.5944150   -1.8103220  
C    -0.2677970    3.2662680   -0.0414820  
H    -1.1958750    1.4016090    2.2408520  
H    -3.8770720    4.6558750    2.2961060  
H    -2.8418760    6.2807010    0.2228100  
H    -0.1273790    6.3704510   -2.0766840  
H     1.6574590    4.3272170   -1.4424330  
H    -3.3737220    2.4660600    3.4292910  
