60


C     4.0745590   -2.2040680    2.4454640  
C     2.8102150   -1.9944240    1.9601670  
C     2.6066800   -2.9170210    0.8776810  
C     3.8015560   -3.6776190    0.7648150  
N     4.6806720   -3.2121960    1.7200270  
C     3.9719060   -4.7122550   -0.1613210  
C     2.8944700   -5.0074970   -0.9792440  
O     2.9821690   -6.0121850   -1.8930160  
C     1.6792290   -4.2794170   -0.8840030  
O     0.7199160   -4.6763990   -1.7940360  
C     1.5155500   -3.2123810    0.0100820  
H     2.1090180   -1.2630070    2.3317410  
H     5.5962920   -3.5929840    1.8998240  
H     4.8893330   -5.2861920   -0.2434710  
H     2.1128790   -6.0407280   -2.3359660  
H    -0.1222250   -4.8086650   -1.3109630  
H     4.5998620   -1.7166080    3.2546510  
C     0.8171460    1.1289190   -0.1370340  
C    -0.5530630    1.1978310   -0.1125150  
C    -1.0054330   -0.1658350   -0.0714480  
C     0.2531440   -0.9782040   -0.0424050  
N     1.3027310   -0.2134450   -0.0982480  
C     0.2574920   -2.4370410    0.0302000  
C    -0.9857560   -2.9955520    0.0453310  
O    -1.1908880   -4.3380000    0.0709960  
C    -2.2710720   -2.2319880    0.0041130  
O    -3.3038830   -2.8987000   -0.0352240  
C    -2.2487370   -0.7427720   -0.0370110  
H    -1.1701330    2.0837210   -0.1005230  
H    -2.1733790   -4.4393870    0.0640030  
C    -3.4975960   -0.0042210   -0.0776710  
C    -3.7668760    1.1328330   -0.7946600  
C    -5.1447130    1.4632650   -0.4966610  
C    -5.5756440    0.3992740    0.4642630  
N    -4.6230130   -0.4536900    0.7002010  
C    -6.9022190    0.3862220    1.0257350  
C    -7.7597750    1.3607750    0.6399350  
O    -9.0227860    1.4669130    1.0741660  
C    -7.3578710    2.4376480   -0.3387490  
O    -8.2007940    3.2832410   -0.6318320  
C    -5.9923070    2.4389290   -0.8916400  
H    -3.1192590    1.6405830   -1.4951900  
H    -7.1886080   -0.3918680    1.7242420  
H    -9.3914340    2.2596070    0.6248610  
H    -5.7379620    3.2339420   -1.5860250  
C     1.8060740    2.1703630   -0.1635970  
C     1.6800830    3.5412820   -0.2322500  
C     3.0029700    4.0990380   -0.2169900  
C     3.9408940    2.9466700   -0.1315850  
N     3.1531020    1.8193070   -0.1092030  
C     5.2928070    3.0659870   -0.0873700  
C     5.8766460    4.4026280   -0.1264460  
O     7.0806490    4.6073900   -0.0880060  
C     4.9041680    5.6354110   -0.2223030  
O     5.3744530    6.7625770   -0.2589240  
C     3.4623320    5.3826770   -0.2625370  
H     0.7536090    4.0940070   -0.2919210  
H     5.9630050    2.2144950   -0.0250500  
H     2.8005400    6.2412310   -0.3258200  
H     3.4521740    0.8565760   -0.0289080  
