60


C     4.5225010    0.0562500   -0.0057790  
C     4.4926140   -1.2150780   -0.5568270  
C     5.8082550   -1.7513660   -0.4779980  
C     6.6253010   -0.7645540    0.1420610  
N     5.8351100    0.3416620    0.3812550  
C     7.9832240   -0.9688940    0.4100760  
C     8.5301540   -2.1843910    0.0302800  
O     9.8433750   -2.4369690    0.2643080  
C     7.7318390   -3.1784520   -0.6117630  
O     8.4338360   -4.3201760   -0.9286620  
C     6.3930060   -2.9768440   -0.8701060  
H     3.6269070   -1.6771330   -1.0113550  
H     6.0698080    1.0634280    1.0480190  
H     8.6111200   -0.2241300    0.8875570  
H    10.0378530   -3.3279970   -0.0760850  
H     7.8494570   -4.9579820   -1.3650840  
H     5.8001610   -3.7477680   -1.3570500  
C     3.4741810    1.0224890    0.1398410  
C     2.1099000    0.8525270    0.1644510  
C     1.4932070    2.1388890    0.3049690  
C     2.6044930    3.1156850    0.3556570  
N     3.7868530    2.3815400    0.3318630  
C     2.4554670    4.4612330    0.3982790  
C     1.1008680    4.9983280    0.4252640  
O     0.8570230    6.1943200    0.4417060  
C    -0.1016470    3.9863340    0.4470040  
O    -1.2322560    4.4445500    0.5256730  
C     0.1742530    2.5386890    0.3783270  
H     1.6024400   -0.0989320    0.1164940  
H     3.2884040    5.1572480    0.4186720  
H     4.6320120    2.7792490   -0.0573220  
C    -0.9818240    0.4683870    1.2254730  
C    -0.9367500    1.5842010    0.4400900  
C    -2.1924450    1.5896250   -0.3212910  
C    -2.9441620    0.3824620    0.0979060  
N    -2.1529220   -0.2523220    1.0264300  
C    -4.1591400   -0.0094810   -0.4056080  
C    -4.7843340    0.8823650   -1.4020110  
O    -5.9199870    0.7185870   -1.8134520  
C    -3.9673410    2.1178220   -1.9113700  
O    -4.4270450    2.7926320   -2.8170480  
C    -2.6781210    2.4184750   -1.2791110  
H    -2.1565740    3.3104290   -1.6041790  
H    -0.2562670    0.1234710    1.9498230  
H    -2.4529580   -1.0400940    1.5821590  
C    -5.3657870   -1.9387010    3.4763560  
C    -4.8650640   -1.0411320    2.5883790  
C    -5.1056240   -1.6321510    1.2756730  
C    -5.7920100   -2.9211580    1.5865310  
N    -5.9335770   -3.0961540    2.8731490  
C    -6.2432040   -3.8135710    0.5513020  
C    -6.0157540   -3.4521840   -0.7319760  
O    -6.3734040   -4.1872160   -1.7962280  
C    -5.2679020   -2.1919670   -1.0840710  
O    -4.9632140   -2.0367430   -2.2605160  
C    -4.8547890   -1.2355060   -0.0022730  
H    -4.4374080   -0.0702470    2.7961760  
H    -6.7489870   -4.7365180    0.8121130  
H    -6.0304740   -3.7016580   -2.5784350  
H    -5.3905710   -1.8563060    4.5569420  
