60


C    -3.9787430   -1.9902360    1.1916870  
C    -4.6937070   -3.0554060    0.7289440  
C    -5.7508140   -2.5351720   -0.0956580  
C    -5.6366680   -1.1232940   -0.0845800  
N    -4.5341460   -0.7967880    0.7147490  
C    -6.4849220   -0.2984320   -0.8311140  
C    -7.4806570   -0.9096660   -1.5775640  
O    -8.3383410   -0.1465930   -2.3150560  
C    -7.6186560   -2.3219870   -1.5861540  
O    -8.6539810   -2.7801050   -2.3778160  
C    -6.7681560   -3.1355260   -0.8599910  
H    -4.5062000   -4.0945010    0.9641640  
H    -6.4149810    0.7818680   -0.8254570  
H    -8.9754280   -0.7506050   -2.7334900  
H    -8.7419720   -3.7387880   -2.2718230  
H    -6.8798050   -4.2176430   -0.8897390  
H    -3.1409080   -1.9493420    1.8720340  
C    -0.4381880    0.7643400    0.4700950  
C    -1.5621950   -0.0150890    0.3887610  
C    -2.6785170    0.7599240    0.8640810  
C    -2.1348130    2.0795520    1.2435750  
N    -0.7812540    2.0385520    0.9452620  
C    -2.8558350    3.1095050    1.7563340  
C    -4.2869300    2.9205580    1.9276440  
O    -5.0415690    3.7917110    2.3307560  
C    -4.9066630    1.5195370    1.5594560  
O    -6.0861790    1.3261120    1.7891990  
C    -4.0173550    0.4793180    0.9850060  
H    -1.6147560   -1.0066150   -0.0354890  
H    -2.4246890    4.0704390    2.0179670  
H    -0.1126760    2.6807800    1.3450290  
C     1.4952040   -0.8060300    0.2020430  
C     0.9313130    0.4392150    0.1295630  
C     1.9706480    1.3383960   -0.3734390  
C     3.1738760    0.4981880   -0.5655070  
N     2.8067000   -0.7915080   -0.2345420  
C     4.3819890    0.9692570   -1.0035730  
C     4.4647210    2.3963130   -1.3714710  
O     5.4829630    2.9025530   -1.8102150  
C     3.1765240    3.2821150   -1.2142870  
O     3.2426780    4.4550320   -1.5385050  
C     1.9580940    2.6583140   -0.7014200  
H     1.0729780    3.2799380   -0.6241020  
H     1.0495160   -1.7289760    0.5476710  
H     3.4622310   -1.5494560   -0.1005240  
C     6.3733570    0.1720640   -2.2727850  
C     7.3814700   -0.7186470   -2.1384490  
C     7.2441780   -1.3472470   -0.8424940  
C     6.0485440   -0.7336170   -0.2113160  
N     5.5305820    0.1683910   -1.1395400  
C     5.6277050   -1.0185230    1.0511290  
C     6.3634210   -2.0197770    1.8257270  
O     6.0492040   -2.3319000    2.9630810  
C     7.5979240   -2.7165060    1.1526850  
O     8.1994030   -3.5810950    1.7677470  
C     7.9808640   -2.2868500   -0.1965000  
H     8.1553760   -0.9195640   -2.8650000  
H     4.8109200   -0.5039870    1.5449670  
H     8.8650750   -2.7387410   -0.6356560  
H     6.1466430    0.8413950   -3.0881630  
