64


C     1.6322190   -0.2942360    0.6903520  
C     2.8376660    0.3149720    0.4375460  
C     2.5424660    1.6923300    0.0866680  
C     1.1391470    1.8562530    0.1400340  
N     0.6062320    0.6302200    0.5239710  
C     0.4962010    3.0671110   -0.1296280  
C     1.2979410    4.1498120   -0.4583110  
O     0.7285450    5.3577440   -0.7330990  
C     2.7113640    4.0158480   -0.5011590  
O     3.3706930    5.1850210   -0.8257730  
C     3.3369590    2.8115810   -0.2331190  
H    -0.5812570    3.1796510   -0.0896850  
H     1.4507670    5.9799890   -0.9273520  
H     4.3277970    5.0400840   -0.7902770  
H     4.4220470    2.7395780   -0.2474750  
H     1.4007960   -1.3156530    0.9532450  
C    -1.4458730    0.4894650    1.8479300  
C    -2.7376130    0.0993770    1.6236360  
C    -2.8446240   -0.2989290    0.2399110  
C    -1.5600140   -0.1386390   -0.3340850  
N    -0.7275870    0.3558460    0.6655780  
C    -1.2495790   -0.4793460   -1.6518430  
C    -2.2774140   -1.0265520   -2.4027990  
O    -2.0575280   -1.4101750   -3.6859910  
C    -3.5837280   -1.2025150   -1.8639920  
O    -4.4764300   -1.7344090   -2.7589330  
C    -3.9096960   -0.8131070   -0.5609150  
H    -3.5156210    0.0616070    2.3725880  
H    -0.2586140   -0.3585330   -2.0741430  
H    -2.9006020   -1.7974430   -3.9928230  
H    -5.0308360   -2.3854270   -2.2635190  
H    -0.9492970    0.8452110    2.7386870  
C     4.1462110   -0.3150430    0.5198410  
C     4.6301460   -1.2744720    1.3826260  
C     5.9819220   -1.5632860    1.0028090  
C     6.2832740   -0.7395480   -0.1138370  
N     5.1655870    0.0355850   -0.3667650  
C     7.5234090   -0.7672980   -0.7612310  
C     8.4839990   -1.6387160   -0.2692770  
O     9.7105390   -1.7086880   -0.8674840  
C     8.2067280   -2.4589920    0.8553490  
O     9.2656860   -3.2660210    1.2324680  
C     6.9797670   -2.4295020    1.4928790  
H     4.0891430   -1.6875550    2.2232450  
H     4.9973970    0.5283490   -1.2311930  
H     7.7555160   -0.1441940   -1.6191280  
H    10.2270970   -2.3746890   -0.3820960  
H     8.9963460   -3.8206310    1.9792750  
H     6.7914660   -3.0701820    2.3524280  
C    -6.3175430    2.2050830    1.5206380  
C    -7.4334090    1.4853240    1.8010850  
C    -7.2382690    0.1619480    1.2471720  
C    -5.8909570    0.1690660    0.6203200  
N    -5.3991830    1.4387980    0.8093470  
C    -5.2908980   -0.8900380   -0.0243710  
C    -6.1389320   -2.0717330   -0.1762950  
O    -5.8523060   -3.0325850   -0.8932230  
C    -7.5209340   -2.1493420    0.5739850  
O    -8.1284280   -3.2071410    0.5528680  
C    -8.0199570   -0.9497000    1.2364060  
H    -8.3115370    1.8336580    2.3246150  
H    -8.9924640   -0.9973190    1.7156230  
H    -6.0836090    3.2340280    1.7597530  
H    -4.4559110    1.7133160    0.5766850  
