62


C     3.4590260    0.2105290    1.8088740  
C     3.0221880   -0.5755240    0.7610470  
C     4.2150110   -1.1393510    0.1567730  
C     5.3267620   -0.6559660    0.8938690  
N     4.8319510    0.1624760    1.8897400  
C     6.6498570   -0.9836740    0.5744210  
C     6.8584320   -1.8144060   -0.5150900  
O     8.1261180   -2.1677490   -0.8664230  
C     5.7596900   -2.2972060   -1.2770290  
O     6.1305390   -3.1003310   -2.3358540  
C     4.4541280   -1.9706630   -0.9606800  
H     5.3895470    0.6421120    2.5795120  
H     7.5007600   -0.6125920    1.1363520  
H     8.0625570   -2.7339690   -1.6550590  
H     5.3438710   -3.3737460   -2.8307450  
H     3.6328800   -2.3397550   -1.5700890  
H     2.8807610    0.7777410    2.5241490  
C    -0.4438900    2.2427670    0.0597830  
C     0.8118950    1.6787370    0.3183040  
C     0.6902350    0.2743720    0.2191810  
C    -0.6675520   -0.0001510   -0.1253440  
N    -1.3198490    1.1976320   -0.2113030  
C    -1.1726360   -1.3003180   -0.3384360  
C    -0.2400400   -2.3275400   -0.1834900  
O    -0.6207820   -3.6169480   -0.3748870  
C     1.1172900   -2.0731770    0.1723260  
O     1.8600970   -3.2271030    0.3022940  
C     1.6200210   -0.7962740    0.3740650  
H     1.7237360    2.2269910    0.4930980  
H    -2.2900590    1.3512110   -0.4476260  
H     0.1530300   -4.1774090   -0.1820890  
H     2.7465500   -3.0017840    0.6337970  
C     1.3383190    6.1525050    1.3907120  
C     1.1363380    4.8147390    1.2526070  
C    -0.1077700    4.6848460    0.5058370  
C    -0.5279000    6.0805460    0.2875690  
N     0.3224230    6.9405170    0.7932380  
C    -1.7484940    6.4215250   -0.3991990  
C    -2.5387180    5.4119610   -0.8263030  
O    -3.7242710    5.5940430   -1.4486840  
C    -2.1616550    3.9854540   -0.6172280  
O    -2.9811360    3.1385750   -0.9984580  
C    -0.8437180    3.6255430    0.0219260  
H     1.7432790    4.0188890    1.6569440  
H    -2.0188190    7.4625830   -0.5381900  
H    -4.0744280    4.6938880   -1.6116580  
H     2.1541500    6.6524700    1.8992210  
C    -3.2628150   -0.9151820   -1.7110540  
C    -2.5768070   -1.5418020   -0.7102380  
C    -3.5318410   -2.4464940   -0.0680170  
C    -4.8162780   -2.2870480   -0.7935560  
N    -4.5823180   -1.3449680   -1.7749410  
C    -5.9593690   -2.9579500   -0.4988560  
C    -5.9420650   -3.8999470    0.6145840  
O    -6.9179200   -4.5513490    0.9559380  
C    -4.5965670   -4.0726490    1.4103190  
O    -4.5615020   -4.8486890    2.3521490  
C    -3.4279970   -3.2915980    0.9884220  
H    -6.8874970   -2.8247180   -1.0462880  
H    -2.5033440   -3.4333460    1.5356690  
H    -2.9024650   -0.1815460   -2.4207470  
H    -5.2675850   -1.0198390   -2.4385740  
