62


C    -3.7882940    1.7451370   -0.7641720  
C    -4.2963570    0.5306070   -0.3611350  
C    -3.1932860   -0.1709590    0.2628810  
C    -2.0667640    0.6859210    0.2295640  
N    -2.4648270    1.8478920   -0.3912670  
C    -0.7768780    0.3142540    0.6958050  
C    -0.6639320   -1.0004450    1.1951390  
O     0.5007080   -1.4527510    1.7174730  
C    -1.7869870   -1.8671130    1.2195380  
O    -1.5066350   -3.1117610    1.7512530  
C    -3.0335200   -1.4766280    0.7703110  
H    -1.8319000    2.5795980   -0.6779130  
H     0.3490370   -2.3756910    1.9915780  
H    -2.2704490   -3.6964400    1.6374180  
H    -3.8688330   -2.1718750    0.7925990  
H    -4.2790370    2.5486720   -1.2918790  
C     0.3381540    1.2392970    0.6423560  
C     0.3109750    2.6126680    0.7172010  
C     1.6721840    3.0451570    0.5700830  
C     2.4520650    1.7741810    0.3844320  
N     1.6703000    0.7392330    0.4347110  
C     3.9014830    1.7603170    0.1705570  
C     4.4998690    3.0044820    0.1874720  
O     5.7984340    3.2400560    0.0516280  
C     3.7199680    4.2932010    0.3922360  
O     4.3812450    5.3357620    0.3855080  
C     2.2794900    4.2558910    0.5783080  
H    -0.5323160    3.2476090    0.9512040  
H     5.8763090    4.2245660    0.1156510  
H     1.7624700    5.2010010    0.7111460  
C     4.6110600    0.5113970   -0.0269370  
C     4.1297020   -0.7687510    0.0914190  
C     5.2421600   -1.6345670   -0.2126790  
C     6.3724840   -0.6971760   -0.5146650  
N     6.0098950    0.5425790   -0.4074220  
C     7.6811560   -1.1854260   -0.8772580  
C     7.8570540   -2.5254760   -0.9305460  
O     9.0140280   -3.1275240   -1.2490890  
C     6.7363970   -3.4951700   -0.6278530  
O     7.0022520   -4.6967400   -0.7056700  
C     5.4151100   -2.9775810   -0.2662810  
H     3.1263350   -1.0587980    0.3598310  
H     8.4819080   -0.4867610   -1.0928040  
H     8.8177660   -4.0907030   -1.1994880  
H     4.6342190   -3.7032360   -0.0604280  
C    -7.0639440   -1.4138600    2.4858110  
C    -8.1134550   -1.6067740    1.6261280  
C    -7.7186920   -1.0765880    0.3511140  
C    -6.3980900   -0.5790260    0.4979490  
N    -6.0222950   -0.8060280    1.8087890  
C    -5.6752430    0.0479750   -0.5422070  
C    -6.3602230    0.1862380   -1.7524990  
O    -5.7575230    0.8065900   -2.8131780  
C    -7.6787150   -0.3105810   -1.9174570  
O    -8.1929770   -0.1010380   -3.1860510  
C    -8.3605170   -0.9422650   -0.8955920  
H    -9.0603170   -2.0680150    1.8715500  
H    -5.1633200   -0.4768580    2.2214700  
H    -6.3758750    0.7441730   -3.5621380  
H    -9.0622050   -0.5224160   -3.2541890  
H    -9.3739800   -1.3075470   -1.0492310  
H    -6.9640700   -1.6638040    3.5328190  
