62


C     5.5342560   -2.2594280    0.1509720  
C     6.8911420   -2.0948080    0.1673940  
C     7.1535270   -0.6976660   -0.0388920  
C     5.8994750   -0.0530020   -0.1829960  
N     4.9082240   -1.0264040   -0.0594390  
C     5.7797970    1.3289530   -0.3689460  
C     6.9498590    2.0693430   -0.4263700  
O     6.8905580    3.4200780   -0.6130840  
C     8.2157980    1.4392540   -0.2926010  
O     9.2858110    2.3114570   -0.3693230  
C     8.3294300    0.0754700   -0.0998420  
H     7.6229880   -2.8823020    0.2877350  
H     4.8256970    1.8252470   -0.4983760  
H     7.8063900    3.7431860   -0.6664480  
H    10.1127420    1.8073120   -0.3727360  
H     9.3086890   -0.3870620    0.0078550  
H     4.9354410   -3.1576810    0.2097610  
C     1.9892410   -2.1290490    2.9117440  
C     0.8533410   -1.7602650    2.2638410  
C     1.2467980   -1.1687480    0.9976700  
C     2.7223140   -1.2368730    0.9659960  
N     3.1123800   -1.8195150    2.1532870  
C     3.5126260   -0.8256550   -0.0716410  
C     2.8373310   -0.2664410   -1.2480650  
O     3.4224820    0.0671740   -2.2637650  
C     1.2737500   -0.0789060   -1.1826210  
O     0.7481780    0.5687880   -2.0681000  
C     0.5160160   -0.6338500   -0.0315440  
H    -0.1588780   -1.9015800    2.6112750  
H     2.1065740   -2.6062050    3.8756560  
H     4.0722800   -2.0085800    2.4002380  
C    -2.2437430    1.3533010    2.8075370  
C    -3.4173660    1.0701970    2.1555720  
C    -3.0813640    0.3241260    0.9697840  
C    -1.6704160    0.1745360    0.9740950  
N    -1.1898090    0.8219240    2.0941610  
C    -0.9538850   -0.5198960   -0.0230170  
C    -1.7334080   -1.1037360   -1.0227430  
O    -1.1430930   -1.8491580   -1.9879620  
C    -3.1488890   -0.9802140   -1.0477280  
O    -3.7309580   -1.6122550   -2.1172970  
C    -3.8503360   -0.2376140   -0.0942330  
H    -4.4066260    1.3303710    2.5035260  
H    -0.2175130    0.8690650    2.3560090  
H    -1.8695930   -2.1600520   -2.5632040  
H    -4.5538350   -2.0463640   -1.7852990  
H    -2.0706750    1.8833670    3.7333970  
C    -6.1390420    3.4923910    0.1666960  
C    -7.4068630    3.0152440    0.0793830  
C    -7.3121940    1.5792580   -0.0781140  
C    -5.8622580    1.2557710   -0.0644260  
N    -5.2125090    2.4591150    0.0703910  
C    -5.3111270   -0.0012110   -0.1838350  
C    -6.2740240   -1.0678010   -0.4543560  
O    -5.9540510   -2.2114890   -0.7849580  
C    -7.8181750   -0.7748830   -0.3587400  
O    -8.5883770   -1.7183420   -0.4334560  
C    -8.2545560    0.6084550   -0.2094600  
H    -8.3178560    3.5949120    0.1043340  
H    -9.3209420    0.8087270   -0.1885140  
H    -5.7932280    4.5111350    0.2815500  
H    -4.2163990    2.5431190    0.2149140  
