62


C    -4.8354850    2.0508120    0.0010310  
C    -4.2106540    0.8334230   -0.2282530  
C    -5.2413210   -0.1795260   -0.0647470  
C    -6.4383510    0.4974790    0.2786300  
N    -6.1565320    1.8526620    0.3032980  
C    -7.6454640   -0.1590390    0.5452230  
C    -7.6485930   -1.5420900    0.4625240  
O    -8.7963970   -2.2400330    0.6986450  
C    -6.4604070   -2.2415150    0.1259390  
O    -6.6149780   -3.6156530    0.0794930  
C    -5.2715490   -1.5865720   -0.1302610  
H    -6.8339510    2.5848400    0.4508180  
H    -8.5581850    0.3686820    0.8024250  
H    -8.5920190   -3.1797960    0.5498780  
H    -5.8344420   -4.0090250   -0.3385480  
H    -4.3881760   -2.1454350   -0.4181940  
H    -4.4310850    3.0490640   -0.0825110  
C    -0.6436430    3.0054820    1.2337910  
C    -1.8825140    2.4849490    1.0756040  
C    -1.8213720    1.5033930    0.0128880  
C    -0.4137970    1.4863760   -0.4391050  
N     0.2697640    2.4128190    0.3428180  
C     0.0688880    0.7113800   -1.4541210  
C    -0.8437960   -0.2116690   -2.0936070  
O    -0.5212710   -0.9739680   -2.9955560  
C    -2.3354220   -0.2609630   -1.5882970  
O    -3.0663220   -1.1028470   -2.0831310  
C    -2.7917400    0.7068150   -0.5541560  
H    -2.7537910    2.7361960    1.6602070  
H     1.0870540    0.7660210   -1.8193910  
H    -0.2901740    3.7583750    1.9210300  
C     3.8853750   -0.0728260    0.3392150  
C     4.8014350    0.9502070    0.2146840  
C     4.0880820    2.1957230    0.1751270  
C     2.6533810    1.8401040    0.2799250  
N     2.5980490    0.4752700    0.3782850  
C     1.6362640    2.7576610    0.2701020  
C     2.0005080    4.1824780    0.2112630  
O     1.1690450    5.0757810    0.2582390  
C     3.5234720    4.5645240    0.1066610  
O     3.8122190    5.7513040    0.0521370  
C     4.5051690    3.4927330    0.0935560  
H     5.8758600    0.8555040    0.2563780  
H     5.5530870    3.7663820    0.0228610  
H     1.7652460   -0.0820530    0.5055790  
C     7.2567710   -2.5474320   -1.0847640  
C     6.8022380   -3.7526150   -0.6243330  
C     5.5374830   -3.5089030    0.0091380  
C     5.2833530   -2.1161770   -0.0842030  
N     6.3551740   -1.5535960   -0.7411150  
C     4.0993860   -1.5093200    0.4114650  
C     3.1542170   -2.3911750    0.9643870  
O     1.9615240   -1.9188590    1.4369200  
C     3.4065110   -3.7786770    1.0729210  
O     2.3789520   -4.4754450    1.6779650  
C     4.5826400   -4.3432800    0.6181560  
H     7.3023020   -4.7055510   -0.7262900  
H     6.3627860   -0.6152560   -1.1107960  
H     1.4468940   -2.6895490    1.7395140  
H     2.5210640   -5.4283000    1.5780630  
H     4.7547400   -5.4128550    0.7156360  
H     8.1590400   -2.3001180   -1.6256610  
