64


C    -3.8606490    1.2530820   -1.5053840  
C    -4.4219420    2.3940730   -1.0017390  
C    -5.0493480    2.0456350    0.2423290  
C    -4.8338550    0.6588610    0.4449390  
N    -4.1024580    0.1834770   -0.6411280  
C    -5.2907840   -0.0187490    1.5811720  
C    -5.9897900    0.7168110    2.5249820  
O    -6.4638480    0.1043710    3.6507980  
C    -6.2226310    2.1049120    2.3364200  
O    -6.9338820    2.6973950    3.3645270  
C    -5.7632570    2.7717770    1.2163150  
H    -4.4049770    3.3681840   -1.4715830  
H    -5.1312060   -1.0794900    1.7343690  
H    -6.9311570    0.7817920    4.1691000  
H    -7.0914100    3.6288360    3.1511840  
H    -5.9478290    3.8375080    1.0945730  
H    -3.3347910    1.0801110   -2.4339850  
C     0.0410370   -1.0973010   -0.8325850  
C    -0.1891010   -2.4385830   -1.0195840  
C    -1.6127900   -2.6184030   -1.0273380  
C    -2.1908450   -1.3371660   -0.8528760  
N    -1.1658620   -0.4202060   -0.7412160  
C    -3.5796960   -1.1216760   -0.8102150  
C    -4.3997970   -2.2408540   -0.9464220  
O    -5.7507880   -2.0999440   -0.9183240  
C    -3.8288650   -3.5321410   -1.1122560  
O    -4.7732410   -4.5316110   -1.2290330  
C    -2.4626180   -3.7348310   -1.1604700  
H     0.5694660   -3.1946210   -1.1662780  
H    -1.2813930    0.5498570   -0.4858060  
H    -6.1363150   -2.9877150   -1.0213500  
H    -4.3335440   -5.3827250   -1.3717830  
H    -2.0577620   -4.7358160   -1.2909170  
C     2.3072550   -0.8204310    0.1299340  
C     3.3965650   -0.0064030    0.0287210  
C     3.0430390    1.0196630   -0.9503770  
C     1.6607510    0.7235320   -1.3986680  
N     1.2554010   -0.4120940   -0.6981280  
C     0.9876290    1.4424560   -2.3316610  
C     1.6506650    2.5986670   -2.9336440  
O     1.1162680    3.3050600   -3.7738900  
C     3.1146840    2.9328530   -2.4748990  
O     3.6882380    3.8894380   -2.9697480  
C     3.7395370    2.0698610   -1.4658020  
H    -0.0135790    1.1955370   -2.6669780  
H     4.7644750    2.2885270   -1.1828290  
H     2.1656680   -1.6869060    0.7612740  
C     6.1429250   -3.5113760    0.5582310  
C     5.1172790   -2.6851990    0.1773880  
C     5.3548850   -1.4047440    0.7841180  
C     6.5601280   -1.5186490    1.5251190  
N     7.0129180   -2.8135850    1.3740910  
C     7.1209320   -0.4504720    2.2346750  
C     6.4470630    0.7587630    2.1964940  
O     6.9427340    1.8325470    2.8763760  
C     5.2347240    0.8972800    1.4707110  
O     4.6819600    2.1585990    1.5794290  
C     4.6697930   -0.1596970    0.7571910  
H     4.2981260   -2.9559350   -0.4734540  
H     7.8586440   -3.1839300    1.7780520  
H     8.0443450   -0.5337240    2.7985270  
H     6.3329600    2.5752250    2.7235550  
H     3.8822870    2.2233090    1.0351500  
H     6.3309010   -4.5473120    0.3138440  
