62


C     4.4061830   -0.7360040   -2.7054410  
C     5.6354350   -1.2575340   -2.9962480  
C     6.3202860   -1.4537000   -1.7485040  
C     5.4420360   -1.0290580   -0.7199440  
N     4.2669390   -0.5867890   -1.3252920  
C     5.7746380   -1.1020760    0.6383460  
C     7.0269200   -1.6007880    0.9631230  
O     7.4037120   -1.6921300    2.2722410  
C     7.9243600   -2.0223440   -0.0533640  
O     9.1312970   -2.4954040    0.4282080  
C     7.5871680   -1.9569520   -1.3926190  
H     6.0147380   -1.4719210   -3.9861750  
H     5.1015200   -0.7849340    1.4269210  
H     8.3103440   -2.0439330    2.2862850  
H     9.7078770   -2.7232110   -0.3158180  
H     8.2886650   -2.2930530   -2.1539560  
H     3.5984810   -0.4296950   -3.3549200  
C     1.8806610   -0.6395670   -0.6911230  
C     3.1266710   -0.0884760   -0.6710790  
C     3.0405510    1.1459840    0.0930620  
C     1.6270530    1.2497420    0.5253880  
N     0.9621080    0.1412570    0.0066570  
C     1.1344000    2.2607560    1.2857850  
C     2.0419030    3.3340470    1.6830090  
O     1.6876070    4.2901950    2.3566420  
C     3.5408510    3.2543520    1.2095990  
O     4.3061550    4.1545920    1.5170180  
C     3.9569630    2.0963230    0.4121830  
H     0.0989040    2.3090790    1.6044130  
H     4.9954040    2.0345200    0.1032420  
H     1.5477600   -1.5504400   -1.1700710  
C    -0.9172460   -1.2499370    0.8420860  
C    -0.4098180   -0.1622360    0.1724790  
C    -1.5244470    0.5788440   -0.3597160  
C    -2.6871020   -0.1385400    0.0108790  
N    -2.2858940   -1.2654600    0.7058870  
C    -3.9942600    0.2717430   -0.3491900  
C    -4.0740920    1.5090900   -1.0050290  
O    -5.2839120    2.0611160   -1.2828540  
C    -2.9084000    2.2315310   -1.3780990  
O    -3.1837750    3.4062400   -2.0502940  
C    -1.6393510    1.7747030   -1.0920500  
H    -2.9235220   -1.6981150    1.3710600  
H    -5.1142670    2.9068880   -1.7347170  
H    -2.3772700    3.9376650   -2.1249040  
H    -0.7607510    2.3371070   -1.3975430  
H    -0.3998580   -2.0144080    1.4043220  
C    -5.4959590   -1.9411890    3.2157160  
C    -6.7486540   -2.2668870    2.8294150  
C    -6.8557320   -1.8033560    1.4513850  
C    -5.5291980   -1.1547680    1.1688120  
N    -4.7395480   -1.2707020    2.2016980  
C    -5.2206390   -0.5243250   -0.1074770  
C    -6.1575160   -0.7244560   -1.0878380  
O    -6.0028120   -0.3364370   -2.3569670  
C    -7.4793280   -1.4014260   -0.8413130  
O    -8.2511790   -1.5045070   -1.7934430  
C    -7.7974110   -1.9223320    0.4984580  
H    -7.5142350   -2.7780480    3.3959670  
H    -6.8372940   -0.5915010   -2.8113890  
H    -8.7603720   -2.4044570    0.6350830  
H    -5.0196530   -2.1259760    4.1709830  
