62


C     5.0583670    0.7224810   -0.0864910  
C     6.0921500    1.5532720    0.2948830  
C     7.3203240    0.8646980    0.0421310  
C     6.9806480   -0.4025540   -0.5009720  
N     5.6009650   -0.4797780   -0.5396260  
C     7.9424490   -1.3442900   -0.8842480  
C     9.2744630   -1.0030630   -0.7083950  
O    10.2526490   -1.8807560   -1.0667410  
C     9.6345590    0.2561910   -0.1521610  
O    10.9979950    0.4392400   -0.0362900  
C     8.6825350    1.1833450    0.2239930  
H     5.9748920    2.5250970    0.7553010  
H     5.0851290   -1.1666950   -1.0689480  
H     7.6879250   -2.3128720   -1.3019810  
H    11.1071310   -1.4638100   -0.8603480  
H    11.1786560    1.3078260    0.3524490  
H     8.9815740    2.1408510    0.6455120  
C     2.9873040    2.1373280   -0.2785960  
C     3.6252330    0.9523150   -0.0607480  
C     2.5752950   -0.0256440    0.2349280  
C     1.2888830    0.7054670    0.1799290  
N     1.6079030    2.0081460   -0.0896120  
C     0.0406000    0.1394240    0.3572220  
C     0.0201600   -1.3261720    0.5149770  
O    -1.0016750   -1.9984120    0.4800560  
C     1.3760090   -2.0831960    0.7372650  
O     1.3417110   -3.2623910    1.0432420  
C     2.6264420   -1.3469080    0.5448730  
H     3.5574130   -1.8909570    0.6654990  
H     3.4070470    3.0949110   -0.5535430  
H     0.9236230    2.6863590   -0.3957000  
C    -1.1870450    0.9124700    0.3540620  
C    -1.3805510    2.2664130    0.5630220  
C    -2.7861020    2.5337940    0.4550440  
C    -3.4334510    1.2306940    0.1712840  
N    -2.4184440    0.3059530    0.1199240  
C    -4.7827160    1.0294820   -0.0170780  
C    -5.5880260    2.2535660   -0.0355850  
O    -6.7664410    2.2888600   -0.3943230  
C    -4.9480980    3.6266980    0.3907780  
O    -5.6870540    4.5921800    0.5173570  
C    -3.5092200    3.6839060    0.5799550  
H    -0.6385820    2.9874870    0.8720670  
H    -3.0625410    4.6409590    0.8300380  
H    -2.5258970   -0.7013990    0.0702840  
C    -4.2870240   -2.8041930    2.2660250  
C    -4.2589590   -1.4915960    1.8687860  
C    -5.0208420   -1.3947790    0.6524510  
C    -5.5060110   -2.7009990    0.3746210  
N    -5.0339510   -3.5361600    1.3668110  
C    -6.3425510   -2.9910950   -0.7078120  
C    -6.7153340   -1.9270460   -1.5130840  
O    -7.5475390   -2.1255550   -2.5715270  
C    -6.2449970   -0.6085500   -1.2671580  
O    -6.6922110    0.3159640   -2.1813750  
C    -5.3665670   -0.3175090   -0.2182860  
H    -3.7674860   -0.6884620    2.3982750  
H    -5.2178730   -4.5250300    1.4287350  
H    -6.7199560   -3.9875050   -0.9140080  
H    -7.6961210   -1.2383440   -2.9525790  
H    -6.9248490    1.1294460   -1.6726510  
H    -3.8324350   -3.2817450    3.1222200  
