62


C    -3.2987660    0.0460640   -0.5402840  
C    -3.6832420    1.3636710   -0.5306140  
C    -5.1149590    1.3779270   -0.4301670  
C    -5.5459940    0.0264300   -0.3712500  
N    -4.4153370   -0.7704350   -0.4270470  
C    -6.8932100   -0.3345940   -0.2627670  
C    -7.8271640    0.6895420   -0.2138030  
O    -9.1555850    0.3932150   -0.1152960  
C    -7.4151490    2.0477160   -0.2632820  
O    -8.4608110    2.9490130   -0.1982720  
C    -6.0822530    2.4004240   -0.3679180  
H    -3.0166920    2.2142320   -0.5534250  
H    -4.4033620   -1.7690410   -0.5691890  
H    -7.2260650   -1.3664030   -0.2172840  
H    -9.6373390    1.2378330   -0.0876610  
H    -8.1119370    3.8522200   -0.2226660  
H    -5.7909750    3.4482660   -0.4031580  
C    -1.0882720   -0.1269330   -1.6341270  
C     0.0579500   -0.8554070   -1.4837750  
C    -0.1394460   -1.7492300   -0.3763440  
C    -1.4517270   -1.5134570    0.1080980  
N    -2.0221380   -0.5117190   -0.6761200  
C    -2.0058140   -2.2062890    1.1900660  
C    -1.2302690   -3.2018860    1.7627450  
O    -1.7152880   -3.9290440    2.8047310  
C     0.0733050   -3.4878450    1.2812200  
O     0.7195590   -4.4839090    1.9819730  
C     0.6595140   -2.7539850    0.2396430  
H     0.9396070   -0.7686110   -2.1001740  
H    -2.9952040   -1.9971320    1.5804090  
H    -1.0113190   -4.5646580    3.0348450  
H     1.1070670   -5.1127160    1.3380150  
H    -1.3541390    0.6294110   -2.3580330  
C     4.0907030   -0.0202060   -0.3008160  
C     5.0829530   -0.8856290   -0.6659310  
C     4.4666270   -2.1928660   -0.6761110  
C     3.0370940   -1.9416730   -0.2950740  
N     2.8342860   -0.6807550   -0.0704020  
C     2.0523910   -3.0203130   -0.1760170  
C     2.5566980   -4.2670060   -0.4003930  
O     1.8091830   -5.3988050   -0.3025530  
C     3.9707060   -4.5522990   -0.7864720  
O     4.2779760   -5.7316050   -0.9833160  
C     4.9206880   -3.4418380   -0.9211290  
H     6.1154960   -0.6606600   -0.8935430  
H     2.4305860   -6.1287600   -0.5381250  
H     5.9420580   -3.6839030   -1.1973740  
C     4.1025740    1.4086800   -0.1291430  
C     5.1194150    2.3282920   -0.2482070  
C     4.5642660    3.6255330    0.0254350  
C     3.1217600    3.4080390    0.3196900  
N     2.9142920    2.0525910    0.2120720  
C     2.2468620    4.4011740    0.6239280  
C     2.7389090    5.7739490    0.6670830  
O     2.0254980    6.7316730    0.9261230  
C     4.2617600    6.0270370    0.3630070  
O     4.6922180    7.1700220    0.3966340  
C     5.1092350    4.8751130    0.0475990  
H     6.1480170    2.1133190   -0.4995760  
H     1.1973310    4.2245270    0.8370420  
H     6.1580450    5.0621840   -0.1622990  
H     2.0462390    1.5488430    0.3331510  
