60


C    -3.9800520   -2.4191380    2.8145920  
C    -3.8955410   -1.2182810    2.1622620  
C    -4.7078040   -1.3122200    0.9820300  
C    -5.2754970   -2.6145320    0.9829060  
N    -4.8037860   -3.2707610    2.1005480  
C    -6.1655710   -3.0668020    0.0028630  
C    -6.5138910   -2.1681430   -0.9914080  
O    -7.3886180   -2.5313370   -1.9709440  
C    -5.9809360   -0.8527820   -1.0131770  
O    -6.4113980   -0.0956780   -2.0861830  
C    -5.0561470   -0.4059150   -0.0604280  
H    -3.3034910   -0.3725520    2.4763560  
H    -5.0748700   -4.1984270    2.3851010  
H    -6.5935240   -4.0642750    0.0081290  
H    -7.4875650   -1.7398440   -2.5339050  
H    -6.7179970    0.7694520   -1.7420900  
H    -3.5133500   -2.7482160    3.7323820  
C    -0.8584260    1.0301380    0.0519300  
C    -1.0403190    2.3845050   -0.0376800  
C    -2.4677470    2.5837580   -0.1391820  
C    -3.0464530    1.2047880   -0.0643350  
N    -2.1152840    0.3121080    0.0349880  
C    -4.4918640    0.9575170   -0.1371340  
C    -5.2432360    2.0761780   -0.3412950  
O    -6.5992120    2.0499350   -0.4766920  
C    -4.6957580    3.4612360   -0.4262170  
O    -5.5044210    4.3817260   -0.5886940  
C    -3.2496530    3.6724050   -0.3063510  
H    -0.2745890    3.1429050   -0.0408300  
H    -6.8499000    2.9980970   -0.5897070  
H    -2.8813060    4.6912770   -0.3743460  
C     3.2388380    2.4799950    0.5566580  
C     3.9780570    1.3339450    0.5597160  
C     2.9703060    0.2648760    0.4093940  
C     1.6619420    0.9840230    0.3145290  
N     1.8455940    2.2718890    0.4114680  
C     0.3844420    0.2873390    0.1583980  
C     0.4674430   -1.0919680    0.1292160  
O    -0.5576470   -1.9223460   -0.0333470  
C     1.7757180   -1.8249140    0.2764530  
O     1.7424660   -3.0546100    0.2535850  
C     3.0338580   -1.0766720    0.4289910  
H    -0.1674130   -2.8267210    0.0027120  
H     3.9451290   -1.6543390    0.5450030  
H     3.6080940    3.4958590    0.6300200  
C     6.2175110    1.9209810    1.5700040  
C     5.4088790    1.1984310    0.7390620  
C     6.3457260    0.3041820    0.0222080  
C     7.6838330    0.6469590    0.5898580  
N     7.5938770    1.5926260    1.4853590  
C     8.8846540   -0.0070110    0.1449630  
C     8.7766680   -0.9347610   -0.8372860  
O     9.8132820   -1.6177420   -1.3469030  
C     7.4499070   -1.2755370   -1.4550750  
O     7.4281590   -2.1208400   -2.3465140  
C     6.2269120   -0.5928580   -0.9740740  
H     9.8392400    0.2570700    0.5863130  
H     9.4320480   -2.2027930   -2.0375270  
H     5.2944730   -0.8590710   -1.4618810  
H     5.9065480    2.6793550    2.2789000  
