62


C    -0.7163520   -0.3287920    1.7476660  
C    -2.0671770   -0.4631140    1.5961380  
C    -2.3779350   -0.1283990    0.2338290  
C    -1.1568340    0.2017400   -0.4047560  
N    -0.1408970    0.0776310    0.5419230  
C    -1.0726650    0.5396550   -1.7611130  
C    -2.2566140    0.5669630   -2.4811630  
O    -2.2423150    0.9042040   -3.8023450  
C    -3.4925240    0.2480800   -1.8598180  
O    -4.5804440    0.3335050   -2.7016190  
C    -3.5840120   -0.1068690   -0.5127850  
H    -2.7698820   -0.7490280    2.3653280  
H    -0.1382240    0.7879870   -2.2514560  
H    -3.1679590    0.9234700   -4.1026500  
H    -5.3913060    0.2614960   -2.1677980  
H    -0.0879120   -0.4569710    2.6174900  
C     2.2177630   -0.6280150    0.4900250  
C     1.2302520    0.2927830    0.3290540  
C     1.8636930    1.5565090   -0.0190450  
C     3.3184890    1.2848330   -0.0448600  
N     3.4821610   -0.0665210    0.2901880  
C     4.2512980    2.2055700   -0.3845730  
C     3.8059730    3.5631340   -0.7048360  
O     4.5775840    4.4500750   -1.0327880  
C     2.2697400    3.8811750   -0.6265560  
O     1.8845450    5.0145110   -0.8623810  
C     1.3553400    2.7866010   -0.2831520  
H     5.3149840    2.0013610   -0.4117240  
H     0.2908040    2.9955690   -0.2648680  
H     2.1324810   -1.6690330    0.7696880  
C     4.8247060   -3.7913860   -1.5857390  
C     4.1179220   -2.6776710   -1.2510190  
C     4.9040880   -1.9501060   -0.2814240  
C     6.1412120   -2.7385220   -0.0715520  
N     6.0204880   -3.8496550   -0.8857380  
C     7.1650570   -2.3842390    0.7470070  
C     7.0477880   -1.1400860    1.4945820  
O     7.9259450   -0.7032370    2.2202390  
C     5.7158000   -0.3114170    1.3616620  
O     5.5524800    0.6631180    2.0721680  
C     4.6957430   -0.7753480    0.3924330  
H     3.1606560   -2.3855840   -1.6555740  
H     8.0677170   -2.9747150    0.8665180  
H     4.5738480   -4.5730020   -2.2905360  
H     6.7266950   -4.5607730   -0.9944850  
C    -6.0457550    1.8245820    2.7429490  
C    -5.0613540    1.5265090    1.8372040  
C    -5.4773800    0.3443990    1.1362720  
C    -6.7409780   -0.0301560    1.6664550  
N    -7.0607310    0.8896960    2.6438810  
C    -7.4608190   -1.1409030    1.2084070  
C    -6.8910990   -1.8934840    0.1945590  
O    -7.5387120   -2.9962410   -0.2843050  
C    -5.6320220   -1.5357170   -0.3545320  
O    -5.1920230   -2.3891410   -1.3463170  
C    -4.9076420   -0.4283240    0.0905930  
H    -4.1451570    2.0786960    1.6864240  
H    -7.9038160    0.8830230    3.1958650  
H    -8.4246420   -1.4294900    1.6154470  
H    -6.9588950   -3.3975960   -0.9547750  
H    -4.2726370   -2.1594080   -1.5661850  
H    -6.1126030    2.6316660    3.4588310  
