60


C     5.4667510   -0.0990230    2.3133630  
C     6.8069800    0.1445420    2.2794830  
C     7.1571050    0.4302810    0.9135070  
C     5.9722800    0.3272360    0.1447670  
N     4.9287950   -0.0004490    1.0229930  
C     5.9468060    0.5983030   -1.2272060  
C     7.1430750    0.9494790   -1.8349870  
O     7.1687630    1.2143970   -3.1733430  
C     8.3414550    1.0391730   -1.0817400  
O     9.4477020    1.3997130   -1.8258790  
C     8.3598190    0.7873230    0.2785090  
H     7.4783910    0.1073260    3.1267710  
H     5.0516700    0.5189950   -1.8304780  
H     8.0904740    1.4138200   -3.4108180  
H    10.2342990    1.3905920   -1.2608480  
H     9.2851480    0.8759470    0.8443610  
H     4.8264090   -0.3884880    3.1331000  
C     1.3304600    1.5594430    2.9468360  
C     2.6153210    1.3357500    2.5659020  
C     2.5741260    0.3840600    1.4786680  
C     1.1453660    0.0520410    1.2762670  
N     0.4475680    0.7659520    2.2250280  
C     0.6485140   -0.8121130    0.3232980  
C     1.6426090   -1.2638960   -0.6695480  
O     1.3489600   -1.7369500   -1.7539480  
C     3.1729400   -1.0977840   -0.3624710  
O     3.9649150   -1.7473980   -1.0191720  
C     3.5738380   -0.1737660    0.7197440  
H     3.5007110    1.7971470    2.9754840  
H     0.9484140    2.2346030    3.7012080  
H    -0.5311880    0.9989930    2.0393510  
C    -3.2500820    1.3010170    0.6217700  
C    -4.1281200    0.3773030    0.1239580  
C    -3.2925650   -0.8185310   -0.1070070  
C    -1.9094210   -0.3896900    0.2743500  
N    -1.9270540    0.8429770    0.7287050  
C    -0.7466310   -1.2509200    0.1516990  
C    -1.0300440   -2.5506660   -0.2033360  
O    -0.1129260   -3.5189290   -0.2360190  
C    -2.4001210   -3.0141680   -0.5797540  
O    -2.5406750   -4.1922540   -0.9065670  
C    -3.5348010   -2.0707560   -0.5306750  
H    -0.5794560   -4.3200750   -0.5643450  
H    -4.5127510   -2.4550930   -0.7904300  
H    -3.4868260    2.3018340    0.9616340  
C    -6.5099500    3.8415120   -1.3518190  
C    -5.4594730    3.0391380   -1.0487050  
C    -6.0530200    1.7954680   -0.5700800  
C    -7.5181470    2.0391570   -0.6721620  
N    -7.7814930    3.2360430   -1.1192360  
C    -8.4859750    1.0338100   -0.3148490  
C    -8.0213220   -0.1638740    0.1060920  
O    -8.8093950   -1.1970360    0.4535370  
C    -6.5512740   -0.4482220    0.2215840  
O    -6.2312950   -1.5684620    0.6169730  
C    -5.5450700    0.6114830   -0.1151820  
H    -4.4071140    3.2526780   -1.1665680  
H    -9.5460780    1.2452180   -0.3996390  
H    -8.1998180   -1.9182550    0.7199410  
H    -6.4839570    4.8498040   -1.7474520  
