62


C     0.5360140    4.0093850   -0.2496360  
C     1.5480840    4.9144450   -0.2600970  
C     2.7848510    4.1897230   -0.0961710  
C     2.4622310    2.8162100    0.0029820  
N     1.0527480    2.7122730   -0.0926340  
C     3.4390770    1.8352800    0.1897870  
C     4.7609610    2.2560620    0.2749800  
O     5.7490070    1.3313180    0.4676650  
C     5.0994900    3.6256270    0.1698490  
O     6.4502440    3.8846600    0.2720350  
C     4.1252220    4.5944610   -0.0150820  
H     1.4367950    5.9839350   -0.3777860  
H     3.1930410    0.7859170    0.2611260  
H     6.5946610    1.8123120    0.4665020  
H     6.6118790    4.8320570    0.1505540  
H     4.3970110    5.6453770   -0.0880380  
H    -0.5270890    4.1505700   -0.3633700  
C     0.2650960    1.5940410   -0.0159760  
C    -1.1138830    1.5332550    0.0594270  
C    -1.4237360    0.1489930    0.1152660  
C    -0.0817890   -0.5375930    0.0579390  
N     0.8950980    0.3244000   -0.0172210  
C     0.0600990   -1.9774560    0.0766680  
C    -1.1081110   -2.6600830    0.2458930  
O    -1.1694000   -3.9823930    0.3708570  
C    -2.4659430   -1.9862490    0.3791400  
O    -3.4004550   -2.7755810    0.6219820  
C    -2.6114690   -0.5495040    0.2260630  
H    -1.8210040    2.3454460    0.0973130  
H    -2.1269260   -4.1862230    0.4921000  
C    -4.4309340    2.4102440   -2.6207710  
C    -3.5969000    1.5136810   -2.0043820  
C    -4.2698960    1.0423140   -0.8247130  
C    -5.5331660    1.6938010   -0.7915650  
N    -5.5942710    2.5335820   -1.8853950  
C    -6.4971500    1.4463900    0.1897320  
C    -6.1844060    0.4934740    1.1469750  
O    -7.0809300    0.1830060    2.1225230  
C    -4.9350990   -0.1805380    1.1393230  
O    -4.7833180   -1.0774990    2.1778320  
C    -3.9441070    0.0946620    0.1913520  
H    -2.6178600    1.2226720   -2.3542320  
H    -6.3976530    3.0812090   -2.1502550  
H    -7.4631720    1.9406000    0.2096380  
H    -6.6567010   -0.5237500    2.6467250  
H    -4.4247600   -1.9048720    1.7881530  
H    -4.2925080    2.9776860   -3.5303220  
C     4.0636360   -1.7618750    2.0542300  
C     2.7541990   -1.6005490    1.7334590  
C     2.4809590   -2.4409760    0.5873970  
C     3.7582930   -3.1322730    0.2763040  
N     4.6712530   -2.6851980    1.2099400  
C     3.9364780   -4.0308470   -0.7260600  
C     2.7956240   -4.3496980   -1.5685860  
O     2.8370650   -5.1660800   -2.4768890  
C     1.4398940   -3.5991640   -1.2980670  
O     0.5133740   -3.7918380   -2.0652040  
C     1.3477720   -2.6606920   -0.1486330  
H     2.0512800   -0.9470060    2.2247040  
H     4.8797970   -4.5323290   -0.9191680  
H     4.6414330   -1.2876400    2.8360090  
H     5.6549210   -2.9034150    1.1989380  
