60


C    -3.2765960    0.2433450   -1.7202500  
C    -4.6238870    0.2035010   -1.8921280  
C    -5.1568060   -0.7311750   -0.9343320  
C    -4.0662340   -1.2619880   -0.2057600  
N    -2.8942480   -0.6555580   -0.7080940  
C    -4.2513440   -2.1420010    0.8642770  
C    -5.5502720   -2.5244610    1.1697360  
O    -5.7694110   -3.3920950    2.1982720  
C    -6.6484700   -2.0244370    0.4273160  
O    -7.8733780   -2.4972320    0.8467830  
C    -6.4643230   -1.1313110   -0.6145520  
H    -5.1823190    0.7617340   -2.6312470  
H    -3.4362600   -2.5569960    1.4408230  
H    -6.7281890   -3.5471890    2.2498800  
H    -8.5738850   -2.1354520    0.2839210  
H    -7.3175810   -0.7355620   -1.1613060  
H    -2.5153120    0.7876230   -2.2573030  
C     0.3859900    2.2231040    0.0443000  
C    -0.8527820    1.7028180   -0.2485900  
C    -0.7142060    0.2699810   -0.1601070  
C     0.7054830    0.0639360    0.1864190  
N     1.3426400    1.1899250    0.3084360  
C     1.2798050   -1.2636230    0.3828460  
C     0.4155130   -2.3174330    0.3213710  
O     0.7726700   -3.5938880    0.5606160  
C    -1.0167600   -2.1532460   -0.0499590  
O    -1.6828110   -3.1826870   -0.1632880  
C    -1.5798050   -0.7852530   -0.2761990  
H    -1.7418780    2.2646690   -0.4807160  
H    -0.0354700   -4.1240590    0.3780960  
C    -1.7318600    5.8471300   -1.2335830  
C    -0.8431490    6.8203070   -0.9369110  
C     0.2975900    6.1256040   -0.3537900  
C    -0.0913910    4.6763070   -0.3807900  
N    -1.2759440    4.5309850   -0.8977520  
C     0.7914940    3.6143400    0.1138470  
C     1.9929770    4.0470420    0.6325460  
O     2.9263860    3.2615040    1.1788660  
C     2.3899790    5.4987150    0.6643070  
O     3.4881200    5.7720120    1.1507700  
C     1.4826580    6.5284440    0.1370310  
H    -0.9363160    7.8864430   -1.0890920  
H     3.6476010    3.8808680    1.4424860  
H     1.8178960    7.5601900    0.1796050  
H    -2.7131930    5.9489730   -1.6808880  
C     3.3900860   -0.5473130    1.4843370  
C     4.6911190   -0.9179200    1.5425070  
C     4.8683420   -2.0511880    0.6656780  
C     3.5354790   -2.3292880    0.0759470  
N     2.6527330   -1.3955850    0.6369990  
C     3.3148330   -3.2735520   -0.8706090  
C     4.4392100   -4.1077730   -1.3005290  
O     4.3221180   -4.9804910   -2.1467050  
C     5.8452250   -3.8627370   -0.6476720  
O     6.7868880   -4.5640230   -0.9848620  
C     5.9639870   -2.7821940    0.3305740  
H     5.4616670   -0.4407000    2.1307470  
H     2.3496240   -3.4625780   -1.3199170  
H     6.9463790   -2.5847400    0.7488020  
H     2.8849890    0.2775100    1.9616930  
