60


C    -5.4125180   -3.2751420    1.2924820  
C    -6.6935270   -3.2138360    0.8098190  
C    -6.8370720   -1.9384660    0.1710990  
C    -5.5960840   -1.2679130    0.2824010  
N    -4.7470010   -2.1084660    0.9635560  
C    -5.3731140    0.0595650   -0.1872270  
C    -6.4953570    0.6906420   -0.7857570  
O    -6.3919880    1.9196450   -1.3231950  
C    -7.7356180    0.0103800   -0.9088470  
O    -8.7060090    0.7621070   -1.5389390  
C    -7.9163770   -1.2792010   -0.4506450  
H    -7.4486710   -3.9816420    0.9037190  
H    -3.8366330   -1.8368660    1.3038230  
H    -7.2641710    2.1470780   -1.6960300  
H    -9.5222250    0.2481140   -1.6262510  
H    -8.8796960   -1.7724180   -0.5631840  
H    -4.9063190   -4.0581030    1.8386030  
C    -4.0913100    0.7005500   -0.0661410  
C    -2.8385500    0.0820720   -0.0164940  
C    -1.8857830    1.1200930    0.1258250  
C    -2.7287150    2.3689620    0.1771980  
N    -4.0012070    2.1148750    0.0596400  
C    -2.1547140    3.6718110    0.3317960  
C    -0.8047230    3.7529350    0.3645480  
O    -0.1297060    4.9004630    0.4700700  
C     0.0847200    2.5307970    0.2725910  
O     1.3004140    2.7739710    0.2759890  
C    -0.4974080    1.1815610    0.2000360  
H    -2.6399170   -0.9549100   -0.2354980  
H    -2.7913080    4.5473130    0.3867940  
H     0.8221520    4.6496210    0.4483790  
C     0.3726840    0.0215480    0.2217320  
C     0.0650500   -1.3178680    0.3624140  
C     1.2850510   -2.0671590    0.3323350  
C     2.3740450   -1.0745000    0.1684680  
N     1.7642860    0.1505360    0.1058030  
C     3.7034140   -1.3920900    0.0668680  
C     4.0638720   -2.8191970    0.1907900  
O     5.2214260   -3.2005640    0.2354120  
C     2.9171150   -3.8811460    0.3268070  
O     3.2157380   -5.0659600    0.3653130  
C     1.5416840   -3.4055410    0.4093730  
H    -0.9146690   -1.7405430    0.5053070  
H     0.7555530   -4.1472230    0.5141590  
H     2.2177730    1.0546340    0.0655770  
C     5.0967760    2.3403790    2.1495620  
C     4.3762280    1.2325560    1.8463140  
C     5.0022480    0.6889510    0.6453740  
C     6.1279550    1.6331100    0.3714980  
N     6.1761070    2.5948970    1.2516440  
C     7.0362650    1.4361380   -0.7281410  
C     6.8361720    0.3603310   -1.5226600  
O     7.5963250    0.0566120   -2.5868590  
C     5.6836570   -0.5860100   -1.3073740  
O     5.5017930   -1.4463120   -2.1611010  
C     4.7748950   -0.4062000   -0.1274210  
H     3.5342180    0.8188680    2.3824260  
H     7.8474800    2.1360950   -0.8946100  
H     7.1825330   -0.7412980   -2.9838140  
H     4.9488750    3.0200220    2.9808270  
