60


C     2.8582120   -4.0144410    0.9295760  
C     4.0726550   -4.5332750    0.5712180  
C     4.8892610   -3.4316930    0.1486920  
C     4.1003490   -2.2567700    0.2605650  
N     2.8653510   -2.6450350    0.7309620  
C     4.5913930   -0.9619950   -0.0537130  
C     5.9393200   -0.9052530   -0.4447310  
O     6.5217800    0.2961780   -0.7481320  
C     6.7298850   -2.0720850   -0.5641510  
O     8.0229800   -1.8167350   -0.9779560  
C     6.2237210   -3.3266700   -0.2846660  
H     4.3575890   -5.5755300    0.6044050  
H     2.1389880   -2.0117580    1.0297890  
H     7.4346270    0.1100570   -1.0338790  
H     8.4893920   -2.6501700   -1.1386600  
H     6.8512460   -4.2097410   -0.3831760  
H     1.9710670   -4.5056600    1.3031450  
C     3.7442790    0.2194110    0.0206220  
C     2.3684760    0.3081220   -0.0277830  
C     2.0003050    1.6885740    0.0963270  
C     3.2726220    2.4395740    0.2046910  
N     4.2788080    1.4981420    0.1868270  
C     3.3675510    3.7918060    0.2846710  
C     2.1368290    4.5714340    0.2710440  
O     2.1187310    5.7923890    0.3098200  
C     0.7686180    3.8000640    0.2268840  
O    -0.2625380    4.4362090    0.3639910  
C     0.7824670    2.3251400    0.0942000  
H     1.6836790   -0.4984190   -0.2352330  
H     4.3135470    4.3212720    0.3413390  
H     5.2637380    1.6905290    0.0735740  
C    -1.1207200   -0.8870650    2.5245340  
C    -0.2749710    0.0551970    2.0311910  
C    -0.9075340    0.6360720    0.8608370  
C    -2.2100480   -0.0483590    0.7196650  
N    -2.2701500   -0.9696960    1.7493040  
C    -3.1454480    0.2012580   -0.2473530  
C    -2.8232520    1.2734890   -1.2059550  
O    -3.6195760    1.6819840   -2.0326540  
C    -1.4099620    1.9504100   -1.1339380  
O    -1.0776600    2.6864940   -2.0431880  
C    -0.5030620    1.6219260   -0.0015030  
H     0.6784130    0.3436530    2.4467430  
H    -1.0108900   -1.5234520    3.3929460  
H    -3.0642830   -1.5628550    1.9320870  
C    -6.6174770   -0.3074720    2.5097210  
C    -5.4267350    0.0425560    1.9565140  
C    -5.3734610   -0.5503630    0.6334680  
C    -6.6527360   -1.2796070    0.4611710  
N    -7.3472760   -1.1160920    1.6466060  
C    -7.0307630   -1.9372750   -0.6653410  
C    -6.1131580   -1.9445750   -1.7958440  
O    -6.3689380   -2.4778330   -2.8644420  
C    -4.7149860   -1.2497730   -1.6174990  
O    -3.8780340   -1.3950890   -2.4886530  
C    -4.4309980   -0.5034530   -0.3600030  
H    -4.6769070    0.6775980    2.4038930  
H    -7.9874640   -2.4391190   -0.7725590  
H    -7.0284430   -0.0431080    3.4752030  
H    -8.2991720   -1.4127530    1.7955330  
