62


C     2.9647320   -1.1899160    1.2638450  
C     1.6571850   -0.9512710    0.9423210  
C     1.6383190    0.1296970   -0.0012070  
C     2.9899610    0.5008710   -0.2231050  
N     3.7926730   -0.3108040    0.5694930  
C     3.3746400    1.4870900   -1.1361070  
C     2.3657200    2.1024550   -1.8575240  
O     2.6658160    3.0660230   -2.7736900  
C     1.0047900    1.7470550   -1.6721460  
O     0.1254410    2.4771110   -2.4483600  
C     0.6070310    0.7858760   -0.7324880  
H     0.8039020   -1.4635870    1.3596410  
H     4.4094300    1.7670560   -1.2925470  
H     1.8088250    3.3332330   -3.1568530  
H    -0.4822900    1.8458310   -2.8886730  
H     3.3982410   -1.8891380    1.9651050  
C    -1.8282830    0.5563980    2.9405730  
C    -3.0506230    0.2300940    2.4612880  
C    -2.8846840    0.1586490    1.0126950  
C    -1.4340040    0.4532570    0.7968560  
N    -0.8329900    0.6932380    1.9250090  
C    -0.8219630    0.4702340   -0.5350520  
C    -1.6947330    0.2393820   -1.5567190  
O    -1.3247060    0.2610660   -2.8703650  
C    -3.1441280   -0.0316570   -1.3840900  
O    -3.8265350   -0.1482670   -2.4029370  
C    -3.7319370   -0.1049440   -0.0117680  
H    -3.9643750    0.0625700    3.0128780  
H    -2.1569910    0.0732370   -3.3642900  
H    -1.5325020    0.7110210    3.9712990  
C    -7.2070650    2.0428740    1.7825630  
C    -5.9626880    1.6853630    1.3683840  
C    -6.0762830    0.3936610    0.7274960  
C    -7.5140010    0.0268980    0.7974600  
N    -8.1391210    1.0645720    1.4623800  
C    -8.0559110   -1.1032180    0.2770740  
C    -7.1721080   -2.0402170   -0.4050710  
O    -7.5650270   -3.0691160   -0.9311560  
C    -5.6385510   -1.7091200   -0.4526170  
O    -4.8739580   -2.5415700   -0.9064480  
C    -5.1637400   -0.4198800    0.1086200  
H    -5.0573990    2.2583510    1.4976550  
H    -9.1150930   -1.3362700    0.3262520  
H    -7.5242540    2.9399460    2.2977920  
H    -9.1313730    1.1260870    1.6283560  
C     6.4270460   -3.5694940   -0.5950790  
C     7.6159160   -2.9480860   -0.3117970  
C     7.3017200   -1.6349140    0.1780040  
C     5.8880930   -1.5249560    0.1681810  
N     5.3796650   -2.7149020   -0.3030380  
C     5.2102870   -0.3620090    0.5789410  
C     5.9865560    0.7133410    1.0063490  
O     5.3887820    1.8631150    1.4250190  
C     7.4036020    0.6171900    1.0039520  
O     8.0294150    1.7683260    1.4475300  
C     8.0644000   -0.5298080    0.6068620  
H     8.6015150   -3.3746540   -0.4380110  
H     4.3985450   -2.9051830   -0.4396080  
H     6.0996150    2.4818930    1.6672730  
H     8.9886620    1.6357720    1.4430000  
H     9.1517180   -0.5703000    0.6196730  
H     6.2326120   -4.5594930   -0.9827510  
