60


C    -5.7327280   -3.5604480   -0.2794450  
C    -4.9428690   -2.4728030   -0.0070070  
C    -5.7269400   -1.2960270   -0.2650050  
C    -7.0068970   -1.7486620   -0.6850530  
N    -6.9743230   -3.1284900   -0.7000920  
C    -8.0657000   -0.8846820   -0.9777850  
C    -7.8322920    0.4717710   -0.8128460  
O    -8.8219890    1.3700970   -1.0603240  
C    -6.5698080    0.9603270   -0.3823230  
O    -6.5130150    2.3322090   -0.2967180  
C    -5.4863960    0.1071510   -0.1385810  
H    -3.9219990   -2.5130260    0.3428330  
H    -7.7575260   -3.7239900   -0.9184950  
H    -9.0439210   -1.2325840   -1.2937180  
H    -8.4432160    2.2429490   -0.8385520  
H    -6.0493190    2.5462930    0.5449720  
H    -5.5117500   -4.6161120   -0.2088580  
C    -1.4657150   -0.7629290   -1.7727160  
C    -2.7996740   -0.6580170   -1.5585590  
C    -2.9938980    0.1728260   -0.3921690  
C    -1.6382880    0.5630340    0.0581410  
N    -0.7333580   -0.0660700   -0.7992500  
C    -1.3756280    1.3961200    1.0977040  
C    -2.5104180    1.9382150    1.8251170  
O    -2.4037260    2.6628490    2.8014960  
C    -3.9560130    1.6050430    1.3030130  
O    -4.8778760    2.2393930    1.8104580  
C    -4.1438020    0.6052160    0.2333760  
H    -3.5795020   -1.1168240   -2.1454110  
H    -0.3774290    1.6720050    1.4163440  
H    -0.9262010   -1.2978590   -2.5424470  
C     1.4725320    0.3573300   -1.8471370  
C     0.6615450    0.0645450   -0.7969980  
C     1.5719210   -0.2593150    0.3179090  
C     2.9272600   -0.0642260   -0.2752510  
N     2.8542090    0.2847470   -1.5295270  
C     4.1378020   -0.2737890    0.4976930  
C     3.9708920   -0.7014700    1.7827510  
O     4.9863520   -0.9103160    2.6283280  
C     2.6174400   -0.9510360    2.3833470  
O     2.5703920   -1.3412150    3.5470680  
C     1.4044780   -0.7062930    1.5747710  
H     4.5782140   -1.2231050    3.4660000  
H     0.4442420   -0.8809840    2.0492970  
H     1.1775860    0.6210240   -2.8556290  
C     6.3622170    3.1118490   -1.4303490  
C     5.3764230    2.3969580   -0.8413330  
C     5.9313240    1.0599420   -0.6596770  
C     7.3177360    1.1669050   -1.2208300  
N     7.5635970    2.3648070   -1.6648110  
C     8.2259480    0.0499040   -1.2205100  
C     7.7867250   -1.1152180   -0.6935600  
O     8.5176760   -2.2404210   -0.6364890  
C     6.3977790   -1.2629610   -0.1304100  
O     6.0698880   -2.3768710    0.2677000  
C     5.4754690   -0.0876840   -0.1007050  
H     4.3831800    2.7234200   -0.5722260  
H     9.2218380    0.1592150   -1.6350440  
H     7.9304330   -2.9130830   -0.2272700  
H     6.3403230    4.1524380   -1.7316030  
