60


C     4.0762200   -1.2992080   -1.3581380  
C     4.5793510   -0.2390260   -0.6123910  
C     5.8592100   -0.6921220   -0.0887820  
C     6.0442810   -2.0202100   -0.5438650  
N     4.9439980   -2.3521990   -1.3202580  
C     7.1533440   -2.8038650   -0.2088970  
C     8.1082720   -2.2323370    0.6168000  
O     9.2134260   -2.9419520    0.9735430  
C     7.9398270   -0.9056250    1.0952440  
O     8.9697220   -0.4756260    1.9059350  
C     6.8397110   -0.1400840    0.7592030  
H     4.8395520   -3.2112550   -1.8385240  
H     7.2855410   -3.8208160   -0.5634150  
H     9.7555970   -2.3674770    1.5420370  
H     8.8234540    0.4489500    2.1559790  
H     6.7532180    0.8789990    1.1195760  
H     3.1802290   -1.3361800   -1.9598650  
C     0.2678190    0.9122260   -0.0895820  
C     1.4237500    0.1686420   -0.2164210  
C     2.4991120    1.1260510   -0.3473880  
C     1.8103580    2.4370210   -0.3050880  
N     0.5194590    2.3165710   -0.1593860  
C     2.5275150    3.6844410   -0.3998390  
C     3.8746360    3.6222430   -0.4695850  
O     4.6778790    4.6992460   -0.5274760  
C     4.6149940    2.3115930   -0.4752040  
O     5.8434670    2.3792900   -0.5289040  
C     3.8657580    1.0176220   -0.4498520  
H     1.5361330   -0.8973630   -0.0724040  
H     1.9880380    4.6246390   -0.3820360  
H     5.5900780    4.3386380   -0.5762640  
C    -1.7449950   -2.5545070   -1.8090400  
C    -2.9845170   -2.4039430   -1.2673970  
C    -2.9404640   -1.2320470   -0.4232630  
C    -1.5658310   -0.7142470   -0.5027230  
N    -0.8803270   -1.5829790   -1.3303830  
C    -1.0936220    0.4405000    0.0780360  
C    -2.0646840    1.1754320    0.9236660  
O    -1.7820390    2.1526290    1.5860430  
C    -3.5412780    0.6316880    1.0477710  
O    -4.3196460    1.2318510    1.7669090  
C    -3.9057760   -0.5986080    0.3223250  
H    -3.8447770   -3.0278720   -1.4572610  
H    -1.3902530   -3.2960050   -2.5124220  
H     0.0301030   -1.3601950   -1.7076900  
C    -5.4391900   -2.4658860    0.8947920  
C    -6.7655520   -2.7330260    0.9565130  
C    -7.4682440   -1.5328580    0.5575120  
C    -6.4252660   -0.5211560    0.2590570  
N    -5.1910300   -1.1466250    0.4878000  
C    -6.6908930    0.7249190   -0.1997010  
C    -8.0899100    1.1144910   -0.3877360  
O    -8.4171410    2.2121760   -0.8098360  
C    -9.2094150    0.0686880   -0.0417900  
O   -10.3809160    0.3825270   -0.1834290  
C    -8.7913970   -1.2550320    0.4236490  
H    -7.2168320   -3.6651620    1.2649080  
H    -5.9274690    1.4618020   -0.4171160  
H    -9.5668690   -1.9848900    0.6356450  
H    -4.5971980   -3.1009190    1.1348460  
