60


C    -4.2857780   -0.3982220   -0.1018800  
C    -4.5889460   -1.6328800   -0.6381430  
C    -6.0121450   -1.7770990   -0.6228360  
C    -6.5432220   -0.5855590   -0.0619130  
N    -5.4785700    0.2511750    0.2159420  
C    -7.9156330   -0.3823290    0.1223600  
C    -8.7702200   -1.3993570   -0.2741530  
O   -10.1165050   -1.2563990   -0.1144630  
C    -8.2581360   -2.5941120   -0.8513680  
O    -9.2369360   -3.5044570   -1.2000210  
C    -6.9029110   -2.7914090   -1.0316900  
H    -3.8696150   -2.3336630   -1.0401380  
H    -5.5337170    1.0585880    0.8186250  
H    -8.3258530    0.5247090    0.5542230  
H   -10.5350210   -2.0688350   -0.4479620  
H    -8.8239500   -4.3026630   -1.5611700  
H    -6.5341790   -3.7150510   -1.4732650  
C    -1.8397310   -0.4193870    0.4629490  
C    -2.9945860    0.2234920    0.1312780  
C    -2.6621620    1.6418270    0.0228760  
C    -1.2169360    1.7596850    0.3390300  
N    -0.7511060    0.4673070    0.5536380  
C    -0.5498120    2.9441190    0.4136820  
C    -1.2726150    4.1781590    0.1140730  
O    -0.7488460    5.2806820    0.1625760  
C    -2.7806460    4.0651280   -0.3007050  
O    -3.3923290    5.0760400   -0.6041190  
C    -3.4009770    2.7348520   -0.2976250  
H     0.4849850    3.0290240    0.7251610  
H    -4.4507030    2.6743620   -0.5656240  
H    -1.6826050   -1.4673410    0.6648940  
C     3.0846830    1.5144840   -1.2590810  
C     3.9172040    0.8351860   -0.4203440  
C     3.0594830    0.1505180    0.5465880  
C     1.6687650    0.5067620    0.1884670  
N     1.7489750    1.3143440   -0.9229520  
C     0.5648330    0.0808470    0.8798940  
C     0.7778590   -0.8307730    2.0165790  
O    -0.1416670   -1.3080080    2.6607520  
C     2.2557910   -1.2065700    2.4028580  
O     2.4285410   -1.9482770    3.3549600  
C     3.3474530   -0.6606390    1.5991230  
H     4.3619690   -0.9266740    1.8752710  
H     3.3376160    2.1265980   -2.1144540  
H     0.9705820    1.8209250   -1.3185700  
C     6.1948310    1.9201010   -0.4567460  
C     5.3801310    0.8248600   -0.4637960  
C     6.2575920   -0.3399560   -0.5659460  
C     7.6443440    0.1854920   -0.6128090  
N     7.5305770    1.5629210   -0.5573660  
C     8.7570390   -0.5852470   -0.7003400  
C     8.5927760   -2.0356860   -0.7702930  
O     9.5338250   -2.8092140   -0.8489430  
C     7.1308800   -2.6142900   -0.7528030  
O     6.9694410   -3.8207210   -0.8339880  
C     6.0093630   -1.6730810   -0.6420360  
H     9.7640310   -0.1805230   -0.7298240  
H     5.0063980   -2.0872790   -0.6268640  
H     5.9176060    2.9633700   -0.3779550  
H     8.3077150    2.2035520   -0.5127190  
