64


C    -4.9008160   -0.0144890   -0.1070020  
C    -5.7462650    0.9894360   -0.5673800  
C    -7.0875240    0.5106570   -0.4640070  
C    -7.0143430   -0.8061990    0.0690890  
N    -5.6854970   -1.0968430    0.2650080  
C    -8.1525470   -1.5849710    0.3141570  
C    -9.3861970   -1.0269090    0.0185090  
O   -10.5289060   -1.7420690    0.2387780  
C    -9.4786900    0.2877630   -0.5144190  
O   -10.7773420    0.7005320   -0.7571040  
C    -8.3557390    1.0548810   -0.7573120  
H    -5.4480820    1.9882930   -0.8535900  
H    -5.3032160   -1.9062060    0.7328780  
H    -8.1011490   -2.5895760    0.7210400  
H   -11.2751040   -1.1772600   -0.0259810  
H   -10.7669130    1.6069640   -1.0977330  
H    -8.4537000    2.0591720   -1.1658220  
C    -1.8282540    2.2095890   -2.3320820  
C    -0.7299100    1.7468150   -1.6570100  
C    -1.1990600    0.8402480   -0.6436780  
C    -2.6113880    0.8011900   -0.7599040  
N    -2.9690960    1.6674490   -1.7738460  
C    -3.4481830   -0.0425440    0.0081050  
C    -2.7565770   -0.9211700    0.8525830  
O    -3.4380370   -1.8405650    1.6060530  
C    -1.3485010   -0.9026820    0.9931040  
O    -0.8855960   -1.8093530    1.9201260  
C    -0.5343940    0.0010800    0.3012990  
H     0.2956890    2.0155480   -1.8614200  
H    -3.8865300    1.6749800   -2.1937990  
H    -2.7421640   -2.3381990    2.0825880  
H    -0.0766990   -2.2222140    1.5302130  
H    -1.8972420    2.8947510   -3.1653110  
C     2.1836140    3.4500730    0.9745160  
C     1.1063210    2.6336510    0.8108310  
C     1.5974250    1.2835560    0.6793930  
C     3.0656610    1.3751880    0.7971920  
N     3.3567920    2.7142960    1.0041250  
C     3.9622770    0.3409980    0.6917140  
C     3.3439640   -0.9720590    0.4609400  
O     3.9749440   -1.9960650    0.2540840  
C     1.7721290   -1.1077950    0.5188070  
O     1.3456330   -2.2640560    0.5709120  
C     0.9274970    0.0830710    0.5029330  
H     0.0713950    2.9355440    0.7906070  
H     2.2161800    4.5243100    1.1009760  
H     4.2918750    3.0852940    0.9160060  
C     6.0240140    1.3545240    1.7346340  
C     5.4112770    0.5125970    0.8177600  
C     6.4853510   -0.0942120    0.0526550  
C     7.7026510    0.4327030    0.5515640  
N     7.3883190    1.3083940    1.5742410  
C     8.9570880    0.0891830    0.0316760  
C     8.9838500   -0.8127840   -1.0189930  
O    10.1742110   -1.1957640   -1.5612360  
C     7.7744910   -1.3500780   -1.5367720  
O     7.9624360   -2.2365840   -2.5800290  
C     6.5409510   -1.0027330   -1.0235480  
H     8.0580510    1.7762490    2.1649600  
H     9.8864970    0.4923850    0.4205670  
H     9.9747220   -1.8506040   -2.2530270  
H     7.1232940   -2.6769660   -2.7820530  
H     5.6355270   -1.4527650   -1.4159290  
H     5.5841640    1.9271760    2.5393380  
