60


C    -3.9429890   -2.7053940    2.9567640  
C    -4.9163760   -3.4606980    2.3600300  
C    -5.2148300   -2.8370340    1.1008240  
C    -4.3925990   -1.6837520    1.0047610  
N    -3.6508600   -1.6063870    2.1670510  
C    -4.4277930   -0.7978270   -0.0987760  
C    -5.2608450   -1.1847950   -1.1586550  
O    -5.2828060   -0.4626340   -2.3142200  
C    -6.0806510   -2.3383940   -1.0728070  
O    -6.8555490   -2.5519080   -2.2016140  
C    -6.0880340   -3.1506260    0.0427860  
H    -5.3739820   -4.3531000    2.7651440  
H    -2.7581780   -1.1259150    2.1695510  
H    -5.9489170   -0.8743160   -2.8917910  
H    -7.3781920   -3.3582050   -2.0826530  
H    -6.7368410   -4.0234360    0.0882230  
H    -3.4306360   -2.8491270    3.8980640  
C    -0.2123300    0.2012360    0.7163430  
C    -0.1232140    1.5270890    0.3804930  
C    -1.5046830    1.8841780   -0.0171780  
C    -2.2812010    0.6121080    0.1491700  
N    -1.5098600   -0.3407230    0.6077250  
C    -3.6961880    0.4893930   -0.1596430  
C    -4.3127780    1.6577600   -0.5238110  
O    -5.6256350    1.7747220   -0.7522730  
C    -3.5642540    2.9400340   -0.7168030  
O    -4.2066560    3.9286920   -1.0743850  
C    -2.1136540    2.9985680   -0.4605290  
H    -5.7564570    2.7143070   -1.0126660  
H    -1.6253520    3.9545130   -0.5906560  
H     0.5970950   -0.4420450    1.0277380  
C     4.0502890    0.2383240    0.0086660  
C     4.7113610    1.4368950    0.0523720  
C     3.6902630    2.4436260    0.2182910  
C     2.4035530    1.6788700    0.2441190  
N     2.6192110    0.4088670    0.1184210  
C     1.0930500    2.3324790    0.3829920  
C     1.1550150    3.6927330    0.5395130  
O     0.0804690    4.4802810    0.7478270  
C     2.4308200    4.4757990    0.5225900  
O     2.3423710    5.6986340    0.6774580  
C     3.7121100    3.7876730    0.3425340  
H     5.7750680    1.5919960   -0.0258010  
H     0.4564410    5.3889080    0.8278700  
H     4.6124610    4.3938610    0.3287240  
C     8.1648180   -1.0547720   -0.7991230  
C     8.0407900   -2.3991540   -0.8490850  
C     6.6301090   -2.6579990   -0.5950730  
C     6.0248980   -1.2958380   -0.4095570  
N     6.9333710   -0.3735470   -0.5313960  
C     4.5973950   -1.0972680   -0.1365130  
C     3.8557450   -2.2561620   -0.0335520  
O     2.5555460   -2.3224560    0.2468880  
C     4.4597530   -3.6300330   -0.2187230  
O     3.7015730   -4.5926680   -0.1088590  
C     5.8906890   -3.7781510   -0.5107760  
H     8.8062340   -3.1396360   -1.0339850  
H     2.3404910   -3.2857170    0.2352150  
H     6.2748630   -4.7856390   -0.6371900  
H     9.0589450   -0.4584500   -0.9348210  
