60


C    -4.0768530    1.0890020   -1.4986370  
C    -4.2181550   -0.0894080   -0.7812410  
C    -5.5707270   -0.0748570   -0.2532750  
C    -6.1726950    1.1351250   -0.6794130  
N    -5.2390880    1.8185630   -1.4370290  
C    -7.4791780    1.5048890   -0.3363670  
C    -8.1996600    0.6279430    0.4577900  
O    -9.4808920    0.9252930    0.8175310  
C    -7.6140650   -0.5886610    0.8989790  
O    -8.4547620   -1.3597160    1.6798990  
C    -6.3234460   -0.9443290    0.5613170  
H    -5.4076430    2.6842170   -1.9253040  
H    -7.9362420    2.4309960   -0.6697470  
H    -9.8118560    0.1719180    1.3372070  
H    -8.0569440   -2.2334300    1.8114640  
H    -5.9130600   -1.8946380    0.8848220  
H    -3.2448200    1.4315120   -2.0977120  
C     0.0943280    0.4070340   -0.1078160  
C     0.4664550   -0.9214400   -0.1165810  
C    -0.7170510   -1.7075090   -0.3133310  
C    -1.8389280   -0.7552300   -0.4362670  
N    -1.2819540    0.5026960   -0.3313830  
C    -3.1598070   -1.0876820   -0.6089660  
C    -3.4457420   -2.5381990   -0.6548760  
O    -4.5703870   -2.9939740   -0.7903360  
C    -2.2580420   -3.5703590   -0.5326070  
O    -2.5279140   -4.7630600   -0.5623990  
C    -0.9064670   -3.0598130   -0.3747130  
H     1.4724810   -1.2847360    0.0188490  
H    -0.0920340   -3.7721400   -0.2897680  
H    -1.8145940    1.3531580   -0.2156170  
C     4.4638740    0.8181030    0.2997010  
C     4.5768860    2.1644610    0.5167250  
C     3.2303220    2.6848660    0.4797440  
C     2.3755690    1.4847460    0.2205270  
N     3.0950810    0.4115180    0.1145100  
C     0.9165410    1.5852620    0.1001010  
C     0.4106980    2.8554400    0.2187600  
O    -0.8998680    3.1572140    0.1334930  
C     1.2519730    4.0657010    0.4787210  
O     0.6607020    5.1467550    0.5723330  
C     2.7020900    3.9231470    0.6069310  
H     5.4750620    2.7273850    0.7256030  
H    -0.9394470    4.1339840    0.2771570  
H     3.2822030    4.8229280    0.7865040  
C     8.6672720    0.8386630   -1.1933070  
C     7.4041210    1.2398650   -0.8908920  
C     6.7744260    0.0844350   -0.2791190  
C     7.8472400   -0.9653000   -0.3121990  
N     8.9497010   -0.5119630   -0.8408570  
C     7.6224460   -2.2947980    0.1791600  
C     6.3944870   -2.5833050    0.6704580  
O     6.0489010   -3.7805060    1.1614830  
C     5.2904350   -1.5549700    0.7410370  
O     4.2445430   -1.9125820    1.2710180  
C     5.5282540   -0.1694600    0.2226480  
H     6.9511000    2.1997250   -1.0881150  
H     8.4190830   -3.0295800    0.1463960  
H     5.1196500   -3.6834500    1.4673830  
H     9.4486810    1.4208720   -1.6679480  
