62


C     3.5842940   -1.5738810   -1.9385480  
C     3.4063880   -0.7070120   -0.8796730  
C     4.6092180   -0.8064220   -0.0735790  
C     5.4646790   -1.7434460   -0.7082860  
N     4.8107990   -2.1928480   -1.8383550  
C     6.7149730   -2.1022770   -0.1898780  
C     7.1101390   -1.5066580    0.9974380  
O     8.3192370   -1.8173590    1.5441050  
C     6.2617280   -0.5764550    1.6572660  
O     6.7907570   -0.0802310    2.8315650  
C     5.0274030   -0.2248840    1.1441130  
H     5.1834500   -2.8544290   -2.5014980  
H     7.3694700   -2.8202290   -0.6734560  
H     8.4007350   -1.3130800    2.3721630  
H     6.1541960    0.5195400    3.2483020  
H     4.3919610    0.4805600    1.6735320  
H     2.9287450   -1.7729910   -2.7741120  
C    -1.0165650   -1.5691280   -0.8431040  
C     0.3579350   -1.6659840   -0.9205470  
C     0.9014230   -0.3600280   -0.7003120  
C    -0.1961390    0.5111760   -0.4792880  
N    -1.3434060   -0.2455590   -0.5678700  
C    -0.0533580    1.8968710   -0.2413390  
C     1.2617840    2.3698750   -0.1923640  
O     1.4951120    3.6793590    0.0898650  
C     2.3675680    1.5077360   -0.3885260  
O     3.5843910    2.1571800   -0.3142400  
C     2.2278450    0.1455960   -0.6484950  
H     0.9160400   -2.5813240   -1.0564480  
H    -2.2810380    0.1249470   -0.5334580  
H     2.4526400    3.8260050   -0.0093860  
H     4.2879340    1.5439220   -0.5866470  
C    -1.9866770   -3.6708240   -1.8261990  
C    -2.0389770   -2.5917340   -0.9904300  
C    -3.2966580   -2.7085220   -0.2498040  
C    -3.9564950   -3.9465510   -0.7371460  
N    -3.0997170   -4.4891250   -1.6730770  
C    -5.1599950   -4.4003190   -0.3028020  
C    -5.8599520   -3.6411710    0.7287710  
O    -6.9479500   -3.9684950    1.1772670  
C    -5.1641280   -2.3475670    1.2872610  
O    -5.7129290   -1.7111070    2.1724670  
C    -3.8682610   -1.9517110    0.7226620  
H    -5.6257350   -5.3067010   -0.6775020  
H    -3.4113290   -1.0538170    1.1255350  
H    -1.2194330   -3.9280200   -2.5439170  
H    -3.2992980   -5.3053460   -2.2296710  
C    -3.7259660    1.9723680    2.3318240  
C    -2.5211370    1.6163850    1.8184910  
C    -2.2370440    2.6083630    0.7844130  
C    -3.4136330    3.5243600    0.8390610  
N    -4.2795600    3.1474640    1.7391610  
C    -3.5174660    4.6806530   -0.0137220  
C    -2.5125750    4.9041160   -0.8897350  
O    -2.4767700    5.9358420   -1.7505840  
C    -1.3381320    3.9677240   -1.0155160  
O    -0.5517180    4.1864570   -1.9306370  
C    -1.2076630    2.7967360   -0.0850590  
H    -1.8821700    0.7985230    2.1196950  
H    -4.3800430    5.3337390    0.0585790  
H    -1.6642380    5.7964810   -2.2851390  
H    -4.2870700    1.4752330    3.1142770  
