64


C     1.3919840    0.1547910   -0.6470210  
C     2.6321880    0.3760500   -0.0907860  
C     2.5736550    1.6856100    0.5236640  
C     1.2739380    2.1997010    0.2957540  
N     0.5595570    1.2441860   -0.4215140  
C     0.8559050    3.4425280    0.7843780  
C     1.7712480    4.1835490    1.5143760  
O     1.4175860    5.4058890    2.0096030  
C     3.0757890    3.6809780    1.7625810  
O     3.8675670    4.5270270    2.5169410  
C     3.4830820    2.4499530    1.2825060  
H    -0.1381460    3.8346590    0.6059940  
H     2.1847010    5.7504730    2.4981800  
H     4.7184620    4.0997220    2.6943570  
H     4.4763930    2.0712930    1.5133750  
H     1.0448390   -0.6735690   -1.2479650  
C    -2.7122130   -1.2722640    0.8444710  
C    -3.7229330   -0.7123930    0.0739280  
C    -3.0992820    0.3670670   -0.6792110  
C    -1.7313270    0.3769950   -0.3163740  
N    -1.5280800   -0.6367680    0.5982990  
C    -0.8030350    1.3092280   -0.8102320  
C    -1.2775770    2.2780810   -1.6921140  
O    -0.4284510    3.2014280   -2.2182430  
C    -2.6520240    2.3005540   -2.0373080  
O    -2.9792420    3.3236570   -2.9070360  
C    -3.5568630    1.3742380   -1.5525160  
H    -0.6465250   -0.8358940    1.0476080  
H    -0.9573990    3.7739430   -2.8014150  
H    -3.9071430    3.2366680   -3.1709590  
H    -4.5956690    1.4139660   -1.8582330  
H    -2.7782740   -2.0747660    1.5603480  
C     3.7641990   -0.5339710   -0.1395790  
C     3.8173090   -1.9120560   -0.1194300  
C     5.1926410   -2.3003480   -0.2292250  
C     5.9547690   -1.1043790   -0.3118820  
N     5.0687700   -0.0464920   -0.2215460  
C     7.3478010   -1.1030550   -0.4415210  
C     7.9898840   -2.3322320   -0.4829260  
O     9.3500040   -2.3869940   -0.6136960  
C     7.2475150   -3.5372210   -0.3873340  
O     8.0272740   -4.6805640   -0.4345890  
C     5.8700080   -3.5356970   -0.2591530  
H     2.9661550   -2.5679350    0.0050880  
H     5.2838630    0.9053580   -0.4781020  
H     7.9328060   -0.1913590   -0.5107900  
H     9.5966240   -3.3276460   -0.6260240  
H     7.4540360   -5.4599600   -0.3936750  
H     5.3240620   -4.4749460   -0.1897070  
C    -5.9935960   -2.6346690    3.2987820  
C    -7.2148180   -2.7910000    2.7433360  
C    -7.0883480   -2.2519120    1.3928230  
C    -5.6656920   -1.7908810    1.3057720  
N    -5.0410320   -2.0171820    2.4247040  
C    -5.1104680   -1.1660420    0.0959990  
C    -5.9862170   -1.0777440   -0.9550700  
O    -5.6518340   -0.5935560   -2.1756700  
C    -7.3997950   -1.5277670   -0.8898520  
O    -8.0954880   -1.4073810   -1.9045040  
C    -7.9297540   -2.1215190    0.3535930  
H    -8.1053370   -3.2170600    3.1842290  
H    -6.4759220   -0.6858910   -2.7056990  
H    -8.9700940   -2.4327070    0.3541640  
H    -5.6690810   -2.9116140    4.2946110  
