62


C    -6.2504860    2.9697130   -1.9738200  
C    -5.2238230    2.1727380   -1.5356670  
C    -5.7557120    1.3097140   -0.5192200  
C    -7.1368850    1.6302990   -0.3983990  
N    -7.4028440    2.6539430   -1.2836790  
C    -8.0050550    0.9583960    0.4636260  
C    -7.4754640   -0.0910870    1.2017560  
O    -8.2714430   -0.7953700    2.0483270  
C    -6.1106130   -0.4575410    1.0895720  
O    -5.7520770   -1.5059260    1.9088880  
C    -5.2161340    0.2476460    0.2715720  
H    -4.2064300    2.2090230   -1.8952980  
H    -8.3095290    3.0658610   -1.4390910  
H    -9.0577220    1.2061910    0.5546590  
H    -7.7017940   -1.4921170    2.4275200  
H    -5.2170620   -2.1231120    1.3648110  
H    -6.2535610    3.7468680   -2.7248640  
C    -1.4774210    2.6822660    0.4320510  
C    -2.7720560    2.3062560    0.5326390  
C    -2.7791940    0.8650740    0.2840060  
C    -1.3475250    0.5332740    0.0675660  
N    -0.5976920    1.5953270    0.1345440  
C    -0.8863660   -0.8284100   -0.2210100  
C    -1.8836710   -1.7570330   -0.2700130  
O    -1.6459810   -3.0822850   -0.5161840  
C    -3.3041060   -1.4662770    0.0062540  
O    -4.0656630   -2.4507490    0.0478120  
C    -3.7756390   -0.0637430    0.2155630  
H    -3.6340380    2.9196640    0.7472020  
H    -2.5239860   -3.5173420   -0.4266150  
H    -1.0510600    3.6702230    0.5533840  
C     2.9277440    0.1544140    1.9872990  
C     1.6224000    0.0330970    1.6133190  
C     1.5825450   -0.6809300    0.3635980  
C     2.9197470   -0.9880360    0.0185960  
N     3.7283020   -0.4556860    1.0188530  
C     3.2893710   -1.7199160   -1.1110530  
C     2.2580350   -2.1852600   -1.9107650  
O     2.5324510   -2.9201470   -3.0197780  
C     0.8999810   -1.9181860   -1.5910550  
O     0.0087740   -2.4296440   -2.5076130  
C     0.5310760   -1.1405920   -0.4822830  
H     0.7784800    0.4318510    2.1539310  
H     4.3213150   -1.9375970   -1.3627520  
H     1.6657920   -3.1403790   -3.4118020  
H    -0.7035500   -2.8941350   -2.0177810  
H     3.3873180    0.6282790    2.8422160  
C     5.7830180   -1.6254530    1.6806010  
C     7.1199160   -1.4243650    1.6024670  
C     7.3359180   -0.1639700    0.9159600  
C     5.9936070    0.3724370    0.5881890  
N     5.0879770   -0.5674610    1.0763490  
C     5.7555230    1.5423910   -0.0501430  
C     6.9089780    2.3469330   -0.4538460  
O     6.8043330    3.4181110   -1.0295380  
C     8.3478190    1.7999160   -0.1250490  
O     9.3210090    2.4579770   -0.4565150  
C     8.4615150    0.5152290    0.5732770  
H     7.8894360   -2.0821400    1.9800390  
H     4.7582340    1.9054530   -0.2743860  
H     9.4590820    0.1492300    0.7968500  
H     5.2154010   -2.4383880    2.1127790  
