66


C    -4.0605880    1.4169040   -1.8865970  
C    -5.3915750    1.7330840   -1.8793420  
C    -6.0153610    0.9171170   -0.8765860  
C    -4.9920110    0.1216830   -0.2960660  
N    -3.7959820    0.4380400   -0.9322950  
C    -5.2403420   -0.7837760    0.7488510  
C    -6.5490060   -0.9003920    1.1982830  
O    -6.8426300   -1.7641330    2.2129540  
C    -7.5849270   -0.1232450    0.6185810  
O    -8.8313120   -0.3539950    1.1703040  
C    -7.3324390    0.7804590   -0.3981740  
H    -5.8742050    2.4599540   -2.5183300  
H    -4.4531780   -1.3466280    1.2399250  
H    -7.7959540   -1.6862660    2.3901230  
H    -9.4818980    0.2314400    0.7555420  
H    -8.1421520    1.3746380   -0.8178110  
H    -3.2530330    1.7863030   -2.5018480  
C     0.1484320    2.1165830    0.2426290  
C    -1.1828560    1.9600120   -0.0747010  
C    -1.3964320    0.5738200   -0.3680210  
C    -0.1483920   -0.0850500   -0.2278240  
N     0.7800090    0.8807420    0.1109680  
C     0.0321710   -1.4798020   -0.3824840  
C    -1.1407450   -2.1941020   -0.6721150  
O    -1.1055250   -3.5608220   -0.8107630  
C    -2.3882550   -1.5581880   -0.8637980  
O    -3.4018640   -2.4180360   -1.2336260  
C    -2.5340880   -0.1804500   -0.7229380  
H    -1.9159040    2.7522290   -0.1249430  
H     1.6643020    0.6624790    0.5475930  
H    -2.0213450   -3.8408970   -0.9944920  
H    -4.2673960   -2.0299310   -1.0154110  
C     1.3370400   -2.1182340   -0.2226880  
C     2.6169010   -1.5833740   -0.3014200  
C     3.5482970   -2.6385030   -0.0543660  
C     2.7842960   -3.8154750    0.1721750  
N     1.4577400   -3.4689290    0.0745300  
C     3.3735210   -5.0575800    0.4415990  
C     4.7575060   -5.1141310    0.4849880  
O     5.3842970   -6.3000290    0.7453070  
C     5.5376580   -3.9472260    0.2632690  
O     6.9023830   -4.1656270    0.3413250  
C     4.9554430   -2.7226410   -0.0030610  
H     2.8677000   -0.5710400   -0.5834100  
H     0.6672490   -4.0967770    0.0771950  
H     2.7936450   -5.9581170    0.6157050  
H     6.3409170   -6.1248510    0.7385420  
H     7.3690610   -3.3271060    0.2116300  
H     5.5765410   -1.8437270   -0.1673880  
C     0.4346790    4.3005550    1.4748720  
C     0.8969260    3.2928290    0.6554040  
C     2.2548440    3.6466360    0.2995900  
C     2.5483760    4.8760450    0.9418400  
N     1.4180250    5.2517050    1.6421730  
C     3.7825930    5.5241300    0.8086310  
C     4.7375210    4.9231000    0.0035010  
O     5.9573820    5.5126140   -0.1621060  
C     4.4552160    3.7010060   -0.6626180  
O     5.4999380    3.2340640   -1.4394290  
C     3.2362160    3.0628950   -0.5266020  
H     1.3376370    6.0729550    2.2208460  
H     4.0093090    6.4664460    1.2969500  
H     6.4616480    4.9580590   -0.7821730  
H     5.2002030    2.4734180   -1.9589170  
H     3.0343860    2.1408550   -1.0674690  
H    -0.5211360    4.3952430    1.9699140  
