60


C    -1.9785660   -2.1839160    0.0522290  
C    -2.9921430   -1.2206700    0.0524500  
C    -4.2299880   -1.9054390    0.0893230  
C    -3.9402820   -3.3044010    0.1127650  
N    -2.5786690   -3.4419140    0.0893440  
C    -4.9440880   -4.2794560    0.1522190  
C    -6.2581630   -3.8389720    0.1679550  
O    -7.2755580   -4.7403500    0.2061690  
C    -6.5677570   -2.4444450    0.1446020  
O    -7.9241180   -2.1849040    0.1648220  
C    -5.5814660   -1.4853030    0.1058910  
H    -2.8201220   -0.1558380    0.0256080  
H    -2.0523190   -4.3034970    0.1019210  
H    -4.7338430   -5.3435770    0.1705010  
H    -8.1087500   -4.2370570    0.2114510  
H    -8.0710500   -1.2275340    0.1476900  
H    -5.8342870   -0.4274010    0.0885170  
C     0.4614140    1.4613030   -0.0880350  
C     1.7255750    0.9235750   -0.0768930  
C     1.5511360   -0.5033700   -0.0249080  
C     0.0707320   -0.6929460   -0.0123980  
N    -0.5503510    0.4436780   -0.0572520  
C    -0.5474210   -2.0254880    0.0222170  
C     0.3464510   -3.0708620    0.0302180  
O    -0.0409890   -4.3746660    0.0838310  
C     1.8076030   -2.9172760    0.0181750  
O     2.4931820   -3.9476280    0.0941100  
C     2.4136560   -1.5572800   -0.0545260  
H     2.6682320    1.4493250   -0.0782640  
H     0.8083970   -4.8745500    0.1073380  
C     5.3112890    0.5201180    2.5469350  
C     6.4940120    0.1666870    1.9956300  
C     6.1451270   -0.6644590    0.8479760  
C     4.6446330   -0.7036430    0.8684490  
N     4.1692460   -0.0109310    1.8597070  
C     3.8822540   -1.4582330   -0.1164510  
C     4.6088260   -2.0980700   -1.0787200  
O     4.0638230   -2.7745350   -2.0926150  
C     6.1165610   -2.0626570   -1.1214010  
O     6.6671660   -2.6740800   -2.0339730  
C     6.8566180   -1.3125650   -0.0938010  
H     7.4915960    0.4283890    2.3195840  
H     4.8203960   -3.1362320   -2.6071580  
H     7.9406060   -1.3200360   -0.1540960  
H     5.1385770    1.1363550    3.4210420  
C     0.0854960    2.8474070   -0.1265850  
C     0.9137890    3.9464900   -0.1526810  
C     0.0466340    5.0919530   -0.1870960  
C    -1.3352780    4.5048130   -0.1771590  
N    -1.3112250    3.2067850   -0.1417890  
C    -2.5072390    5.3442460   -0.2046890  
C    -2.3200230    6.6838540   -0.2395970  
O    -3.3114870    7.5862960   -0.2680620  
C    -0.9395310    7.3035310   -0.2499160  
O    -0.8807670    8.5346320   -0.2823360  
C     0.2379290    6.4351830   -0.2216850  
H     1.9948390    3.9592560   -0.1463830  
H    -3.4952960    4.8978790   -0.1971480  
H    -2.8586130    8.4600140   -0.2893130  
H     1.2118730    6.9148200   -0.2298790  
