64


C    -5.4842080    2.4563870    0.5713800  
C    -6.8484050    2.3750800    0.6446590  
C    -7.2170570    1.0511880    0.2288470  
C    -6.0172320    0.3654360   -0.0904940  
N    -4.9590690    1.2438040    0.1241960  
C    -5.9992170   -0.9687640   -0.5135800  
C    -7.2175800   -1.6190390   -0.6263360  
O    -7.2595040   -2.9209310   -1.0401480  
C    -8.4301510   -0.9473860   -0.3176550  
O    -9.5606000   -1.7296400   -0.4787280  
C    -8.4434880    0.3682360    0.1056940  
H    -7.5158770    3.1732080    0.9407690  
H    -5.0835400   -1.4886960   -0.7689110  
H    -8.1967410   -3.1773680   -1.0803290  
H   -10.3489610   -1.1882170   -0.3265470  
H    -9.3845070    0.8616880    0.3421200  
H    -4.8191940    3.2891160    0.7537180  
C    -1.9158090    1.4027880    3.2071120  
C    -0.8453140    1.0349340    2.4296920  
C    -1.3429380    0.7835660    1.1002110  
C    -2.7367770    1.0382400    1.1475160  
N    -3.0593630    1.3987730    2.4374230  
C    -3.5763470    0.9526110    0.0230940  
C    -2.9668970    0.6177820   -1.1826050  
O    -3.6949990    0.5463160   -2.3231450  
C    -1.5734710    0.3367740   -1.2499920  
O    -1.1540060   -0.0032990   -2.5125220  
C    -0.7395730    0.3756820   -0.1287650  
H     0.1832050    0.9965100    2.7586580  
H    -3.9899020    1.6379710    2.7458160  
H    -3.0512100    0.3296460   -3.0267470  
H    -0.2985320    0.4661140   -2.6679800  
H    -1.9549290    1.6811140    4.2506870  
C     1.5703690   -2.2897070    2.4689370  
C     2.8096610   -2.1609360    1.9308090  
C     2.6880200   -1.2737190    0.7925200  
C     1.2640290   -0.8832500    0.7172090  
N     0.6407810   -1.5549380    1.7395680  
C     0.6896340   -0.0136060   -0.1914070  
C     1.5848830    0.4540570   -1.2326520  
O     1.2312830    1.1305500   -2.2025060  
C     3.1168470    0.0861290   -1.1850610  
O     3.8301930    0.5034850   -2.0765870  
C     3.6091080   -0.7971280   -0.1031280  
H     3.7174860   -2.6254450    2.2832330  
H     1.2484570   -2.8592950    3.3302470  
H    -0.3139670   -1.3749060    2.0171980  
C     5.3578740   -2.5455400   -0.0003870  
C     6.7191180   -2.6151340    0.0111390  
C     7.2182640   -1.2685470   -0.0678920  
C     6.0964920   -0.4072710   -0.1437160  
N     4.9477970   -1.2096420   -0.1013620  
C     6.2250140    0.9853250   -0.1763720  
C     7.5073990    1.5126560   -0.1632140  
O     7.6825920    2.8653660   -0.2032000  
C     8.6416540    0.6624100   -0.1065080  
O     9.8479580    1.3351430   -0.0990610  
C     8.5107770   -0.7135550   -0.0561960  
H     7.3056960   -3.5230600    0.0510020  
H     5.3785410    1.6571460   -0.2392400  
H     8.6406120    3.0323320   -0.2134260  
H    10.5749460    0.6956050   -0.1226270  
H     9.3911780   -1.3504260    0.0031310  
H     4.6147980   -3.3291280    0.0004690  
