60


C     4.5096960    1.0937880   -0.1532340  
C     5.6566110    1.6282260    0.4163910  
C     6.5651370    0.5598500    0.6425800  
C     5.9320450   -0.6313530    0.1862730  
N     4.6681290   -0.2919890   -0.2524490  
C     6.5577570   -1.8815060    0.2265640  
C     7.8388720   -1.9327910    0.7530620  
O     8.4935000   -3.1176480    0.8188940  
C     8.4828740   -0.7516800    1.2361050  
O     9.7446800   -0.9862020    1.7313750  
C     7.8662780    0.4791440    1.1904170  
H     5.7923990    2.6669610    0.6848850  
H     4.1259540   -0.8696480   -0.8792000  
H     6.0848060   -2.7929640   -0.1230760  
H     9.3642920   -2.9548720    1.2229650  
H    10.1348280   -0.1603300    2.0549380  
H     8.3727100    1.3680640    1.5589820  
C     3.2981100    1.7455770   -0.5437850  
C     3.0426840    3.0616990   -0.8350360  
C     1.6481210    3.1926700   -1.1370980  
C     1.0697960    1.8370370   -1.0174600  
N     2.1104390    0.9909900   -0.7159480  
C    -0.2674360    1.5281400   -1.1535770  
C    -1.1727060    2.6745630   -1.3800010  
O    -2.3937860    2.5797840   -1.3623060  
C    -0.5565140    4.0879490   -1.6635490  
O    -1.3117270    4.9854710   -2.0043820  
C     0.8752890    4.2642400   -1.4827020  
H     3.7754860    3.8546890   -0.8683710  
H     1.2825490    5.2619690   -1.6112170  
H     1.9434710    0.1277930   -0.2111250  
C    -0.7826700    0.1771250   -1.0511190  
C    -0.1430110   -1.0433120   -1.1664590  
C    -1.1256810   -2.0797870   -1.0195180  
C    -2.4119560   -1.3829450   -0.7839660  
N    -2.1404430   -0.0402300   -0.8092620  
C    -3.6011090   -2.0279290   -0.5731610  
C    -3.6111810   -3.4971110   -0.6685070  
O    -4.6339940   -4.1549510   -0.5621340  
C    -2.2497760   -4.2402490   -0.9352960  
O    -2.2683550   -5.4601100   -1.0099500  
C    -1.0448890   -3.4408130   -1.0896730  
H     0.8857860   -1.2055870   -1.4494040  
H    -0.1105860   -3.9640220   -1.2669810  
H    -2.7996440    0.7310380   -0.7989200  
C    -6.0384160   -1.6124020   -0.8945940  
C    -7.0268700   -0.8520960   -0.3667240  
C    -6.4483740   -0.0557980    0.6923250  
C    -5.0104630   -0.4218260    0.7434410  
N    -4.8032850   -1.3559120   -0.2729670  
C    -4.1338230    0.0712710    1.6559710  
C    -4.6159420    1.0491290    2.6299700  
O    -3.8943900    1.5390200    3.4856170  
C    -6.1252580    1.4791370    2.5661870  
O    -6.5393270    2.3072480    3.3623930  
C    -6.9777630    0.8508350    1.5547870  
H    -8.0620080   -0.8468600   -0.6759000  
H    -3.0957540   -0.2327590    1.7165550  
H    -8.0277830    1.1268320    1.5397260  
H    -6.0797910   -2.3438920   -1.6872230  
