62


C     3.3663160    0.7878470    0.5635760  
C     3.5547490    2.1502110    0.6027320  
C     2.3036840    2.7837830    0.3012490  
C     1.3637150    1.7469070    0.0811760  
N     2.0035070    0.5362560    0.3000050  
C     0.0243530    2.0148290   -0.2451460  
C    -0.3697580    3.3522280   -0.3331690  
O    -1.6613460    3.6588780   -0.6503040  
C     0.5602400    4.3894550   -0.0838390  
O     0.0126950    5.6508580   -0.1922490  
C     1.8822120    4.1245950    0.2290040  
H     4.4772060    2.6438270    0.8726590  
H     1.7040950   -0.3224160   -0.1478180  
H    -1.7205200    4.6300240   -0.6945360  
H     0.7114510    6.3193030   -0.1337240  
H     2.5768670    4.9398400    0.4175560  
C    -2.1242760    0.8579260    0.2122200  
C    -2.8539520   -0.2241830   -0.2023420  
C    -2.0628270   -0.8660700   -1.2575350  
C    -0.8400650   -0.0396810   -1.4124920  
N    -0.9229040    0.9788660   -0.4641410  
C     0.1351590   -0.2600880   -2.3319430  
C    -0.0122080   -1.3929110   -3.2441350  
O     0.8044500   -1.6593910   -4.1114350  
C    -1.2900150   -2.2887400   -3.0937570  
O    -1.4360870   -3.2453970   -3.8366900  
C    -2.2762260   -1.9360010   -2.0635150  
H     0.9917450    0.3935350   -2.4577740  
H    -3.1499860   -2.5699220   -1.9789860  
H    -2.3635390    1.5681710    0.9902170  
C    -6.3791600    2.2012570    1.0317780  
C    -5.1824560    1.8510530    0.4987480  
C    -5.1080970    0.4001650    0.6513380  
C    -6.3948800    0.0439140    1.3051540  
N    -7.1320460    1.0969580    1.5320680  
C    -6.7411910   -1.3204830    1.6157050  
C    -5.8545580   -2.2849890    1.2833160  
O    -6.0521440   -3.5983310    1.4983830  
C    -4.5383870   -1.9633980    0.6337570  
O    -3.7871780   -2.9073750    0.3969370  
C    -4.1754920   -0.5423720    0.3265290  
H    -4.4475920    2.4928950    0.0333910  
H    -7.6897350   -1.5458600    2.0902900  
H    -5.2400990   -4.0440090    1.1739590  
H    -6.8108750    3.1926070    1.1025610  
C     7.7089630    0.2585280   -0.4338340  
C     6.4365530    0.7548910   -0.3131330  
C     5.6634500   -0.2268020    0.3942160  
C     6.5343530   -1.3134010    0.6721110  
N     7.7742070   -0.9849010    0.1640770  
C     6.1206820   -2.4768210    1.3302040  
C     4.7926630   -2.5475330    1.7193970  
O     4.3368100   -3.6503450    2.3798260  
C     3.8990860   -1.4805720    1.4531730  
O     2.6137870   -1.7101640    1.9144280  
C     4.3017290   -0.3126950    0.7964230  
H     6.0881170    1.6992830   -0.7039250  
H     8.5895900   -1.5763130    0.1953120  
H     6.7888200   -3.3046020    1.5443980  
H     3.4017320   -3.4867060    2.5945240  
H     2.1365890   -0.8642770    1.9667140  
H     8.5827500    0.6894230   -0.9018260  
