62


C    -1.7935580    0.0023020    0.8738740  
C    -1.1943290   -1.1767860    0.4387320  
C    -2.2791810   -2.0959810    0.1233340  
C    -3.4905610   -1.4226770    0.3835630  
N    -3.1532290   -0.1430170    0.8436400  
C    -4.7521090   -1.9889180    0.1981360  
C    -4.7854920   -3.2942260   -0.2726350  
O    -5.9806490   -3.9102220   -0.4776320  
C    -3.5791300   -3.9944800   -0.5427170  
O    -3.7758790   -5.2784900   -1.0025390  
C    -2.3357450   -3.4177940   -0.3526180  
H    -5.6729620   -1.4539300    0.3998190  
H    -5.7935790   -4.8038960   -0.8144740  
H    -2.9191450   -5.6905730   -1.1903330  
H    -1.4165660   -3.9558360   -0.5601930  
H    -1.3602450    0.9358400    1.2011460  
C     0.2138370   -1.3989060    0.3370090  
C     1.2616870   -0.5360020    0.6173100  
C     2.4503750   -1.2570190    0.3244750  
C     1.9702230   -2.6054330   -0.1344490  
N     0.6703610   -2.6790840   -0.1258800  
C     2.8799910   -3.6415990   -0.5410010  
C     4.2025060   -3.3626510   -0.4880390  
O     5.1676930   -4.2150650   -0.8425680  
C     4.7386840   -2.0279020    0.0048600  
O     5.9649280   -1.9235960    0.0693430  
C     3.7936300   -0.9758230    0.3803360  
H     1.1944560    0.4887550    0.9536270  
H     2.5034620   -4.5995250   -0.8809360  
H     6.0113930   -3.7383310   -0.6610340  
C     3.9323670    0.7716160    2.1411510  
C     4.5411920    1.9592840    2.3749610  
C     5.3567970    2.2620790    1.2188520  
C     5.1716240    1.1320070    0.2750810  
N     4.2951580    0.2374160    0.8969890  
C     5.7372250    1.0723580   -0.9547720  
C     6.6136400    2.1659130   -1.3728320  
O     7.1639370    2.1921820   -2.4629040  
C     6.8480130    3.3562860   -0.3742640  
O     7.5833780    4.2732810   -0.7057270  
C     6.1570970    3.3177240    0.9159460  
H     4.4453840    2.5636820    3.2654900  
H     5.5903130    0.2492590   -1.6437270  
H     6.3026190    4.1547970    1.5920970  
H     3.2541360    0.2079290    2.7673380  
C    -4.6223570    0.9583320    2.4694830  
C    -5.5151000    1.9905250    2.4408100  
C    -5.5161180    2.5322750    1.1067350  
C    -4.5917090    1.7819370    0.3417080  
N    -4.0469550    0.8316080    1.2029660  
C    -4.3323920    2.0249050   -1.0097430  
C    -5.0310210    3.0637190   -1.6071760  
O    -4.8242630    3.3499200   -2.9225770  
C    -5.9621920    3.8357920   -0.8605600  
O    -6.5715930    4.8318490   -1.5966290  
C    -6.2096060    3.5844420    0.4762740  
H    -6.1073880    2.3341290    3.2778420  
H    -3.6269500    1.4410960   -1.5904990  
H    -5.4018330    4.0984570   -3.1519560  
H    -7.2006600    5.3123300   -1.0384240  
H    -6.9274730    4.1884560    1.0274290  
H    -4.3224550    0.2882320    3.2617020  
