60


C     3.5705590   -0.8240080    0.0782050  
C     4.1931750    0.3563540   -0.3681490  
C     5.5857320    0.1583830   -0.3181330  
C     5.8012100   -1.1726830    0.1658740  
N     4.5771060   -1.7331290    0.3906720  
C     7.0815190   -1.7113900    0.3374280  
C     8.1573230   -0.9006460    0.0155780  
O     9.4190890   -1.3658870    0.1594350  
C     7.9618530    0.4348390   -0.4735370  
O     9.1429900    1.0865800   -0.7391350  
C     6.7061750    0.9649790   -0.6429330  
H     3.6831870    1.2310230   -0.7407370  
H     4.3694270   -2.6829230    0.6707130  
H     7.2552610   -2.7176070    0.7024780  
H    10.0316730   -0.6602800   -0.1157800  
H     8.9647760    1.9804450   -1.0685180  
H     6.5745350    1.9785330   -1.0140900  
C    -0.2485690    1.5347460    0.0670780  
C     1.0875330    1.2055990    0.1238640  
C     1.1365110   -0.2233600    0.1272120  
C    -0.2783220   -0.6468000    0.0749430  
N    -1.0809870    0.3871580    0.0335590  
C    -0.7003670   -2.0534680    0.1047830  
C     0.3202370   -2.9626650    0.2732870  
O     0.1616330   -4.2853040    0.3433960  
C     1.7611920   -2.5557600    0.3630180  
O     2.5652820   -3.4782240    0.5651220  
C     2.1784950   -1.1385760    0.1856530  
H     1.9160130    1.8890840    0.2285900  
H     1.0673570   -4.6461970    0.4785680  
C    -0.8732980    2.8257730    0.0738320  
C    -0.3319150    4.0947530    0.0528880  
C    -1.4136310    5.0346340    0.0822680  
C    -2.6638920    4.2289970    0.1251080  
N    -2.2647630    2.9121550    0.1077590  
C    -3.9125560    4.7598050    0.1710780  
C    -4.0530770    6.2124710    0.1727980  
O    -5.1363630    6.7772000    0.2108400  
C    -2.7454310    7.0850890    0.1205760  
O    -2.8468040    8.3041050    0.1188970  
C    -1.4560170    6.3995080    0.0772620  
H     0.7206900    4.3347130    0.0107110  
H    -4.8151290    4.1574710    0.2047650  
H    -0.5600120    7.0121610    0.0453360  
H    -2.8522600    2.0943040    0.1728560  
C    -2.0947850   -2.4242930   -0.0239230  
C    -3.1337420   -1.6592880   -0.4948170  
C    -4.3028660   -2.5031610   -0.4381040  
C    -3.7967140   -3.7956770    0.1237910  
N    -2.5216620   -3.7511770    0.3605850  
C    -4.6773350   -4.9143630    0.3512690  
C    -5.9827710   -4.7616940    0.0281540  
O    -6.9153670   -5.7134680    0.1790730  
C    -6.5205870   -3.4721340   -0.5480580  
O    -7.7231170   -3.4319500   -0.8098580  
C    -5.6073000   -2.3432700   -0.7640570  
H    -3.0814150   -0.6400940   -0.8396370  
H    -4.2873820   -5.8385640    0.7628180  
H    -7.7522610   -5.3060370   -0.1393840  
H    -6.0310860   -1.4316700   -1.1742700  
