62


C    -4.4891810    0.2948990    0.1786100  
C    -5.5697470    1.1538740   -0.0672820  
C    -6.7476970    0.3660050   -0.1021450  
C    -6.3501140   -0.9855170    0.1306950  
N    -4.9908370   -0.9929160    0.2976580  
C    -7.2647940   -2.0449370    0.1611030  
C    -8.5992330   -1.7391650   -0.0502330  
O    -9.5312010   -2.7263060   -0.0338620  
C    -9.0160070   -0.3925770   -0.2883930  
O   -10.3753620   -0.2684350   -0.4779030  
C    -8.1168890    0.6502960   -0.3165030  
H    -5.5054490    2.2074090   -0.2999950  
H    -4.3753950   -1.7913280    0.3961110  
H    -6.9688660   -3.0734820    0.3367030  
H   -10.3973200   -2.3173720   -0.2073530  
H   -10.5997320    0.6565530   -0.6585700  
H    -8.4551540    1.6678870   -0.4997740  
C    -2.3131090    4.0020740    1.0086240  
C    -1.0383800    3.5583530    0.8003240  
C    -1.1104980    2.1607280    0.4728580  
C    -2.5316800    1.8182920    0.4967490  
N    -3.2198590    2.9871720    0.7768310  
C    -3.0781680    0.5658790    0.2841630  
C    -2.0861710   -0.5238290    0.2116280  
O    -2.3854140   -1.7105030    0.2050430  
C    -0.5500840   -0.1810910    0.1528720  
O     0.2068440   -1.1439380    0.0877340  
C    -0.1174290    1.2168320    0.1932090  
H    -0.1422880    4.1449430    0.9199170  
H    -2.6581660    4.9821370    1.3095230  
H    -4.1791030    2.9892830    1.0931180  
C     1.2722010    1.5538600   -0.0257540  
C     1.8471150    2.7722160   -0.3530370  
C     3.2591070    2.5821710   -0.4843430  
C     3.5075740    1.1461290   -0.2187620  
N     2.2744540    0.5865770    0.0447220  
C     4.7344350    0.5451800   -0.2286750  
C     5.8874200    1.4077710   -0.5753200  
O     7.0174800    0.9745970   -0.7169420  
C     5.6452250    2.9442170   -0.8153610  
O     6.6132270    3.6608420   -1.0355530  
C     4.2801700    3.4447250   -0.7710860  
H     1.3227590    3.6945010   -0.5459990  
H     4.1194250    4.5033990   -0.9515320  
H     2.0728510   -0.3923310    0.2051020  
C     3.1937860   -3.0590370   -2.3022490  
C     3.8049240   -3.9998360   -1.5166900  
C     4.5472070   -3.2936760   -0.5102810  
C     4.3417060   -1.9081530   -0.7383980  
N     3.5039080   -1.7954190   -1.8307740  
C     4.9381080   -0.8942530    0.0416590  
C     5.7578070   -1.3266140    1.0864340  
O     6.3316340   -0.4115470    1.9160040  
C     5.9706600   -2.7076000    1.3290800  
O     6.7985070   -2.9605570    2.4099690  
C     5.3813420   -3.6878440    0.5535250  
H     3.7318070   -5.0721970   -1.6356330  
H     3.2589380   -0.9272850   -2.2802620  
H     6.9337130   -0.8973460    2.5058030  
H     7.0185460   -3.9033820    2.4293180  
H     5.5604250   -4.7402360    0.7654960  
H     2.5459760   -3.1785270   -3.1590850  
