60


C     5.1126560    0.0057890    0.0515010  
C     6.0196610    1.0711000    0.0207940  
C     7.3246140    0.5223170   -0.1012940  
C     7.1755820   -0.8956810   -0.1396060  
N     5.8366920   -1.1724470   -0.0435850  
C     8.2671020   -1.7651600   -0.2574900  
C     9.5276480   -1.1973930   -0.3429670  
O    10.6243030   -1.9932490   -0.4607770  
C     9.6961110    0.2195440   -0.3102090  
O    11.0138500    0.6177290   -0.4061200  
C     8.6222400    1.0757040   -0.1919060  
H     5.7689680    2.1218050   -0.0219490  
H     5.3728400   -2.0702730   -0.1164800  
H     8.1588850   -2.8440220   -0.2868010  
H    11.4034340   -1.4124530   -0.5108240  
H    11.0644730    1.5849760   -0.3945420  
H     8.7747980    2.1528660   -0.1689720  
C     2.2843320    3.0126900    1.5245770  
C     1.1128580    2.3811330    1.2407880  
C     1.4413620    1.1085700    0.6339780  
C     2.9074500    1.0577230    0.5743220  
N     3.3645220    2.2619780    1.0848360  
C     3.6699680   -0.0055590    0.1352990  
C     2.8951140   -1.2187790   -0.1941940  
O     3.4049970   -2.3151680   -0.3878720  
C     1.3344910   -1.1207900   -0.3311440  
O     0.7707880   -2.0173680   -0.9317230  
C     0.6421330    0.0682820    0.2013700  
H     0.1213460    2.7465500    1.4614260  
H     2.4513410    3.9650190    2.0102040  
H     4.3126910    2.3776010    1.4152090  
C    -2.2345860    2.8544330   -1.6044470  
C    -3.3993780    2.2476880   -1.2425010  
C    -3.0597070    1.0953100   -0.4436300  
C    -1.5872880    1.0704180   -0.3753570  
N    -1.1493170    2.1827190   -1.0717160  
C    -0.8210590    0.0889690    0.1998470  
C    -1.5642590   -1.0030240    0.8676600  
O    -1.0086530   -1.8900100    1.4881100  
C    -3.1359500   -0.9698180    0.8709870  
O    -3.7096080   -1.7964570    1.5527030  
C    -3.8410580    0.1073720    0.1292670  
H    -4.3918070    2.5560080   -1.5297600  
H    -2.0803010    3.7340200   -2.2153070  
H    -0.1802430    2.3746510   -1.2735120  
C    -5.2875530    0.1011330    0.0595100  
C    -6.1491630    1.1713780    0.0759540  
C    -7.4751610    0.6131920   -0.0258810  
C    -7.2415740   -0.8642100   -0.1232540  
N    -5.9786690   -1.1608870   -0.0664410  
C    -8.3376770   -1.7899920   -0.2673070  
C    -9.5914750   -1.2812820   -0.2857400  
O   -10.7062040   -2.0188860   -0.4039830  
C    -9.8576650    0.2018440   -0.1718690  
O   -11.0352350    0.5652570   -0.2025380  
C    -8.7287220    1.1273760   -0.0424300  
H    -5.9035890    2.2136300    0.2218510  
H    -8.1423860   -2.8537750   -0.3431510  
H   -11.4445190   -1.3689930   -0.3840460  
H    -8.9587100    2.1864090    0.0248440  
