64


C    -1.4482650   -0.6193410   -1.7681300  
C    -2.7937880   -0.6987820   -1.5472620  
C    -3.1091870    0.1980430   -0.4664940  
C    -1.9008150    0.8125760   -0.0589090  
N    -0.8972620    0.2968760   -0.8724640  
C    -1.8205860    1.7594650    0.9660790  
C    -3.0054850    2.0908520    1.6043760  
O    -3.0007710    2.9964610    2.6232600  
C    -4.2336580    1.4939840    1.2136580  
O    -5.3188970    1.9178450    1.9498220  
C    -4.3182680    0.5528300    0.1859520  
H    -3.4905120   -1.3277010   -2.0822800  
H    -0.8869340    2.2180330    1.2717480  
H    -3.9120140    3.0516440    2.9608630  
H    -6.0830560    1.3580520    1.7256730  
H    -0.8061380   -1.1236770   -2.4752940  
C     1.0353590    1.6643260   -1.5053030  
C     2.3644800    1.6967990   -1.1885780  
C     2.6124820    0.6406950   -0.2435010  
C     1.3797210   -0.0207620   -0.0211060  
N     0.4293880    0.6274000   -0.8016090  
C     1.2320830   -1.1234110    0.8217420  
C     2.3753060   -1.5700220    1.4692590  
O     2.2984490   -2.6262830    2.3262500  
C     3.6231990   -0.9319990    1.2638600  
O     4.6588150   -1.4928210    1.9951130  
C     3.7806620    0.1651280    0.4136110  
H     3.0900610    2.3889950   -1.5905070  
H     0.2793940   -1.6126300    0.9893030  
H     3.1826380   -2.7390400    2.7177930  
H     5.3515950   -0.8271430    2.1293670  
H     0.4416890    2.2784620   -2.1663710  
C    -5.9439350   -3.6568390    0.3733820  
C    -5.1404780   -2.5499970    0.4614260  
C    -5.9019390   -1.4360070   -0.0297140  
C    -7.1779070   -1.9369240   -0.4022870  
N    -7.1735090   -3.2926620   -0.1456780  
C    -8.1956590   -1.1237870   -0.9168670  
C    -7.9184440    0.2255130   -1.0627610  
O    -8.8656070    1.0664410   -1.5721720  
C    -6.6524240    0.7501360   -0.6922330  
O    -6.5258750    2.1075550   -0.9074940  
C    -5.6323210   -0.0497290   -0.1739370  
H    -4.1246810   -2.5270160    0.8284460  
H    -7.9458330   -3.9185440   -0.3109040  
H    -9.1692530   -1.5068250   -1.2055000  
H    -8.4596930    1.9488250   -1.6324970  
H    -5.5941450    2.3566020   -0.7797170  
H    -5.7444600   -4.6855640    0.6385120  
C     5.3768050    2.1410970    0.1865950  
C     5.0862280    0.8083520    0.2166970  
C     6.3800210    0.1610790   -0.1061740  
C     7.3287800    1.3006830   -0.2828250  
N     6.7347940    2.4478050   -0.1051560  
C     8.7135420    1.0874190   -0.6131360  
C     9.1347310   -0.1878560   -0.7905530  
O    10.3940080   -0.5308720   -1.1078040  
C     8.1981630   -1.3543510   -0.6432150  
O     8.6536400   -2.4825790   -0.8199180  
C     6.7823310   -1.1120630   -0.2865670  
H     9.3794680    1.9359140   -0.7250540  
H    10.3906290   -1.5111810   -1.1701890  
H     6.1423110   -1.9812350   -0.1761150  
H     4.6905330    2.9594710    0.3681040  
