60


C    -2.8021090   -1.0023570   -1.2576140  
C    -1.9131720   -1.8182230   -0.5725700  
C    -2.7020510   -2.9193220   -0.0514770  
C    -4.0441320   -2.6952650   -0.4465930  
N    -4.0705410   -1.5238900   -1.1815900  
C    -5.0985550   -3.5490560   -0.0988040  
C    -4.7880200   -4.6627990    0.6638000  
O    -5.7672170   -5.5394130    1.0242440  
C    -3.4483050   -4.9054390    1.0712300  
O    -3.2953000   -6.0553540    1.8222380  
C    -2.4151870   -4.0548530    0.7322880  
H    -4.8797910   -1.1524180   -1.6547460  
H    -6.1240820   -3.3753960   -0.4081270  
H    -5.3359770   -6.2629560    1.5119580  
H    -2.3520500   -6.2617040    1.9044280  
H    -1.3968530   -4.2813570    1.0291160  
H    -2.6009340   -0.1295500   -1.8628840  
C     0.1871710    1.9400640    0.1835560  
C     1.4853340    1.4780090    0.1275540  
C     1.4552460    0.0659540   -0.1120390  
C     0.0318570   -0.2982130   -0.2229020  
N    -0.6882840    0.8856170   -0.0887790  
C    -0.4805940   -1.5524750   -0.4234440  
C     0.5270450   -2.6273220   -0.5389950  
O     0.2371410   -3.7981210   -0.7200430  
C     2.0561680   -2.2707810   -0.4248110  
O     2.8479790   -3.1981580   -0.3971830  
C     2.4635370   -0.8638960   -0.2639150  
H     2.3714940    2.0905200    0.1997160  
H    -1.6536920    0.8643930    0.2141730  
C     5.1348450    1.1099200    2.7336610  
C     4.0627230    0.5903980    2.0812280  
C     4.5313560    0.0892190    0.8044060  
C     5.9891170    0.3544970    0.7740180  
N     6.2851510    0.9985190    1.9607550  
C     6.8326390   -0.0117940   -0.2268380  
C     6.2742320   -0.7160780   -1.3698570  
O     6.9477440   -1.1263560   -2.3030690  
C     4.7204470   -0.9430960   -1.4083700  
O     4.2225550   -1.3699480   -2.4331150  
C     3.8964300   -0.5564720   -0.2257320  
H     3.0492440    0.5497730    2.4496490  
H     7.9024420    0.1716670   -0.2033710  
H     5.1872450    1.5666820    3.7131650  
H     7.2164180    1.2343510    2.2657520  
C     0.3621850    4.2988120    1.0659260  
C    -0.2937730    3.2703840    0.4379690  
C    -1.6054000    3.8491450    0.0804940  
C    -1.5342280    5.2477090    0.5931910  
N    -0.3773510    5.4911090    1.1591260  
C    -2.6247260    6.1668540    0.4389600  
C    -3.7360760    5.7326070   -0.2075700  
O    -4.8246410    6.4857080   -0.4191300  
C    -3.8318920    4.3377850   -0.7561640  
O    -4.8670990    4.0115660   -1.3334340  
C    -2.6912700    3.4107430   -0.5846870  
H    -2.5418740    7.1755950    0.8277550  
H    -5.4550800    5.9139450   -0.9092500  
H    -2.7991820    2.4233690   -1.0212610  
H     1.3555110    4.2662480    1.4978810  
