62


C    -2.5486670   -2.3690640    2.4016310  
C    -2.9880860   -1.1557850    1.9292410  
C    -3.8299660   -1.4164170    0.7900650  
C    -3.8772170   -2.8283540    0.6402400  
N    -3.0797510   -3.3759760    1.6254360  
C    -4.6532460   -3.4683670   -0.3318020  
C    -5.4170590   -2.6568540   -1.1540940  
O    -6.2177320   -3.2049880   -2.1069480  
C    -5.3854530   -1.2391140   -1.0389030  
O    -6.1768330   -0.5971520   -1.9593740  
C    -4.5719000   -0.5871620   -0.1061910  
H    -2.7673150   -0.1940970    2.3696420  
H    -2.9030770   -4.3605270    1.7506020  
H    -4.6968560   -4.5473460   -0.4387500  
H    -6.6782850   -2.4510510   -2.5241840  
H    -6.6095900    0.1573870   -1.4906460  
H    -1.8898320   -2.5996520    3.2264830  
C    -0.9530990    1.8960590   -0.0978190  
C    -1.5289860    3.1403630   -0.0300950  
C    -2.9552310    2.9702090    0.0096990  
C    -3.1985490    1.5073810   -0.0389960  
N    -1.9552980    0.9211430   -0.0798230  
C    -4.4278130    0.8891640   -0.0714290  
C    -5.5685920    1.8066930   -0.1231730  
O    -6.7245970    1.4447630   -0.3500770  
C    -5.3482620    3.3508080    0.0904520  
O    -6.3368150    4.0598770    0.2077390  
C    -3.9866790    3.8575940    0.0968870  
H    -1.0004620    4.0805140    0.0359090  
H    -3.8398990    4.9297550    0.1783440  
H    -1.8130650   -0.0706920   -0.2023470  
C     1.4197000    2.2906740   -0.7841900  
C     0.4439710    1.5305160   -0.1877490  
C     1.1063700    0.3258440    0.3148520  
C     2.5335890    0.4647270   -0.0462290  
N     2.6496920    1.6878560   -0.6959560  
C     3.5193890   -0.4426930    0.2073750  
C     3.1124830   -1.6539410    0.9624430  
O     3.9054950   -2.4980450    1.3339100  
C     1.5978850   -1.8231990    1.3509410  
O     1.2560740   -2.8323650    1.9481880  
C     0.6557790   -0.7617130    0.9956350  
H    -0.3762610   -0.8962150    1.3042940  
H     1.3101630    3.2374840   -1.2964880  
H     3.5020550    2.0157450   -1.1267940  
C     6.4211500    2.7499550    1.2580850  
C     7.4762360    2.2840380    0.5215540  
C     7.0381330    1.0839020   -0.1363610  
C     5.6868320    0.8748190    0.2392130  
N     5.3246060    1.9212360    1.0695580  
C     4.9264700   -0.2349150   -0.1918430  
C     5.5793200   -1.1425050   -1.0304230  
O     4.8961500   -2.2076440   -1.5262420  
C     6.9297650   -0.9428570   -1.4171410  
O     7.4111940   -1.9243970   -2.2611490  
C     7.6586960    0.1506660   -0.9893740  
H     8.4540800    2.7404320    0.4521670  
H     4.4926920    1.9318560    1.6401110  
H     5.5327350   -2.7622690   -2.0105020  
H     8.3662470   -1.8137140   -2.3787020  
H     8.6918260    0.2813260   -1.3045810  
H     6.3448370    3.6180210    1.8975470  
