64


C    -5.6600100    1.1509460    2.0252700  
C    -6.9566550    0.7159570    2.0777920  
C    -7.1562950   -0.1570200    0.9555630  
C    -5.9283190   -0.2131460    0.2477550  
N    -5.0174390    0.5983090    0.9176210  
C    -5.7523960   -0.9965050   -0.8989720  
C    -6.8408530   -1.7287100   -1.3450040  
O    -6.7269690   -2.5068070   -2.4629290  
C    -8.0805450   -1.6803590   -0.6538570  
O    -9.0694490   -2.4649780   -1.2216230  
C    -8.2487850   -0.9105450    0.4815780  
H    -7.6909960    0.9997890    2.8196970  
H    -4.8171560   -1.0315130   -1.4449590  
H    -7.5962430   -2.9149330   -2.6162950  
H    -9.8969190   -2.3392700   -0.7345140  
H    -9.2067090   -0.8925330    0.9983420  
H    -5.1265950    1.8480660    2.6564680  
C    -1.5542340   -0.3802960    3.3415860  
C    -0.5890170    0.0566120    2.4696950  
C    -1.2620940    0.5399020    1.2904720  
C    -2.6497280    0.3747890    1.5300180  
N    -2.7991680   -0.1924950    2.7757660  
C    -3.6430800    0.7676060    0.6153200  
C    -3.2031070    1.3587890   -0.5650430  
O    -4.0953220    1.7935640   -1.4898650  
C    -1.8147010    1.5140700   -0.8337710  
O    -1.5603810    2.0815220   -2.0638880  
C    -0.8221730    1.0985480    0.0557380  
H     0.4745310    0.0661540    2.6597540  
H    -3.6877950   -0.4245190    3.1934700  
H    -3.5555580    2.1739280   -2.2102380  
H    -0.8671970    2.7659500   -1.9403930  
H    -1.4583960   -0.8030080    4.3316380  
C     2.2996430   -2.0048290    0.1792020  
C     3.3745660   -1.2524230   -0.2577500  
C     2.8597700    0.0828430   -0.4840790  
C     1.4801500    0.0624310   -0.1555370  
N     1.1711190   -1.2282920    0.2276040  
C     0.6202920    1.1778950   -0.2866910  
C     1.2277760    2.3239030   -0.7982990  
O     0.4778250    3.4684500   -0.9928880  
C     2.5966490    2.3649470   -1.1529770  
O     3.0003030    3.5885050   -1.6529200  
C     3.4197670    1.2657710   -1.0041090  
H     0.2811610   -1.5047130    0.6166840  
H     1.0826140    4.1503890   -1.3387790  
H     3.9490230    3.5676240   -1.8471380  
H     4.4625160    1.3124400   -1.3065350  
H     2.2746470   -3.0408990    0.4860190  
C     5.1115130   -2.9608750   -0.9724850  
C     4.7212950   -1.7587660   -0.4629740  
C     5.9965980   -1.1107630   -0.0713550  
C     7.0454390   -2.0984000   -0.4509540  
N     6.5197980   -3.1740980   -0.9672420  
C     8.4436620   -1.8360750   -0.2277540  
C     8.7851580   -0.6701010    0.3724200  
O    10.0512220   -0.2997610    0.6423850  
C     7.7501480    0.3268800    0.7969780  
O     8.1333070    1.3676860    1.3324340  
C     6.3195130    0.0374760    0.5523680  
H     9.1857630   -2.5683130   -0.5266920  
H     9.9762630    0.5780770    1.0758800  
H     5.6003510    0.7788930    0.8863920  
H     4.4725440   -3.7343540   -1.3815600  
