62


C     4.3802780   -1.5309370   -1.7407070  
C     4.7012000   -0.4889200   -0.8964810  
C     5.7991160   -0.9637910   -0.0753910  
C     6.0881030   -2.2920700   -0.4821430  
N     5.2052620   -2.6087770   -1.4947470  
C     7.0904190   -3.0666010    0.1153560  
C     7.8136590   -2.4910740    1.1480520  
O     8.8035330   -3.1999340    1.7630730  
C     7.5305610   -1.1668650    1.5792350  
O     8.3288640   -0.7399020    2.6226400  
C     6.5408110   -0.4044130    0.9883450  
H     5.1789630   -3.4858500   -1.9907250  
H     7.3122840   -4.0832580   -0.1929130  
H     9.1722900   -2.6321800    2.4617710  
H     8.0604310    0.1510500    2.8922310  
H     6.3347440    0.6028210    1.3419800  
H     3.6304600   -1.5730160   -2.5177220  
C     0.3807320    0.7908410   -0.6335120  
C     1.5511880    0.0623490   -0.6996700  
C     2.6404530    0.9873240   -0.7893940  
C     2.0765270    2.2903010   -0.7652820  
N     0.7076500    2.1452510   -0.6478360  
C     2.8481270    3.4557130   -0.8235680  
C     4.2225520    3.2959040   -0.9048080  
O     5.0320050    4.3924490   -0.9834850  
C     4.8080400    2.0035790   -0.9181160  
O     6.1867390    2.0237460   -1.0188060  
C     4.0512480    0.8347460   -0.8582110  
H     1.6233970   -1.0138060   -0.6282190  
H     0.0385660    2.8866860   -0.7894640  
H     2.4195080    4.4524120   -0.8088750  
H     5.9436910    4.0635760   -1.0715000  
H     6.5062960    1.1127370   -1.1330680  
C    -1.5222580   -0.7826700   -1.1373380  
C    -0.9988670    0.3412750   -0.5601930  
C    -2.0983090    0.9649370    0.1723470  
C    -3.2966620    0.1202060   -0.0766560  
N    -2.8815750   -0.9073400   -0.8914570  
C    -4.5573960    0.3783370    0.4074480  
C    -4.6334270    1.4580100    1.4254460  
O    -5.5923480    1.6103980    2.1612420  
C    -3.4060240    2.4141160    1.6190500  
O    -3.5434960    3.4075680    2.3154210  
C    -2.1472120    2.0654030    0.9688750  
H    -1.2854370    2.6949900    1.1638240  
H    -1.0167440   -1.5171180   -1.7501050  
H    -3.4101010   -1.7851830   -0.8855860  
C    -5.5031570   -3.9619790   -0.1892430  
C    -6.8532160   -3.9329020   -0.2126350  
C    -7.2075790   -2.5209240   -0.1439630  
C    -5.8906150   -1.8051220   -0.0389640  
N    -4.9083810   -2.6652370   -0.0940460  
C    -5.7944170   -0.3572420    0.0856930  
C    -6.9816480    0.3128370   -0.0884100  
O    -7.0727410    1.6425290   -0.1579930  
C    -8.3084030   -0.3767500   -0.2287810  
O    -9.3083850    0.3286760   -0.3552640  
C    -8.3694170   -1.8482520   -0.2276370  
H    -7.5405200   -4.7639050   -0.2857450  
H    -8.0330440    1.8415350   -0.2327150  
H    -9.3461330   -2.3109990   -0.3291220  
H    -4.8491650   -4.8242390   -0.2345290  
