62


C    -1.6740790    1.0396640   -2.6824860  
C    -0.7170000    0.2727090   -2.0638990  
C    -1.3172070   -0.2838620   -0.8790060  
C    -2.6610830    0.1781820   -0.8529990  
N    -2.8337300    1.0032330   -1.9452790  
C    -3.6015210   -0.1708700    0.1432970  
C    -3.0990890   -1.0311410    1.1167140  
O    -3.9085040   -1.4486750    2.1505530  
C    -1.7658440   -1.5100820    1.1286070  
O    -1.4899980   -2.3251430    2.1997450  
C    -0.8304590   -1.1286830    0.1635500  
H     0.2797770    0.0899700   -2.4389110  
H    -3.7260920    1.3847670   -2.2246070  
H    -3.3556950   -2.0691810    2.6705830  
H    -0.9252420   -3.0645520    1.8609490  
H    -1.6230400    1.6064620   -3.6015110  
C     2.7794070    1.3076550   -0.1707550  
C     3.7643690    0.3612050   -0.1061350  
C     3.0742950   -0.9237270    0.0614650  
C     1.6232160   -0.6192760    0.0858150  
N     1.5212830    0.7465770   -0.0438410  
C     0.5954630   -1.5267650    0.2308340  
C     1.0266440   -2.8925820    0.5157200  
O     0.2655770   -3.7938550    0.8766100  
C     2.5497010   -3.2657960    0.4084980  
O     2.8636910   -4.4382970    0.5234410  
C     3.5241520   -2.1948690    0.2078020  
H     4.5695930   -2.4682130    0.1406680  
H     2.8806000    2.3749500   -0.3152170  
H     0.6483270    1.2193930   -0.2369900  
C     6.3008120    3.4208150    1.8716920  
C     5.2721780    2.6167610    1.4954810  
C     5.7908350    1.6663200    0.5331390  
C     7.2308220    1.9855750    0.3842940  
N     7.4685330    3.0708810    1.2049390  
C     8.1069410    1.3084090   -0.4037820  
C     7.6045780    0.1756440   -1.1605920  
O     8.3041120   -0.5249280   -1.8762910  
C     6.0724620   -0.1722480   -1.0513060  
O     5.6450130   -1.0927260   -1.7272670  
C     5.2018920    0.6337670   -0.1576590  
H     4.2615180    2.6623310    1.8710180  
H     9.1588500    1.5631240   -0.4861740  
H     6.3093850    4.2371920    2.5815940  
H     8.3732820    3.4897100    1.3530210  
C    -6.7987570    0.0744460   -3.0325500  
C    -5.6582920   -0.2228170   -2.3309110  
C    -5.8033490    0.3466160   -1.0146940  
C    -7.0789190    0.9708190   -0.9824880  
N    -7.6522070    0.8027030   -2.2271200  
C    -7.5997410    1.5929770    0.1581460  
C    -6.8175580    1.5556410    1.2998950  
O    -7.2634160    2.1152610    2.4580390  
C    -5.5342580    0.9426880    1.2991760  
O    -4.8792830    1.0259800    2.5103590  
C    -4.9862700    0.3611910    0.1532770  
H    -4.8309770   -0.8140700   -2.6962870  
H    -8.5764990    1.1109830   -2.4847700  
H    -8.5773520    2.0635370    0.1820250  
H    -6.5630090    1.9384340    3.1154170  
H    -4.4929380    0.1426350    2.7017220  
H    -7.0812350   -0.1823780   -4.0437700  
