62


C    -5.5889400   -1.1856610    1.2576950  
C    -5.7299260   -2.5288050    1.4129030  
C    -4.6060610   -3.1621670    0.7719800  
C    -3.7918840   -2.1376890    0.2333550  
N    -4.4063120   -0.9108480    0.5517450  
C    -2.6430770   -2.4117840   -0.5173160  
C    -2.2929950   -3.7455170   -0.6858160  
O    -1.1806360   -4.0622910   -1.4086300  
C    -3.0816540   -4.7821720   -0.1274830  
O    -2.6028500   -6.0491920   -0.3827980  
C    -4.2329580   -4.5043500    0.5888800  
H    -6.5357230   -3.0215630    1.9394980  
H    -2.0285820   -1.6523970   -0.9870280  
H    -1.0995720   -5.0319540   -1.4028850  
H    -3.1646710   -6.7072380    0.0528830  
H    -4.8409180   -5.3112550    0.9922080  
H    -6.1888160   -0.3663220    1.6234370  
C    -3.9910580    0.3679130    0.2489480  
C    -4.7473770    1.4968720    0.0656150  
C    -3.8418180    2.5896970   -0.1430090  
C    -2.4738870    2.0180130   -0.0760460  
N    -2.6334840    0.6613320    0.1236610  
C    -1.2983610    2.7223450   -0.1589580  
C    -1.4632810    4.1768370   -0.2528150  
O    -0.5325220    4.9723630   -0.1183220  
C    -2.8877470    4.7892450   -0.5135030  
O    -2.9581180    5.9818600   -0.7742080  
C    -4.0404570    3.9170150   -0.3877230  
H    -5.8253910    1.5431090    0.0346490  
H    -5.0274190    4.3556770   -0.4923550  
H    -1.8802240    0.0490100    0.4038460  
C     0.3905980   -0.7817470   -2.4017350  
C    -0.3905230    0.2666340   -1.9838570  
C     0.3214780    0.9377270   -0.9280010  
C     1.5534760    0.2516320   -0.7704980  
N     1.5603670   -0.7937440   -1.6715210  
C     2.5447410    0.6281010    0.1591550  
C     2.2590670    1.7688350    0.9113280  
O     3.1797010    2.2519700    1.7809900  
C     1.0367710    2.4791080    0.7713980  
O     0.9343410    3.5632380    1.6072590  
C     0.0294140    2.0643000   -0.1035320  
H    -1.3472130    0.5446350   -2.4017580  
H     2.3010800   -1.4716230   -1.7586260  
H     2.7742370    3.0468560    2.1794900  
H     0.5163770    4.2902890    1.0853370  
H     0.2077610   -1.5287680   -3.1606090  
C     5.8809990   -0.3891210   -2.6025330  
C     4.7356100    0.0912060   -2.0549920  
C     4.7066930   -0.3356480   -0.6675960  
C     5.9528890   -1.1096510   -0.4517820  
N     6.6064370   -1.1252990   -1.6694170  
C     6.3397740   -1.6518930    0.7325230  
C     5.4674300   -1.4742610    1.8823320  
O     5.7349940   -1.8894270    3.0003620  
C     4.1016300   -0.7221130    1.6690300  
O     3.3063490   -0.6989230    2.5895290  
C     3.8054560   -0.1171100    0.3396760  
H     3.9917930    0.6969370   -2.5500220  
H     7.2721070   -2.1916370    0.8673790  
H     6.2631960   -0.2716810   -3.6080160  
H     7.5287220   -1.5036780   -1.8179030  
