64


C     0.0201260    0.2439650   -1.0388950  
C     0.3030330    1.5507960   -1.3559170  
C    -0.9019410    2.3160950   -1.2013020  
C    -1.9158120    1.4200640   -0.7914470  
N    -1.3577570    0.1449210   -0.7493780  
C    -3.2407460    1.8094490   -0.4904840  
C    -3.4878230    3.1867770   -0.6140070  
O    -4.7299770    3.6972200   -0.3221090  
C    -2.4902660    4.0909400   -1.0474750  
O    -2.9325780    5.3983840   -1.1292670  
C    -1.2059260    3.6808720   -1.3530850  
H     1.2569540    1.9169460   -1.7086990  
H    -1.6978730   -0.5306800   -0.0729310  
H    -4.6887270    4.6565750   -0.4829500  
H    -2.2065280    5.9698320   -1.4192290  
H    -0.4539780    4.3964310   -1.6773790  
C     4.3447100   -0.4691720    0.0247540  
C     3.0840760    0.1001770   -0.1863000  
C     2.2337320   -0.9188820   -0.6808840  
C     3.0120070   -2.1143880   -0.7507840  
N     4.2769990   -1.8096650   -0.3256000  
C     2.4851680   -3.3383440   -1.1750500  
C     1.1476730   -3.3566840   -1.5397910  
O     0.5812710   -4.5119680   -1.9815140  
C     0.3470860   -2.1820980   -1.4771000  
O    -0.9522580   -2.3834070   -1.9024780  
C     0.8569480   -0.9540310   -1.0569410  
H     2.8276300    1.1256980    0.0182800  
H     5.0832140   -2.4232630   -0.2427520  
H     3.0742670   -4.2471870   -1.2327780  
H    -0.3370930   -4.3010390   -2.2281490  
H    -1.3813480   -1.5154400   -2.0228830  
C    -4.2563720    0.8453830   -0.0707530  
C    -4.2971020   -0.5377740   -0.2056930  
C    -5.5134170   -0.9982230    0.3842960  
C    -6.1936030    0.1487950    0.8746150  
N    -5.4095140    1.2418070    0.5942070  
C    -7.4372230    0.0721530    1.5157970  
C    -8.0034600   -1.1835970    1.6646580  
O    -9.2142590   -1.3171700    2.2821360  
C    -7.3364340   -2.3426330    1.1810690  
O    -8.0298410   -3.5184360    1.4071480  
C    -6.1105170   -2.2657670    0.5494860  
H    -3.5787450   -1.1552410   -0.7242430  
H    -5.6551210    2.2114470    0.7283120  
H    -7.9603820    0.9452470    1.8919570  
H    -9.4305570   -2.2654620    2.2853120  
H    -7.5200100   -4.2640860    1.0578930  
H    -5.6196420   -3.1675800    0.1881490  
C     8.2799570   -2.2902050    0.7123920  
C     8.9944460   -1.2384300    1.1700340  
C     8.0648310   -0.1132140    1.1733720  
C     6.7852240   -0.6869270    0.6688560  
N     6.9233000   -1.9570190    0.4033540  
C     5.5695340    0.1183100    0.5137370  
C     5.6965920    1.4432420    0.8661200  
O     4.6770800    2.3275910    0.7826410  
C     6.9493530    2.0339420    1.3661140  
O     6.9600660    3.2393350    1.6551240  
C     8.1534610    1.1863680    1.5098470  
H    10.0318780   -1.2156640    1.4732690  
H     5.0652670    3.1749800    1.0986170  
H     9.0538930    1.6656950    1.8827700  
H     8.6057770   -3.3116640    0.5604870  
