60


C     5.0818170    1.4029410    2.7722400  
C     4.0736570    0.7496860    2.1076890  
C     4.6581010    0.1080850    0.9651640  
C     6.0490850    0.4045680    1.0034930  
N     6.2717820    1.2064770    2.1043490  
C     6.9639080   -0.0955990    0.0760270  
C     6.4667430   -0.9464100   -0.9024540  
O     7.3057400   -1.4783740   -1.8280180  
C     5.0901680   -1.2818130   -0.9613950  
O     4.7721900   -2.1126800   -2.0127550  
C     4.1524570   -0.7431010   -0.0683270  
H     3.0352990    0.7376720    2.4027750  
H     7.1729350    1.5465280    2.4015970  
H     8.0245820    0.1315760    0.1078040  
H     6.7500760   -2.0568910   -2.3855850  
H     4.1850990   -2.8159900   -1.6575530  
H     5.0470390    1.9997470    3.6726610  
C     0.4772620    1.8176700   -0.0785550  
C     1.7868320    1.3739680   -0.0723970  
C     1.7303300   -0.0450280   -0.0875470  
C     0.2656910   -0.3592260   -0.0816450  
N    -0.4556290    0.7205770   -0.0848090  
C    -0.2351620   -1.7379820   -0.0972530  
C     0.7395510   -2.6846530   -0.2668530  
O     0.4923380   -4.0026800   -0.3704140  
C     2.2075020   -2.3784330   -0.3517840  
O     2.9265340   -3.3807590   -0.5584820  
C     2.7086890   -1.0215610   -0.1691670  
H     2.6828120    1.9750220   -0.0990820  
H     1.3836290   -4.4121810   -0.4999080  
C    -1.6446640   -2.0476310    0.0422620  
C    -2.6917300   -1.2138510    0.3697370  
C    -3.8908310   -2.0023590    0.4160650  
C    -3.4863340   -3.3921810    0.0884860  
N    -2.1292500   -3.3514890   -0.1301950  
C    -4.3416710   -4.4459240    0.0344510  
C    -5.7539970   -4.2097850    0.3130710  
O    -6.5969330   -5.0945180    0.2892150  
C    -6.2064160   -2.7433610    0.6609750  
O    -7.3858620   -2.5276790    0.8979060  
C    -5.1901770   -1.6902650    0.6868240  
H    -2.6012090   -0.1599360    0.5696640  
H    -4.0280900   -5.4570100   -0.2064040  
H    -5.5137800   -0.6812350    0.9240700  
H    -1.5363720   -4.1432920   -0.3279910  
C     0.6738800    4.3334490    0.0526900  
C    -0.0254720    3.1466580   -0.0920970  
C    -1.4271410    3.5867850   -0.2665060  
C    -1.3525890    5.0692050   -0.1889340  
N    -0.1120040    5.4791850   -0.0025950  
C    -2.5089370    5.8992440   -0.3159670  
C    -3.7039840    5.2847180   -0.5230830  
O    -4.8656640    5.9315620   -0.6600020  
C    -3.8141660    3.7854290   -0.6216580  
O    -4.9298230    3.3076700   -0.8103170  
C    -2.5955190    2.9567290   -0.4890650  
H    -2.4173590    6.9776190   -0.2510820  
H    -5.5455120    5.2342020   -0.7973300  
H    -2.6935850    1.8815500   -0.5781720  
H     1.7407070    4.4392290    0.2133040  
