60


C    -2.8840420   -2.2368780    2.6814490  
C    -3.5233670   -3.3188910    2.1405110  
C    -4.3196590   -2.8332090    1.0481360  
C    -4.1255650   -1.4287780    0.9848570  
N    -3.2732570   -1.0847850    2.0162420  
C    -4.7677330   -0.6028060    0.0352930  
C    -5.5806200   -1.2585080   -0.8958640  
O    -6.1849790   -0.5516460   -1.8932160  
C    -5.7814840   -2.6611870   -0.8406510  
O    -6.6287550   -3.1370800   -1.8269260  
C    -5.1795040   -3.4491810    0.1196570  
H    -3.4427990   -4.3430710    2.4778080  
H    -2.7427130   -0.2257500    2.0124090  
H    -6.6962160   -1.1900070   -2.4208010  
H    -6.6383620   -4.1051050   -1.8028360  
H    -5.3573990   -4.5224050    0.1456430  
H    -2.1852190   -2.1807760    3.5043920  
C    -1.2469840    2.0235260   -0.0597220  
C    -1.8109320    3.2759660   -0.1564840  
C    -3.2209410    3.0443050   -0.1338640  
C    -3.3615790    1.5447040   -0.0275190  
N    -2.1840280    0.9701400    0.0289360  
C    -4.6376750    0.8730500    0.0111990  
C    -5.7223970    1.7108340    0.0088570  
O    -6.9784740    1.2931450    0.1049260  
C    -5.6181400    3.2264320   -0.0983030  
O    -6.6865520    3.8431060   -0.0964750  
C    -4.3123520    3.8526840   -0.1786980  
H    -1.3246310    4.2347630   -0.2538980  
H    -7.5233740    2.1160380    0.0639230  
H    -4.2685640    4.9340070   -0.2541960  
C     1.1053610    2.6749930    0.0544540  
C     2.3364200    2.1135410    0.0651750  
C     2.1730160    0.6813190   -0.0098380  
C     0.7165690    0.4344250   -0.0927610  
N     0.0948830    1.7066860   -0.0212340  
C     0.1619420   -0.7898100   -0.2645490  
C     1.0616800   -1.9437570   -0.3623750  
O     0.6568170   -3.0686610   -0.6006870  
C     2.5933020   -1.7273090   -0.1365450  
O     3.3031320   -2.7024690    0.0143890  
C     3.1014700   -0.3315230   -0.0454230  
H     3.2741780    2.6457050    0.1077690  
H    -0.9038130   -0.9476710   -0.3569020  
H     0.8339340    3.7187510    0.1045840  
C     4.5361410   -0.1039500    0.0396770  
C     5.2136000    0.7854530    0.8296730  
C     6.6153160    0.5967310    0.5201380  
C     6.6149670   -0.4713490   -0.5310860  
N     5.4127950   -0.8801400   -0.8045690  
C     7.8408400   -0.9382970   -1.1289860  
C     9.0009610   -0.3943460   -0.6931040  
O    10.2144770   -0.7357200   -1.1509650  
C     9.0323490    0.6728840    0.3750780  
O    10.1341700    1.1108760    0.7048430  
C     7.7694050    1.1449410    0.9618150  
H     4.8068230    1.4391510    1.5885240  
H     7.8130970   -1.7086170   -1.8914050  
H    10.8483730   -0.1770240   -0.6482610  
H     7.8330540    1.9202410    1.7193280  
