60


C     5.6498110   -2.5019170   -2.4921080  
C     4.8958800   -1.4748440   -1.9822570  
C     5.6028200   -0.9458510   -0.8434880  
C     6.7993010   -1.7023920   -0.7263310  
N     6.7909290   -2.6495800   -1.7309190  
C     7.7777430   -1.4430000    0.2392140  
C     7.5478870   -0.3735590    1.0881770  
O     8.4631530   -0.0420960    2.0370720  
C     6.3595200    0.4045800    1.0012830  
O     6.2910710    1.4034080    1.9409020  
C     5.3519960    0.1219870    0.0732150  
H     3.9659400   -1.1157560   -2.3991450  
H     7.5366020   -3.3016590   -1.9172600  
H     8.6956230   -2.0160360    0.3213620  
H     8.1060260    0.7550320    2.4751440  
H     5.9221670    2.2005860    1.4886250  
H     5.4696060   -3.1401040   -3.3455960  
C     1.2758430   -1.4109700   -0.0033010  
C     0.5400490   -0.2597590   -0.1343920  
C     1.5087960    0.8397690   -0.1200240  
C     2.8502490    0.2120680   -0.0104310  
N     2.6250770   -1.1425610    0.0597430  
C     4.0649710    0.8589180    0.0422870  
C     3.9757420    2.3154320    0.1220670  
O     4.9350980    3.0511460    0.3630900  
C     2.5823450    3.0174660   -0.0588280  
O     2.5552260    4.2365680   -0.1098700  
C     1.3806070    2.1923540   -0.1324020  
H     0.4305040    2.6970580   -0.2400440  
H     0.9147480   -2.4247710    0.0741230  
H     3.3638820   -1.8317180    0.0472450  
C    -2.3933680   -2.9064500    1.7058350  
C    -3.5727190   -2.3466160    1.3413160  
C    -3.2106410   -1.1850890    0.5369980  
C    -1.7191160   -1.2014490    0.5238220  
N    -1.2553450   -2.2091740    1.2122970  
C    -0.9201850   -0.2085590   -0.1940330  
C    -1.6440720    0.7050860   -0.9091740  
O    -1.0857620    1.6546170   -1.6846810  
C    -3.1349380    0.7783640   -0.8800590  
O    -3.6623770    1.7335210   -1.4443900  
C    -3.9323520   -0.2558190   -0.1419250  
H    -4.5714690   -2.7012150    1.5534610  
H    -1.8401460    2.1865690   -2.0248770  
H    -2.2343080   -3.7997700    2.2982070  
C    -6.9499790   -0.0469570    3.0820250  
C    -8.0690890    0.0901360    2.3284500  
C    -7.6582220    0.0588860    0.9396160  
C    -6.1832930   -0.1120900    0.9482230  
N    -5.8199950   -0.1661890    2.2740610  
C    -5.3939750   -0.1493450   -0.1724400  
C    -6.0879050   -0.1041000   -1.4783580  
O    -5.5103540   -0.2905890   -2.5343450  
C    -7.6399500    0.1246510   -1.4994530  
O    -8.2003260    0.2465920   -2.5759070  
C    -8.3538580    0.1728350   -0.2224810  
H    -9.0796960    0.2071120    2.6910860  
H    -9.4295410    0.3174030   -0.2505420  
H    -6.8416290   -0.0697960    4.1581800  
H    -4.8781940   -0.3183270    2.6025190  
