64


C    -0.3938900   -3.3108020    0.1669320  
C    -1.0884630   -4.4990550   -0.0023300  
C    -2.4689980   -4.1800030   -0.1184570  
C    -2.5827940   -2.7641720   -0.0124070  
N    -1.3081710   -2.2536740    0.1291930  
C    -3.8101630   -2.0942190   -0.0761020  
C    -4.9426260   -2.8728430   -0.2534780  
O    -6.1649400   -2.2824980   -0.3303480  
C    -4.8505430   -4.2929470   -0.3689000  
O    -6.0715030   -4.9083270   -0.5459820  
C    -3.6398280   -4.9481560   -0.3111170  
H    -0.6367650   -5.4781440   -0.0857030  
H    -1.1148010   -1.3348300    0.5040960  
H    -3.9012000   -1.0133040   -0.0308950  
H    -6.8220200   -2.9874030   -0.4668350  
H    -5.9469600   -5.8646510   -0.6382050  
H    -3.5890900   -6.0306030   -0.4053490  
C     1.0145890   -3.0766520    0.2846940  
C     2.0517780   -3.9266710    0.5954280  
C     3.2718980   -3.1742200    0.5589790  
C     2.8902130   -1.7843390    0.2102960  
N     1.5217540   -1.7827110    0.0919440  
C     3.7447230   -0.7234570    0.0268460  
C     5.1639300   -1.0679520    0.0847510  
O     6.0637070   -0.3082390   -0.2828690  
C     5.6005340   -2.4837770    0.6136050  
O     6.7905060   -2.6717090    0.8260960  
C     4.5784550   -3.5009430    0.7873050  
H     1.9555940   -4.9703240    0.8570970  
H     4.8944480   -4.4927370    1.0940960  
H     1.0231480   -1.0306060   -0.3609040  
C     0.5785300    1.7347950    2.0323540  
C     1.5096100    0.7834630    1.7221140  
C     2.1787620    1.1998000    0.5125110  
C     1.6076500    2.4360740    0.1285960  
N     0.6388490    2.7498090    1.0808370  
C     2.0388090    3.1769630   -0.9742590  
C     3.1095950    2.6566780   -1.6841410  
O     3.6132270    3.3271190   -2.7525850  
C     3.7104350    1.4148550   -1.3289100  
O     4.7400520    1.0464430   -2.1534640  
C     3.2365590    0.6402020   -0.2664690  
H     1.7330340   -0.0912460    2.3152820  
H     1.5952960    4.1246760   -1.2577650  
H     4.3767510    2.7995220   -3.0580920  
H     5.4251490    0.6083540   -1.5879140  
H    -0.1181670    1.8141830    2.8541140  
C    -0.1543400    5.0537830    1.4203140  
C    -1.3370280    5.7154090    1.2406650  
C    -2.2751780    4.7836050    0.6700250  
C    -1.5949470    3.5531670    0.5086040  
N    -0.2963200    3.7453820    0.9622770  
C    -2.2014040    2.3998620    0.0054420  
C    -3.5392440    2.4887340   -0.3425850  
O    -4.1866600    1.3842550   -0.8220660  
C    -4.2446030    3.7126630   -0.2009620  
O    -5.5668330    3.6406740   -0.5938780  
C    -3.6315780    4.8510640    0.2929760  
H    -1.5229030    6.7521570    1.4856540  
H    -1.6653640    1.4658560   -0.1190180  
H    -5.1114650    1.6337670   -0.9928460  
H    -5.9909460    4.5021780   -0.4671240  
H    -4.1941690    5.7769920    0.3951300  
H     0.7945330    5.3773450    1.8222880  
