64


C     0.8141150    1.3091110   -0.4999240  
C     1.6671680    0.2999530   -0.1260990  
C     2.9682460    0.6477660   -0.6321060  
C     2.8389770    1.8972580   -1.2936480  
N     1.5134500    2.2816280   -1.1980550  
C     3.9206600    2.5638030   -1.8769380  
C     5.1597340    1.9486380   -1.7889660  
O     6.2512670    2.5426720   -2.3440600  
C     5.3146530    0.6965630   -1.1344670  
O     6.6048580    0.2221190   -1.1671310  
C     4.2430490    0.0212990   -0.5500560  
H     1.4079460   -0.5561380    0.4798220  
H     1.0902860    3.0634120   -1.6749360  
H     3.8273130    3.5221460   -2.3766430  
H     7.0133370    1.9652070   -2.1590870  
H     6.6873380   -0.5366450   -0.5624390  
C    -1.4791780    0.3776930   -0.4832440  
C    -2.7510860    0.7398000   -0.1512210  
C    -2.6785160    2.1310900    0.2928230  
C    -1.2519060    2.5274970    0.2075650  
N    -0.5674940    1.4267790   -0.3045220  
C    -0.7713370    3.7410700    0.5816770  
C    -1.7146810    4.7449560    1.0688810  
O    -1.3701520    5.8579920    1.4351040  
C    -3.2375850    4.3670630    1.1106070  
O    -4.0482430    5.1995260    1.4833580  
C    -3.6272050    3.0120890    0.7033830  
H     0.2803910    4.0030430    0.5473440  
H    -4.6836270    2.7661320    0.7358550  
H    -1.1151160   -0.5714830   -0.8510390  
C    -3.9376350   -0.0905530   -0.2631070  
C    -4.2497560   -1.0729960   -1.1804240  
C    -5.5266540   -1.6122220   -0.8242500  
C    -5.9625330   -0.9147300    0.3335050  
N    -4.9947560    0.0227410    0.6384620  
C    -7.1780330   -1.1907130    0.9706190  
C    -7.9731770   -2.1867120    0.4252870  
O    -9.1663670   -2.4993770    1.0077000  
C    -7.5599660   -2.8873400   -0.7407160  
O    -8.4640630   -3.8435950   -1.1631510  
C    -6.3595060   -2.6126210   -1.3671020  
H    -3.6492850   -1.3391340   -2.0399720  
H    -4.9417030    0.5292440    1.5092260  
H    -7.5139130   -0.6614400    1.8564180  
H    -9.5691170   -3.2083170    0.4772110  
H    -8.1261610   -4.2787190   -1.9596970  
H    -6.0641560   -3.1638550   -2.2577350  
C     6.9508150   -1.4298620    2.7568730  
C     6.2762800   -0.6501990    1.8518320  
C     5.3842960   -1.5188030    1.1268350  
C     5.5668980   -2.8260310    1.6519310  
N     6.5273230   -2.7389660    2.6390680  
C     4.8426960   -3.9350040    1.1990350  
C     3.9158780   -3.7164890    0.1931870  
O     3.1847240   -4.7595660   -0.2948260  
C     3.7206150   -2.4202750   -0.3532470  
O     2.7853940   -2.3874190   -1.3656280  
C     4.4358470   -1.3076010    0.0876640  
H     6.3782820    0.4198160    1.7376480  
H     6.8598510   -3.5111850    3.1951620  
H     4.9784910   -4.9346040    1.5988220  
H     2.6166140   -4.4034540   -1.0000540  
H     2.6880060   -1.4711360   -1.6763410  
H     7.6991720   -1.1579740    3.4876970  
