62


C    -5.1077270    1.4273260    1.5753200  
C    -6.3220230    0.8237390    1.4222220  
C    -6.1124950   -0.4044450    0.6998620  
C    -4.7275740   -0.5059010    0.4275500  
N    -4.1307560    0.6275140    0.9752830  
C    -4.1552790   -1.5796140   -0.2597180  
C    -5.0122820   -2.5833610   -0.6865570  
O    -4.5150420   -3.6586450   -1.3613340  
C    -6.4069780   -2.5049710   -0.4268110  
O    -7.1229050   -3.5813250   -0.9128850  
C    -6.9611660   -1.4371520    0.2549630  
H    -7.2668350    1.2085420    1.7810550  
H    -3.0939270   -1.6456980   -0.4718250  
H    -5.2701660   -4.2242640   -1.5991060  
H    -8.0696000   -3.4341520   -0.7703160  
H    -8.0321760   -1.3992340    0.4432970  
H    -4.8220380    2.3564580    2.0465090  
C    -1.8626110    0.5270140    1.9025320  
C    -0.6404240    1.0351760    1.6146820  
C    -0.7620410    1.8168490    0.3958510  
C    -2.1802090    1.7327890   -0.0146690  
N    -2.7959100    0.9146020    0.9316950  
C    -2.7341290    2.3636620   -1.0779950  
C    -1.8624950    3.1949940   -1.9004170  
O    -2.2586080    3.8354060   -2.8610130  
C    -0.3346020    3.2545620   -1.5361430  
O     0.4241070    3.8275550   -2.2952450  
C     0.1458320    2.5545380   -0.3122220  
H     0.2604540    0.8998320    2.1938280  
H    -3.7865230    2.2923890   -1.3300620  
H    -2.1945380   -0.0925650    2.7244630  
C     3.4316240   -0.4452930    0.1339460  
C     2.2363890    0.1951460   -0.0581880  
C     2.4244910    1.6069160    0.1385760  
C     3.8530900    1.7833750    0.4683320  
N     4.4519050    0.5171530    0.3853540  
C     4.4400970    2.9645260    0.7648150  
C     3.6149810    4.1720960    0.7266590  
O     4.0598330    5.2840130    0.9581140  
C     2.0945850    4.0205470    0.3684640  
O     1.3829550    5.0088210    0.4269270  
C     1.5682880    2.6755560    0.0473240  
H     1.3229250   -0.2786240   -0.3824280  
H     5.4957760    3.0696600    0.9960410  
H     5.1876620    0.2850470    1.0452650  
C     1.0861690   -4.1777080    0.9804760  
C     1.4747410   -2.8670930    0.8518040  
C     2.8185940   -2.8713780    0.3513130  
C     3.1971320   -4.2316690    0.2060860  
N     2.1203310   -5.0021190    0.5920640  
C     4.4609270   -4.6311850   -0.2405950  
C     5.3747540   -3.6365440   -0.5514120  
O     6.6126690   -3.9742930   -1.0083430  
C     5.0349770   -2.2679350   -0.4132780  
O     6.0491250   -1.4160830   -0.7893200  
C     3.7689260   -1.8549290    0.0357160  
H     0.8696990   -2.0080250    1.1002710  
H     2.0949040   -6.0098210    0.5881050  
H     4.7422670   -5.6725230   -0.3596750  
H     7.0764690   -3.1456280   -1.2223320  
H     5.7007870   -0.5089500   -0.8775420  
H     0.1474430   -4.5938780    1.3175250  
