62


C    -4.4455820    0.0383990    2.5603020  
C    -5.4643930   -0.8250090    2.8381820  
C    -5.6024330   -1.7178720    1.7161320  
C    -4.6279870   -1.3519680    0.7585110  
N    -3.9292170   -0.2720270    1.2976180  
C    -4.4663150   -2.0071120   -0.4648250  
C    -5.3196290   -3.0687530   -0.7284140  
O    -5.2111650   -3.7476670   -1.9037200  
C    -6.3077660   -3.4566030    0.2167610  
O    -7.0739920   -4.5280230   -0.1932090  
C    -6.4572830   -2.7989750    1.4239340  
H    -6.0574260   -0.8289110    3.7424590  
H    -3.7220260   -1.7171320   -1.1981690  
H    -5.8970970   -4.4378070   -1.9059120  
H    -7.7459240   -4.7262000    0.4757880  
H    -7.2207370   -3.1134220    2.1324170  
H    -4.0226950    0.8565600    3.1247260  
C    -1.5486500    0.0059470    0.8073750  
C    -0.7643670    0.8356900    0.0688760  
C    -1.6315540    1.8208080   -0.5679080  
C    -3.0073870    1.4929420   -0.1351850  
N    -2.8895200    0.3761800    0.6943510  
C    -4.1180830    2.1727670   -0.5027470  
C    -3.9540120    3.3156080   -1.4040070  
O    -4.8905020    3.9944710   -1.7910870  
C    -2.5017240    3.6744930   -1.8915670  
O    -2.3477110    4.6131330   -2.6544950  
C    -1.3807460    2.8577160   -1.4063300  
H    -5.1150220    1.9086020   -0.1671500  
H    -0.3801860    3.1170040   -1.7368210  
H    -1.2778420   -0.8428370    1.4202530  
C     1.2873280   -0.3287080   -0.7008750  
C     2.6397730   -0.0971580   -0.6797470  
C     2.8595780    1.1655650   -0.0213570  
C     1.5833810    1.6559160    0.3394850  
N     0.6297280    0.7330170   -0.0947600  
C     1.4069080    2.8641520    1.0246830  
C     2.5449260    3.5908390    1.3381140  
O     2.4310950    4.7700870    2.0070820  
C     3.8351990    3.1154140    0.9720860  
O     4.8602930    3.9540030    1.3506280  
C     4.0048370    1.9198870    0.3003230  
H     0.4322500    3.2401760    1.3138980  
H     3.3297590    5.1184440    2.1412480  
H     5.7144240    3.5459890    1.1436360  
H     4.9985420    1.5679670    0.0354020  
H     0.7283880   -1.1573400   -1.1106810  
C     3.7340890   -1.2488590   -2.6092620  
C     4.7740180   -2.0862140   -2.8499890  
C     5.4116740   -2.3543290   -1.5791470  
C     4.6377530   -1.5964790   -0.5634440  
N     3.6233550   -0.9352440   -1.2497090  
C     4.9108170   -1.5974030    0.7664580  
C     6.0497550   -2.3799790    1.2391180  
O     6.3768900   -2.4354660    2.4153020  
C     6.8908300   -3.1831120    0.1791310  
O     7.8488870   -3.8389480    0.5586410  
C     6.4855870   -3.1099540   -1.2263090  
H     5.0756210   -2.4747480   -3.8118930  
H     4.3253160   -1.0436970    1.4922570  
H     7.0676000   -3.6747110   -1.9484480  
H     3.0250370   -0.8100910   -3.2987960  
