62


C     2.5455530    2.6508630   -0.1548070  
C     2.3804080    3.8916400    0.4078780  
C     0.9982270    3.9962960    0.7837540  
C     0.3749690    2.7709410    0.4377730  
N     1.3453290    1.9546180   -0.1187240  
C    -0.9928440    2.5044200    0.6494520  
C    -1.7319550    3.5354840    1.2364540  
O    -3.0608390    3.3544190    1.4936280  
C    -1.1226490    4.7641690    1.5945250  
O    -1.9966560    5.6635820    2.1756320  
C     0.2224980    5.0059310    1.3835660  
H     3.1618640    4.6208710    0.5677180  
H     1.1558840    1.1291940   -0.6692390  
H    -3.3947490    4.1848940    1.8759590  
H    -1.5378380    6.4994040    2.3454040  
H     0.6641490    5.9577310    1.6709410  
C    -1.1280640   -0.0182190    0.6293540  
C    -1.5949910    1.2115590    0.2766310  
C    -2.7530350    0.9763050   -0.5837810  
C    -2.9066140   -0.4923290   -0.6963000  
N    -1.8787500   -1.0579640    0.0660470  
C    -3.9039900   -1.1033470   -1.3800920  
C    -4.8747450   -0.2696770   -2.0871120  
O    -5.8117720   -0.7333830   -2.7186240  
C    -4.6998230    1.2892270   -2.0199600  
O    -5.4890060    2.0022370   -2.6198110  
C    -3.5950220    1.8276030   -1.2209410  
H    -4.0110760   -2.1791200   -1.4513880  
H    -3.5044260    2.9046180   -1.1411310  
H    -0.2836500   -0.2671730    1.2583220  
C    -1.3553430   -3.3838440    3.7388810  
C    -1.6292870   -2.3925600    2.8484740  
C    -1.4760010   -2.9543680    1.5257840  
C    -1.0854210   -4.3703000    1.7162870  
N    -1.0233090   -4.5611580    3.0837130  
C    -0.8702580   -5.2645190    0.7164690  
C    -1.0168910   -4.8068830   -0.6566770  
O    -0.8984320   -5.5351920   -1.6291440  
C    -1.3470410   -3.2876820   -0.9056830  
O    -1.3373170   -2.8602560   -2.0452920  
C    -1.6215750   -2.4268390    0.2695040  
H    -1.9264060   -1.3830500    3.0891490  
H    -0.6032470   -6.3020910    0.8892830  
H    -1.3746120   -3.3557730    4.8202270  
H    -0.7973230   -5.4353800    3.5314990  
C     4.5453210    2.7234320   -1.6082710  
C     5.5497190    1.8776740   -1.9832650  
C     5.3208610    0.6222430   -1.3221710  
C     4.1480610    0.7699950   -0.5398960  
N     3.6764290    2.0701720   -0.7330830  
C     3.6488310   -0.2578020    0.2705890  
C     4.3320180   -1.4644030    0.2687640  
O     3.8814030   -2.5017870    1.0362340  
C     5.4979140   -1.6357950   -0.5212700  
O     6.0641170   -2.8921260   -0.4154920  
C     5.9981650   -0.6121670   -1.3051360  
H     6.3554190    2.1149000   -2.6644250  
H     2.7719140   -0.1399910    0.8965640  
H     4.4831010   -3.2505920    0.8821230  
H     6.8137550   -2.9620530   -1.0247810  
H     6.9014040   -0.7606220   -1.8936620  
H     4.3339820    3.7423240   -1.8979490  
