64


C     2.8112870   -1.0189510    0.0262870  
C     3.5457830   -0.0636690    0.6911960  
C     4.9300740   -0.2507540    0.3598280  
C     4.9968690   -1.3513030   -0.5287280  
N     3.7058930   -1.8531180   -0.6772440  
C     6.1960130   -1.8028970   -1.0856070  
C     7.3594430   -1.1350060   -0.7283270  
O     8.5567600   -1.5330630   -1.2462850  
C     7.3157150   -0.0441140    0.1786920  
O     8.5536740    0.5079690    0.4455430  
C     6.1246440    0.4004260    0.7249390  
H     3.1409850    0.6503100    1.3949690  
H     3.4137510   -2.3283110   -1.5225780  
H     6.2500970   -2.6434290   -1.7699430  
H     9.2413520   -0.9525970   -0.8712900  
H     8.4550900    1.2363710    1.0761680  
H     6.1170550    1.2410070    1.4161780  
C    -0.8147860    1.6666870    0.1020950  
C     0.4884780    1.1622190    0.0691440  
C     0.4045120   -0.2572930    0.0740580  
C    -0.9792340   -0.5887350    0.1041320  
N    -1.6847570    0.5892440    0.1262260  
C    -1.4714940   -1.9100430    0.1037540  
C    -0.4995250   -2.9105230    0.0544690  
O    -0.8719080   -4.2154160    0.0289790  
C     0.8884430   -2.6044760    0.0193060  
O     1.6922060   -3.7282610   -0.0160660  
C     1.3760500   -1.2977650    0.0290240  
H     1.3933870    1.7360230   -0.0644320  
H    -2.6904640    0.7061590    0.0915460  
H    -0.0553200   -4.7443760    0.0688760  
H     2.6097380   -3.4680020    0.1843470  
C     1.1696740    5.4537660    1.1203330  
C     0.1739290    6.3194590    0.7962600  
C    -0.9517950    5.5327370    0.3411580  
C    -0.5199580    4.1258470    0.4094190  
N     0.7916120    4.1425800    0.8513290  
C    -1.2961950    3.0329230    0.0933510  
C    -2.7046780    3.3435170   -0.2429950  
O    -3.5636940    2.4829540   -0.3851080  
C    -3.1490780    4.8458890   -0.4242410  
O    -4.2834950    5.0565970   -0.8296680  
C    -2.2001980    5.8885340   -0.0842910  
H     0.2097260    7.3969370    0.8664550  
H    -2.5196830    6.9218270   -0.1728040  
H     2.1565790    5.6569030    1.5147880  
H     1.2435150    3.3235620    1.2321190  
C    -4.7022250   -0.9016900   -2.7399470  
C    -5.7429810   -1.4758830   -2.0589040  
C    -5.1987450   -2.0490870   -0.8603940  
C    -3.8038550   -1.7866980   -0.8709300  
N    -3.5304670   -1.0868280   -2.0290380  
C    -2.9234010   -2.2120400    0.1465920  
C    -3.5014700   -2.9161170    1.2037980  
O    -2.7300840   -3.3321120    2.2489010  
C    -4.8939220   -3.1884510    1.2272720  
O    -5.3011320   -3.8949270    2.3471970  
C    -5.7421510   -2.7695220    0.2206390  
H    -6.7786530   -1.4838030   -2.3696910  
H    -2.6147050   -0.7774580   -2.3142040  
H    -3.3178450   -3.8075510    2.8610830  
H    -6.2600840   -4.0244400    2.3116760  
H    -6.8064360   -2.9926220    0.2675460  
H    -4.6940050   -0.3615260   -3.6759740  
