62


C    -1.6838920   -2.4745360    1.3052330  
C    -0.7328170   -1.5039440    1.1026400  
C    -1.3970810   -0.3665250    0.5181520  
C    -2.7673730   -0.7162040    0.4069310  
N    -2.9076990   -2.0047590    0.8830910  
C    -3.7674430    0.1439830   -0.0885000  
C    -3.3299100    1.4173470   -0.4502050  
O    -4.2151370    2.3434570   -0.8931100  
C    -1.9624310    1.8006050   -0.3523770  
O    -1.7276400    3.0852870   -0.7772910  
C    -0.9650490    0.9255250    0.0886660  
H     0.3076090   -1.5792600    1.3851500  
H    -3.7826090   -2.5060290    0.9154770  
H    -3.6891880    3.1524450   -1.0480470  
H    -1.0798670    3.4855350   -0.1487400  
H    -1.5890110   -3.4632070    1.7316270  
C     2.4645590   -1.2891220   -1.4752550  
C     3.4994820   -0.4792270   -1.1069530  
C     2.8953460    0.6738680   -0.4423860  
C     1.4314490    0.4460550   -0.4548520  
N     1.2405030   -0.7436440   -1.1209460  
C     0.4736060    1.2800650    0.0783520  
C     0.9872470    2.5522720    0.5878290  
O     0.2684950    3.4918580    0.9324350  
C     2.5406290    2.7911010    0.6823370  
O     2.9339320    3.8128830    1.2196350  
C     3.4359820    1.7964070    0.0994940  
H     4.5033950    1.9842660    0.1392790  
H     2.5038310   -2.2439840   -1.9830840  
H     0.3554730   -1.2320700   -1.1356970  
C     5.4742510   -0.9645150   -2.6015240  
C     4.9190260   -0.7002360   -1.3833750  
C     6.0164130   -0.7334670   -0.4173120  
C     7.2463140   -1.0366840   -1.1904420  
N     6.8424010   -1.1812970   -2.5041860  
C     8.4872870   -1.1439490   -0.6522100  
C     8.6356260   -0.9698740    0.7901690  
O     9.7107350   -1.0472880    1.3640630  
C     7.3412320   -0.6802840    1.6350030  
O     7.4386160   -0.5573310    2.8449330  
C     6.0574650   -0.5724730    0.9305870  
H     9.3755130   -1.3619290   -1.2373260  
H     5.1736670   -0.3654520    1.5253360  
H     4.9861500   -1.0110760   -3.5663290  
H     7.4639080   -1.3269310   -3.2843000  
C    -6.5698630   -1.0162700    3.1157520  
C    -7.6590240   -1.2917320    2.3311470  
C    -7.2716200   -1.0508030    0.9689080  
C    -5.9165620   -0.6314710    0.9920880  
N    -5.5084220   -0.6364120    2.3127170  
C    -5.1882770   -0.2754940   -0.1633110  
C    -5.8792010   -0.3594650   -1.3725400  
O    -5.2435930   -0.0635870   -2.5407010  
C    -7.2349170   -0.7801150   -1.4136310  
O    -7.7630330   -0.8194470   -2.6928940  
C    -7.9325670   -1.1278580   -0.2728210  
H    -8.6257940   -1.6270780    2.6811190  
H    -4.6292910   -0.2644740    2.6388130  
H    -5.9094720   -0.1195050   -3.2478710  
H    -8.7155360   -0.9866710   -2.6416510  
H    -8.9703740   -1.4491100   -0.3376870  
H    -6.4522010   -1.0672230    4.1890750  
