62


C    -7.6688510   -1.1407500    1.1796360  
C    -7.5059910   -2.4735950    0.9150300  
C    -6.1789910   -2.6381700    0.3930330  
C    -5.5847080   -1.3502330    0.3488900  
N    -6.5203930   -0.4565010    0.8205720  
C    -4.2537160   -1.1247560   -0.0854780  
C    -3.5289100   -2.2745570   -0.4377990  
O    -2.2263470   -2.1689550   -0.8437100  
C    -4.1171190   -3.5611030   -0.4095370  
O    -3.2607660   -4.5645130   -0.8209950  
C    -5.4262200   -3.7557450   -0.0124790  
H    -8.2400780   -3.2508230    1.0754630  
H    -6.3171680    0.5035760    1.0541240  
H    -1.8963930   -3.0724290   -0.9990940  
H    -3.6670040   -5.4292100   -0.6619420  
H    -5.8563400   -4.7549030   -0.0008350  
H    -8.5151790   -0.6073900    1.5885360  
C    -3.6828280    0.2147610   -0.1517070  
C    -4.3162590    1.4324670   -0.2869180  
C    -3.3143620    2.4641020   -0.2846810  
C    -2.0146010    1.7688610   -0.1385590  
N    -2.3072960    0.4234150   -0.0620350  
C    -0.7919540    2.3765010   -0.0871380  
C    -0.7846990    3.8507130   -0.2196130  
O     0.2424240    4.5023750   -0.2870250  
C    -2.1603060    4.6092880   -0.3277250  
O    -2.1485690    5.8316330   -0.3749420  
C    -3.3857600    3.8230670   -0.3758680  
H    -5.3693840    1.5876670   -0.4686260  
H    -4.3271110    4.3563700   -0.4684680  
H    -1.6313080   -0.3245560   -0.0059120  
C     1.0003770   -0.7826160   -2.6105680  
C     2.1470230   -0.9778810   -1.8847700  
C     2.1138430   -0.0647450   -0.7746800  
C     0.8945390    0.6547220   -0.8782540  
N     0.2427170    0.2016850   -2.0083050  
C     0.4771200    1.6323420    0.0478370  
C     1.3381270    1.8400640    1.1276070  
O     0.9952390    2.7129540    2.1057360  
C     2.5574730    1.1259970    1.2668310  
O     3.2708900    1.4765180    2.3893440  
C     2.9953520    0.1984500    0.3161880  
H     2.9240090   -1.6913790   -2.1161010  
H    -0.6366270    0.5577210   -2.3485810  
H     1.7287440    2.6860240    2.7507030  
H     3.6040850    0.6395620    2.7878230  
H     0.6544500   -1.2664990   -3.5130350  
C     6.3156450   -0.2567530   -2.5892410  
C     5.1826860    0.1141720   -1.9381240  
C     5.1915520   -0.5338750   -0.6457520  
C     6.4471200   -1.3237750   -0.5959850  
N     7.0681420   -1.1340460   -1.8132770  
C     6.8510080   -2.0843440    0.4553910  
C     6.0062700   -2.0956990    1.6337460  
O     6.2289620   -2.7700520    2.6276320  
C     4.7409200   -1.1574490    1.6462570  
O     4.1797010   -1.0137750    2.7312700  
C     4.3044440   -0.4863260    0.4086510  
H     4.4174380    0.7773970   -2.3088270  
H     7.7500580   -2.6920480    0.4507450  
H     6.6703130    0.0338050   -3.5692120  
H     7.9837080   -1.4830520   -2.0492530  
