64


C     0.4267590   -1.8676510   -1.6349420  
C     1.4356530   -2.2659900   -0.7826010  
C     0.9565200   -3.4715570   -0.1320800  
C    -0.3390770   -3.7423810   -0.6435440  
N    -0.6390710   -2.7402600   -1.5460500  
C    -1.1081260   -4.8344000   -0.2225430  
C    -0.5613350   -5.6689170    0.7396050  
O    -1.2648800   -6.7503190    1.1819280  
C     0.7269990   -5.4050230    1.2778000  
O     1.1270320   -6.3172530    2.2349500  
C     1.4837820   -4.3259650    0.8613580  
H    -1.4641840   -2.7074070   -2.1248660  
H    -2.1000200   -5.0416640   -0.6112550  
H    -0.7225690   -7.1886220    1.8603290  
H     1.9922180   -6.0593770    2.5863170  
H     2.4622280   -4.1382890    1.2964980  
H     0.4003840   -1.0278120   -2.3144970  
C     2.4971160    2.0458970   -0.0166120  
C     1.8341430    0.8423240   -0.2375120  
C     2.8115480   -0.1774430   -0.3697510  
C     4.0841900    0.4446990   -0.2136760  
N     3.8654040    1.7831150   -0.0063140  
C     5.2849370   -0.2727710   -0.2637020  
C     5.1913590   -1.6388230   -0.4793990  
O     6.3244710   -2.3931540   -0.5560480  
C     3.9300410   -2.2778140   -0.6391760  
O     4.0295450   -3.6376740   -0.8711010  
C     2.7275510   -1.5819300   -0.5892280  
H     0.7650860    0.7355270   -0.2841480  
H     4.5651490    2.4988830    0.1235170  
H     6.2588270    0.1910500   -0.1486060  
H     6.0443950   -3.3037700   -0.7560690  
H     3.1492350   -3.9831280   -1.0961580  
C    -1.6660110    3.4818410    0.1908980  
C    -1.4663230    4.8302170    0.3400450  
C    -0.0433630    5.0145220    0.3651310  
C     0.5232040    3.6320630    0.2052350  
N    -0.4255810    2.7514410    0.1114070  
C     1.9697930    3.3807540    0.1703830  
C     2.7468580    4.5010780    0.3263700  
O     4.1033790    4.4722570    0.3311510  
C     2.2110040    5.8771990    0.4963080  
O     3.0417270    6.7919590    0.6192760  
C     0.7686960    6.0924110    0.5065490  
H    -2.2151320    5.6041230    0.4337070  
H     4.3565490    5.4193880    0.4554080  
H     0.4123670    7.1100810    0.6307110  
C    -2.8578620    2.6993890    0.1042400  
C    -4.2095510    3.0396790    0.0878750  
C    -4.9502000    1.8355410   -0.0202640  
C    -4.0036250    0.7629690   -0.0645910  
N    -2.7568580    1.3168870    0.0072970  
C    -4.3893200   -0.5801140   -0.1690180  
C    -5.7454490   -0.8492880   -0.2351490  
O    -6.1789230   -2.1336900   -0.3424270  
C    -6.7065980    0.2079870   -0.1949360  
O    -8.0100120   -0.2371300   -0.2723120  
C    -6.3299750    1.5283510   -0.0893560  
H    -4.6037530    4.0452780    0.1402500  
H    -1.8657380    0.8420160    0.0274540  
H    -3.6735990   -1.3953320   -0.1919370  
H    -7.1518790   -2.1133670   -0.3597110  
H    -8.6166200    0.5161960   -0.2169460  
H    -7.0789350    2.3168450   -0.0600070  
