64


C    -2.0858310    1.6633450    1.9055710  
C    -3.2092290    2.4358020    2.0169050  
C    -3.1377550    3.4400500    0.9925060  
C    -1.9307380    3.2250280    0.2801790  
N    -1.2921320    2.1286300    0.8553450  
C    -1.5466030    4.0124150   -0.8112900  
C    -2.3935280    5.0444760   -1.1829810  
O    -2.0651550    5.8477190   -2.2380240  
C    -3.6032590    5.2805490   -0.4774500  
O    -4.3377070    6.3454030   -0.9676170  
C    -3.9818960    4.4962970    0.5957950  
H    -3.9898540    2.3152270    2.7559070  
H    -0.6215680    3.8526330   -1.3525510  
H    -2.7734060    6.5084220   -2.3259640  
H    -5.1280190    6.4691680   -0.4217380  
H    -4.9160620    4.6915520    1.1191390  
H    -1.7406520    0.8334180    2.5061090  
C    -0.7822100   -1.9132280   -0.6656470  
C     0.5898610   -1.8411180   -0.8642970  
C     1.0154180   -0.5335950   -0.4895910  
C    -0.1391240    0.1684210   -0.0561300  
N    -1.2091260   -0.6916980   -0.1466310  
C    -0.1097820    1.4950680    0.4024740  
C     1.1323610    2.1297430    0.4148080  
O     1.2379530    3.4088890    0.8504930  
C     2.2995000    1.4577530   -0.0453860  
O     3.4265210    2.2426890   -0.0204660  
C     2.2623570    0.1376020   -0.4822090  
H     1.2184470   -2.6567930   -1.1914680  
H    -2.1708260   -0.3891870   -0.0959970  
H     2.1797970    3.6529400    0.7912400  
H     4.2255820    1.6891750   -0.0723520  
C    -1.5542510   -4.0696980   -1.7400430  
C    -1.6948850   -3.0009180   -0.8980920  
C    -3.0053970   -3.2334990   -0.2388070  
C    -3.4949820   -4.5000420   -0.8455630  
N    -2.6359490   -4.9774240   -1.7089530  
C    -4.7539400   -5.0801200   -0.4676570  
C    -5.4867900   -4.4525030    0.4858230  
O    -6.6803470   -4.8882870    0.9296090  
C    -5.0078660   -3.1957930    1.1389950  
O    -5.7178010   -2.6783730    2.0019710  
C    -3.7073670   -2.6154020    0.7299190  
H    -5.0872290   -5.9996380   -0.9361400  
H    -6.9562230   -4.2391720    1.6125430  
H    -3.3959530   -1.7169440    1.2543110  
H    -0.7291130   -4.2655170   -2.4138270  
C     3.6184310   -1.0282740   -2.2245190  
C     4.8936200   -1.5010090   -2.3637120  
C     5.5727560   -1.2659790   -1.1206970  
C     4.6402880   -0.6438590   -0.2500080  
N     3.4417300   -0.5004870   -0.9460300  
C     4.9579130   -0.2943070    1.0726210  
C     6.2474130   -0.5609730    1.5128830  
O     6.6058620   -0.2421430    2.7890770  
C     7.1957440   -1.1697360    0.6499490  
O     8.4327500   -1.3659690    1.2321400  
C     6.8724040   -1.5275480   -0.6466370  
H     5.3057570   -1.9595730   -3.2521670  
H     4.2343470    0.1279380    1.7620200  
H     7.5300690   -0.5216360    2.9081790  
H     9.0173840   -1.8208890    0.6080960  
H     7.6127750   -2.0049550   -1.2856390  
H     2.8006850   -0.9924140   -2.9295630  
