64


C    -0.5103330   -0.9257600   -0.8433740  
C    -0.7061530   -2.1180930   -1.4992720  
C    -2.0936010   -2.4446030   -1.3514060  
C    -2.6963820   -1.3952660   -0.6088070  
N    -1.7024350   -0.4867140   -0.3017100  
C    -4.0628650   -1.3694090   -0.2471210  
C    -4.7922620   -2.4853130   -0.6545320  
O    -6.1280320   -2.5866870   -0.3174040  
C    -4.2163940   -3.5417390   -1.4011770  
O    -5.1124420   -4.5459220   -1.7158000  
C    -2.8838680   -3.5352200   -1.7633130  
H     0.0458830   -2.6731640   -2.0417660  
H    -1.8350500    0.3486170    0.2494940  
H    -6.4594670   -3.4170090   -0.7055160  
H    -4.6681950   -5.2301400   -2.2378190  
H    -2.4583340   -4.3572470   -2.3342340  
C     1.8866050   -0.7914990   -0.3352130  
C     2.8778290    0.1702940   -0.2569170  
C     2.2426130    1.4381310   -0.5530620  
C     0.8764250    1.1715270   -0.7989050  
N     0.6786500   -0.2086510   -0.6511410  
C    -0.0370070    2.1682410   -1.1587720  
C     0.4420040    3.4655260   -1.2582990  
O    -0.4082360    4.4767310   -1.5967800  
C     1.8116160    3.7522450   -1.0222140  
O     2.1362480    5.0828710   -1.1744650  
C     2.7112690    2.7586130   -0.6789270  
H    -1.0845430    1.9730220   -1.3528750  
H     0.1160330    5.2956460   -1.6344430  
H     3.0845150    5.2104640   -1.0220280  
H     3.7613740    2.9959490   -0.5334870  
H     1.9249720   -1.8489750   -0.1180600  
C    -3.8809620    3.0913350   -0.7782120  
C    -3.8092270    1.7352210   -0.9745460  
C    -4.4117270    1.1029740    0.1705750  
C    -4.8555600    2.1475170    1.0244660  
N    -4.5049410    3.3424280    0.4277560  
C    -5.5449500    1.9151110    2.2201970  
C    -5.8073490    0.5940520    2.5438260  
O    -6.4953660    0.2889200    3.6781140  
C    -5.3637520   -0.4736040    1.7157960  
O    -5.6734000   -1.7257310    2.2057780  
C    -4.6366950   -0.2523220    0.5449660  
H    -3.4086140    1.2449840   -1.8503220  
H    -4.7000460    4.2572420    0.8030620  
H    -5.8910410    2.7130010    2.8692250  
H    -6.5734410   -0.6842450    3.6817640  
H    -6.0042300   -2.2655560    1.4564420  
H    -3.5224430    3.9029500   -1.3952070  
C     4.2541110   -0.0770120    0.0855080  
C     5.2089690    0.7568520    0.6147160  
C     6.4298700    0.0138370    0.7640880  
C     6.1388730   -1.3535780    0.2661440  
N     4.7956170   -1.3662020   -0.0731710  
C     7.0547330   -2.3492370    0.1836370  
C     8.4162330   -2.0812690    0.6429990  
O     9.3044150   -2.9196720    0.6071340  
C     8.7368880   -0.6527270    1.2174940  
O     9.8703370   -0.4203090    1.6154160  
C     7.6664360    0.3388020    1.2383900  
H     5.0468840    1.7743770    0.9379310  
H     6.8266420   -3.3426310   -0.1911790  
H     7.9033250    1.3262150    1.6232850  
H     4.4070270   -2.0329040   -0.7247580  
