64


C     1.0984370    1.5910100   -0.2562780  
C    -0.2869460    1.5917600   -0.3352460  
C    -0.7152030    0.2323920   -0.4370540  
C     0.4498600   -0.5778950   -0.3856090  
N     1.5232880    0.2693660   -0.2918260  
C     0.4402780   -1.9890280   -0.3908880  
C    -0.8196660   -2.5612340   -0.5605690  
O    -0.9446890   -3.9312060   -0.6337720  
C    -2.0023310   -1.7920040   -0.6739820  
O    -3.1434300   -2.5340550   -0.9075940  
C    -1.9675500   -0.4013720   -0.5936390  
H    -0.9224320    2.4594420   -0.2572000  
H     2.4923670   -0.0129180   -0.3202140  
H    -1.8997370   -4.1148810   -0.7277740  
H    -3.9011050   -2.1562540   -0.4223330  
C     0.8169120    5.9823190   -1.1835690  
C     0.5527600    4.6435590   -1.0640210  
C     1.7040590    4.0295080   -0.4581970  
C     2.6494510    5.0710770   -0.2445230  
N     2.0764370    6.2457550   -0.6822220  
C     3.9240030    4.8602960    0.2883220  
C     4.2554380    3.5543410    0.6135300  
O     5.4832620    3.2739430    1.1315310  
C     3.3323210    2.4962360    0.4266970  
O     3.8615600    1.2413580    0.7522990  
C     2.0482300    2.6937010   -0.1027040  
H    -0.3458750    4.1555850   -1.4067120  
H     2.5232870    7.1488970   -0.6668770  
H     4.6420930    5.6590220    0.4418220  
H     5.5026870    2.3058090    1.2510480  
H     3.3264340    0.7828410    1.4277940  
H     0.2090730    6.7779770   -1.5905470  
C     3.6669930   -1.7330180    2.7225540  
C     2.5026870   -1.5759720    2.0093290  
C     2.5769210   -2.4581950    0.8712870  
C     3.8184660   -3.1382040    0.9645500  
N     4.4654280   -2.6634660    2.0894660  
C     4.2166830   -4.1293440    0.0595430  
C     3.3190490   -4.4581530   -0.9431140  
O     3.6212970   -5.4337370   -1.8412870  
C     2.0686270   -3.7909820   -1.0656040  
O     1.3076710   -4.2181380   -2.1327680  
C     1.6896890   -2.7644900   -0.2011680  
H     1.6612120   -0.9618110    2.2988620  
H     5.3643750   -2.9798680    2.4177960  
H     5.1637780   -4.6536200    0.1342400  
H     2.8410280   -5.5058260   -2.4236800  
H     0.3797040   -4.3048090   -1.8266070  
H     3.9835290   -1.2769360    3.6503030  
C    -3.3936290    1.3170530   -1.7234280  
C    -4.6563790    1.8032320   -1.6645940  
C    -5.3231260    1.1351320   -0.5658520  
C    -4.3179440    0.2131800    0.0229550  
N    -3.1612860    0.3607310   -0.7194790  
C    -4.5555480   -0.5962340    1.0961200  
C    -5.8789270   -0.5620130    1.7146710  
O    -6.1749600   -1.2300870    2.6931630  
C    -6.9628690    0.3878970    1.0878390  
O    -8.0844760    0.4075160    1.5679360  
C    -6.5781090    1.2240350   -0.0556520  
H    -5.0906980    2.5450010   -2.3190030  
H    -3.7831110   -1.1945530    1.5711970  
H    -7.3294780    1.8950640   -0.4611840  
H    -2.5899040    1.5488500   -2.4087990  
