60


C     2.7722830   -2.0857540   -2.7716440  
C     3.3182400   -3.2347370   -2.2674730  
C     4.0769030   -2.8636580   -1.1054740  
C     3.9600360   -1.4564510   -0.9654790  
N     3.1889810   -1.0000520   -2.0174420  
C     4.5936990   -0.7262720    0.0656000  
C     5.3051220   -1.4860660    1.0019100  
O     5.8828030   -0.8807730    2.0783340  
C     5.4270150   -2.8929030    0.8710730  
O     6.1814950   -3.4780220    1.8744230  
C     4.8427340   -3.5849600   -0.1704630  
H     3.1992220   -4.2303870   -2.6722700  
H     2.6934090   -0.1205470   -1.9667610  
H     6.3267880   -1.5797570    2.5895470  
H     6.1444370   -4.4413220    1.7832290  
H     4.9603210   -4.6636710   -0.2531240  
H     2.1235430   -1.9396400   -3.6240830  
C     1.2326110    2.1585830    0.0272980  
C     1.8929730    3.3407670    0.2547890  
C     3.2857300    3.0064030    0.3320790  
C     3.3266500    1.5120620    0.1395900  
N     2.1252750    1.0375510   -0.0516420  
C     4.5611960    0.7514790    0.1648590  
C     5.6977010    1.5031540    0.2953310  
O     6.9298920    0.9968710    0.2655480  
C     5.6890840    3.0064650    0.4840010  
O     6.7872950    3.5557490    0.5974340  
C     4.4211090    3.7253440    0.5073660  
H     1.4708100    4.3297420    0.3695410  
H     7.5265450    1.7706640    0.3957790  
H     4.4511440    4.8013890    0.6448870  
C    -1.1503580    2.8941410   -0.2145110  
C    -0.1797730    1.9235570   -0.1365020  
C    -0.8820130    0.6362710   -0.2360310  
C    -2.3167520    0.9604050   -0.3929390  
N    -2.3977800    2.3445880   -0.3909300  
C    -3.3432450    0.0637380   -0.5028460  
C    -2.9648760   -1.3628090   -0.4414480  
O    -3.7787250   -2.2663840   -0.5333230  
C    -1.4467590   -1.7314690   -0.2612580  
O    -1.1462540   -2.9106860   -0.1885770  
C    -0.4567480   -0.6523810   -0.1788050  
H     0.5881540   -0.9111280   -0.0583730  
H    -1.0363150    3.9690330   -0.1685670  
H    -3.2705240    2.8516560   -0.3693980  
C    -5.1930320    1.3232030   -1.6766460  
C    -4.7403260    0.4607260   -0.7170720  
C    -5.9245490    0.0310660    0.0353360  
C    -7.0820970    0.7288100   -0.5739270  
N    -6.5651700    1.5072970   -1.5948980  
C    -8.3696600    0.5964650   -0.1672040  
C    -8.6503460   -0.2809540    0.9652550  
O    -9.7740910   -0.4617070    1.4076810  
C    -7.4363450   -1.0117290    1.6452110  
O    -7.6417420   -1.7279300    2.6106290  
C    -6.0895130   -0.7990460    1.0945470  
H    -9.2006720    1.1148160   -0.6357180  
H    -5.2700620   -1.3407380    1.5527070  
H    -4.6293780    1.8184130   -2.4573920  
H    -7.1221350    2.0081490   -2.2699490  
