62


C     0.6658370    3.9966830    0.6213890  
C     1.6985610    4.8790390    0.6464230  
C     2.9001430    4.1522880    0.3213740  
C     2.5351000    2.8017290    0.1075750  
N     1.1379830    2.7132710    0.3031980  
C     3.4695790    1.8322990   -0.2700810  
C     4.7945670    2.2328430   -0.3999690  
O     5.7383310    1.3158990   -0.7553510  
C     5.1755410    3.5774180   -0.1711280  
O     6.5228670    3.8182670   -0.3379290  
C     4.2423950    4.5382050    0.1821180  
H     1.6233690    5.9325350    0.8797400  
H     3.1940800    0.8062590   -0.4676140  
H     6.5881530    1.7839020   -0.8258300  
H     6.7040880    4.7622690   -0.2177150  
H     4.5453300    5.5707720    0.3426070  
H    -0.3811180    4.1428190    0.8357850  
C     0.3193720    1.6124770    0.2064010  
C    -1.0572520    1.5849190    0.1765870  
C    -1.4054680    0.1993090    0.1357150  
C    -0.0881040   -0.5227070    0.1173010  
N     0.9116220    0.3279100    0.1703800  
C     0.0262440   -1.9618010    0.0762560  
C    -1.1743160   -2.6201550    0.1471810  
O    -1.2832450   -3.9377000    0.2355390  
C    -2.5314390   -1.9249630    0.1237830  
O    -3.5019830   -2.6774670    0.0653530  
C    -2.6083480   -0.4592040    0.1410110  
H    -1.7453050    2.4153230    0.1985930  
H    -2.2542900   -4.1176180    0.1918640  
C    -4.3178890    2.4691880   -2.7088090  
C    -5.5489680    2.5999520   -2.1218450  
C    -5.5521560    1.7594630   -0.9578020  
C    -4.2774370    1.1387470   -0.8896060  
N    -3.5495520    1.5865150   -1.9715230  
C    -3.9225920    0.2070950    0.1131690  
C    -4.8989810   -0.0603820    1.0777970  
O    -4.6114120   -0.8920450    2.1171550  
C    -6.1733060    0.5584900    1.0246740  
O    -7.0112140    0.1879910    2.0611170  
C    -6.5110780    1.4530510    0.0270870  
H    -6.3621230    3.2170640   -2.4784570  
H    -2.5940370    1.3324720   -2.1689350  
H    -5.4308540   -1.0049940    2.6297020  
H    -7.8923510    0.5616220    1.9133290  
H    -7.4978330    1.9116770    0.0094010  
H    -3.9151130    2.9318950   -3.5986750  
C     4.0169410   -1.5570240    1.9996110  
C     4.6334900   -2.6387580    1.4579620  
C     3.6900630   -3.2624510    0.5570350  
C     2.4484890   -2.4502200    0.6436890  
N     2.6944260   -1.4565870    1.5755860  
C     1.2984910   -2.6990550   -0.0560060  
C     1.3865250   -3.7759210   -1.0734600  
O     0.5334460   -3.9503170   -1.9262930  
C     2.6488610   -4.7123470   -1.0897470  
O     2.6348360   -5.6921750   -1.8200950  
C     3.7802630   -4.3589570   -0.2432690  
H     5.6425450   -2.9718160    1.6527900  
H     4.6644810   -4.9877060   -0.2832230  
H     4.4088200   -0.8238740    2.6926240  
H     2.1890470   -0.5755020    1.5000800  
