64


C    -4.2999920   -3.3215220    1.9591820  
C    -5.1942840   -3.9700820    1.1471880  
C    -5.7335550   -2.9894590    0.2490730  
C    -5.1122110   -1.7507500    0.5630860  
N    -4.2509760   -1.9859050    1.6141930  
C    -5.4085840   -0.5336870   -0.0949350  
C    -6.3926620   -0.6269050   -1.0777890  
O    -6.7893420    0.5099220   -1.7595180  
C    -7.0247490   -1.8487440   -1.4099730  
O    -7.9664560   -1.7270160   -2.4169820  
C    -6.7054400   -3.0294520   -0.7695020  
H    -5.4493290   -5.0199640    1.1903690  
H    -3.6557290   -1.2848790    2.0276300  
H    -7.4623790    0.2324480   -2.4076200  
H    -8.3462020   -2.5957800   -2.6140480  
H    -7.2055210   -3.9582540   -1.0356070  
H    -3.6908180   -3.7007880    2.7677610  
C    -1.0758840    0.5616280    0.3765950  
C    -2.2506400   -0.0923820    0.0947020  
C    -3.3218870    0.8216490    0.3909910  
C    -2.7222490    2.0306730    0.8323510  
N    -1.3522690    1.8419220    0.8282350  
C    -3.4558710    3.1765370    1.1540430  
C    -4.8306780    3.0967550    1.0017220  
O    -5.6138800    4.1733500    1.2770510  
C    -5.4603720    1.9003830    0.5592030  
O    -6.8335660    1.9916860    0.4851890  
C    -4.7390590    0.7397450    0.2737860  
H    -2.3326340   -1.0831350   -0.3274030  
H    -0.6620740    2.5011650    1.1537380  
H    -2.9958150    4.1020730    1.4837990  
H    -6.5257750    3.8917590    1.0694490  
H    -7.1141590    1.5797010   -0.3611020  
C     0.6543990   -1.1616480    0.7917900  
C     1.9786670   -1.3493980    0.5857580  
C     2.4972880   -0.1627830   -0.0675240  
C     1.3457020    0.7477730   -0.2281870  
N     0.2409040    0.0905150    0.3086510  
C     1.3960810    1.9819170   -0.8065670  
C     2.6846720    2.4649940   -1.2532150  
O     2.8626460    3.5628800   -1.7638890  
C     3.9415070    1.5348660   -1.0567160  
O     5.0268300    1.9794240   -1.3892580  
C     3.7649470    0.1656900   -0.4944470  
H     2.5544150   -2.2078100    0.8952320  
H     0.5249120    2.6073830   -0.9636370  
H    -0.0763640   -1.7971030    1.2720390  
C     4.7507390   -2.1253280   -0.7719530  
C     4.8803790   -0.7762560   -0.4736480  
C     6.2846950   -0.5721080   -0.1553740  
C     6.9225460   -1.8326300   -0.2637070  
N     5.9613560   -2.7532040   -0.6465720  
C     8.2820790   -2.0332410    0.0022280  
C     9.0231790   -0.9286960    0.3898200  
O    10.3549740   -1.0558750    0.6527140  
C     8.4036840    0.3429770    0.5115190  
O     9.2676350    1.3478260    0.9044830  
C     7.0602910    0.5314200    0.2516750  
H     6.1401430   -3.7195510   -0.8722670  
H     8.7631430   -3.0018480   -0.0874930  
H    10.6874230   -0.1678730    0.8719520  
H     8.8234980    2.2044850    0.8161400  
H     6.6219350    1.5207000    0.3214450  
H     3.8810470   -2.6652110   -1.1172940  
