64


C    -4.2476800    1.0118660   -1.2664920  
C    -4.1306220   -0.2147180   -0.6323250  
C    -5.3634780   -0.3976290    0.1120550  
C    -6.1613200    0.7526280   -0.1090660  
N    -5.4553230    1.5906920   -0.9518640  
C    -7.4220870    0.9348330    0.4736800  
C    -7.8911260   -0.0721680    1.3009920  
O    -9.1168670    0.0400120    1.8902040  
C    -7.1057100   -1.2313500    1.5385580  
O    -7.7066500   -2.1488990    2.3817350  
C    -5.8615800   -1.4024940    0.9651590  
H    -5.8039820    2.4533070   -1.3392970  
H    -8.0314200    1.8152600    0.2963280  
H    -9.2655410   -0.7815440    2.3902440  
H    -7.2018230   -2.9757690    2.3630250  
H    -5.2972860   -2.3128790    1.1357450  
H    -3.5745920    1.4919540   -1.9633550  
C     0.1398470    0.7810620   -0.6486970  
C     0.6550310   -0.4857190   -0.8339880  
C    -0.4419890   -1.4127560   -0.8850480  
C    -1.6690290   -0.6043090   -0.7257840  
N    -1.2473430    0.7024440   -0.5956500  
C    -2.9539850   -1.0858520   -0.7150470  
C    -3.0788480   -2.5535420   -0.8417250  
O    -4.1531660   -3.1351900   -0.8265520  
C    -1.7784420   -3.4337780   -1.0114750  
O    -1.9193100   -4.6466870   -1.1017130  
C    -0.4894490   -2.7694970   -1.0368130  
H     1.6886520   -0.7419680   -1.0115910  
H     0.4004690   -3.3785720   -1.1610800  
H    -1.8527090    1.4974530   -0.4585050  
C     4.2465350    1.6628550    0.6996660  
C     4.2083270    3.0247120    0.5390200  
C     2.8933270    3.3469040    0.0639250  
C     2.1799050    2.1281570   -0.0703570  
N     3.0332510    1.1115110    0.3107970  
C     0.8335970    2.0565150   -0.5030910  
C     0.2185600    3.2931220   -0.7633500  
O    -1.0944040    3.3492040   -1.1536070  
C     0.9263930    4.5115870   -0.6498030  
O     0.1660610    5.6196940   -0.9716330  
C     2.2495990    4.5562930   -0.2515970  
H     5.0297580    3.7056900    0.7090660  
H     2.7365950    0.1758380    0.5494020  
H    -1.3105110    4.2907850   -1.2795690  
H     0.6946730    6.4241180   -0.8650890  
H     2.7707670    5.5074930   -0.1699620  
C     6.0302620    1.1358680    2.3268840  
C     6.9298710    0.1326180    2.5437000  
C     6.7357550   -0.8487540    1.5110860  
C     5.6917690   -0.3779010    0.6770660  
N     5.2597800    0.8452910    1.1984000  
C     5.2660640   -1.0714810   -0.4630120  
C     5.8877890   -2.2786170   -0.7473210  
O     5.5053370   -2.9934130   -1.8438960  
C     6.9214900   -2.7758870    0.0887910  
O     7.4376520   -3.9881980   -0.3241720  
C     7.3520100   -2.0763960    1.2013910  
H     7.6442960    0.0882670    3.3543370  
H     4.4992260   -0.6971460   -1.1316410  
H     6.0510740   -3.7982360   -1.8705170  
H     8.1298150   -4.2734350    0.2903680  
H     8.1561570   -2.4683550    1.8210060  
H     5.8298830    2.0389750    2.8844850  
