60


C    -5.0609010   -1.1324990    1.8278090  
C    -5.0541290   -0.1975490    0.8005620  
C    -6.4318840   -0.0980930    0.3418190  
C    -7.1972750   -0.9869680    1.1378690  
N    -6.3313100   -1.5859270    2.0377030  
C    -8.5697490   -1.1909850    0.9668850  
C    -9.1980080   -0.4847920   -0.0472680  
O   -10.5362510   -0.6406450   -0.2619950  
C    -8.4519500    0.3978230   -0.8679910  
O    -9.2069970    1.0260020   -1.8416370  
C    -7.0940780    0.5931630   -0.6928440  
H    -6.5914330   -2.2791400    2.7222470  
H    -9.1440980   -1.8740810    1.5843690  
H   -10.7759210   -0.0590930   -1.0041890  
H    -8.6470120    1.6484730   -2.3285910  
H    -6.5568040    1.2872410   -1.3289680  
H    -4.2322090   -1.5031560    2.4083120  
C    -0.9469770   -1.6150510    0.7249200  
C    -0.2350160   -0.5497160    0.2308400  
C    -1.2719310    0.4762380   -0.0194800  
C    -2.5470330   -0.1687970    0.4163970  
N    -2.3280840   -1.3849710    0.8457980  
C    -3.8535030    0.4883360    0.3339010  
C    -3.8245390    1.7535000   -0.1984170  
O    -4.9127680    2.5483370   -0.3132550  
C    -2.5856440    2.3979330   -0.6874100  
O    -2.6673520    3.5410790   -1.1526970  
C    -1.2901380    1.6944820   -0.5870310  
H    -4.5634280    3.3803700   -0.7066220  
H    -0.4147340    2.2191750   -0.9454160  
H    -0.5492750   -2.5776390    1.0093420  
C     2.5245840   -3.8367300   -0.5574980  
C     3.7121090   -3.1987640   -0.6958020  
C     3.4066950   -1.7869150   -0.5043590  
C     1.9423740   -1.7532710   -0.2586680  
N     1.4390030   -2.9560480   -0.2992700  
C     1.1991580   -0.5097950   -0.0040560  
C     1.9705640    0.6242920    0.0205220  
O     1.4801380    1.8556470    0.2912000  
C     3.4288120    0.6363660   -0.2318270  
O     4.0049030    1.7268650   -0.2412470  
C     4.1511950   -0.6502290   -0.4882640  
H     4.6839950   -3.6372760   -0.8716080  
H     2.2507630    2.4611900    0.2162190  
H     2.3271050   -4.9002670   -0.6112990  
C     6.0499460   -1.3512850   -1.8943280  
C     7.3912030   -1.2030360   -1.9752400  
C     7.8041690   -0.3379770   -0.8921100  
C     6.5695130    0.0311770   -0.1581850  
N     5.5049320   -0.6068980   -0.8311850  
C     6.5660630    0.7723600    0.9727380  
C     7.8443140    1.2885910    1.4764200  
O     7.9203090    1.9641290    2.4891160  
C     9.1526740    0.9526650    0.6804860  
O    10.2205960    1.3897490    1.0773590  
C     9.0288630    0.1037780   -0.5063360  
H     8.0359380   -1.6364510   -2.7264260  
H     5.6716700    1.0373780    1.5210490  
H     9.9387380   -0.1634520   -1.0349370  
H     5.3774120   -1.9051640   -2.5338850  
