62


C    -5.9622730    0.7187010    2.0304800  
C    -5.2387010    0.2607970    0.9478340  
C    -6.1684620   -0.5065360    0.1392490  
C    -7.4270890   -0.4639920    0.7928630  
N    -7.2664810    0.2873930    1.9399780  
C    -8.5620640   -1.1185800    0.2989500  
C    -8.4254940   -1.8356040   -0.8790010  
O    -9.4998260   -2.4873790   -1.4063840  
C    -7.1703520   -1.9026410   -1.5426580  
O    -7.1926060   -2.6625800   -2.6948560  
C    -6.0507580   -1.2576880   -1.0515250  
H    -7.9972590    0.5070970    2.5989390  
H    -9.5247760   -1.0864390    0.7987200  
H    -9.2007120   -2.9281820   -2.2204860  
H    -6.3152100   -2.6580760   -3.1055030  
H    -5.1002850   -1.3321570   -1.5737570  
H    -5.6414500    1.3472020    2.8487960  
C    -1.5822400   -0.0137980    3.5472450  
C    -2.8586090   -0.0721090    3.0611480  
C    -2.8170730    0.3607470    1.6894440  
C    -1.4648240    0.6565950    1.3928640  
N    -0.7204260    0.3871030    2.5331310  
C    -1.0256840    1.1266400    0.1355900  
C    -2.0244020    1.2883270   -0.8305380  
O    -1.6859290    1.6955550   -2.0816200  
C    -3.3804170    0.9948280   -0.5491860  
O    -4.2215680    1.2270980   -1.6189210  
C    -3.8126940    0.5261270    0.6911430  
H    -3.7317000   -0.4034980    3.6044440  
H     0.2044210    0.7594160    2.6938820  
H    -2.5154130    1.8551280   -2.5661710  
H    -5.1435020    1.1595610   -1.3172180  
H    -1.1961710   -0.2498590    4.5288670  
C     2.5508620   -1.3569350    0.4956170  
C     3.5165480   -0.4871640    0.0475330  
C     2.8274480    0.7569340   -0.2932880  
C     1.3988220    0.5281010    0.0097620  
N     1.3072770   -0.7830690    0.4668560  
C     0.3851680    1.4244000   -0.1680950  
C     0.7918680    2.7708410   -0.6517840  
O     0.0281160    3.7160840   -0.6854690  
C     2.2843370    2.9957870   -1.0886210  
O     2.5870590    4.0568020   -1.6111550  
C     3.2523620    1.9281700   -0.8431440  
H     4.2759700    2.1020820   -1.1573560  
H     2.6779960   -2.3686380    0.8579360  
H     0.4572670   -1.1950520    0.8244370  
C     4.9274290   -0.7871920   -0.0431180  
C     5.5581030   -1.9972120   -0.1899300  
C     6.9779030   -1.7714790   -0.1685380  
C     7.1565480   -0.3085990    0.0058710  
N     5.8828230    0.2382370    0.0241850  
C     8.3569430    0.3091780    0.1223280  
C     9.5676170   -0.5079970    0.0451020  
O    10.6906120   -0.0373780    0.1395980  
C     9.4045470   -2.0566930   -0.1767480  
O    10.4097470   -2.7492170   -0.2504380  
C     8.0533990   -2.6025360   -0.2725490  
H     5.0697270   -2.9471110   -0.3552150  
H     8.4689450    1.3806780    0.2580110  
H     7.9524430   -3.6749770   -0.4093730  
H     5.6798960    1.1567820    0.3901650  
