64


C     4.1968590   -2.6930580   -2.4740390  
C     5.3724520   -2.9446080   -1.8143010  
C     5.4010050   -2.0837020   -0.6669650  
C     4.1954750   -1.3305800   -0.6815590  
N     3.4917600   -1.7160060   -1.8024580  
C     3.8722680   -0.3467590    0.2832860  
C     4.8461160   -0.1468850    1.2608230  
O     4.6513210    0.8158370    2.2371470  
C     6.0517790   -0.8859540    1.2981650  
O     6.8797900   -0.5412380    2.3537050  
C     6.3409750   -1.8527870    0.3558840  
H     6.1354040   -3.6489210   -2.1161070  
H     2.5628620   -1.3922430   -2.0275000  
H     5.4347180    0.7920700    2.8164930  
H     7.6914230   -1.0678470    2.3135770  
H     7.2761810   -2.4072130    0.3982870  
H     3.8006590   -3.1263760   -3.3817620  
C    -0.4294440   -1.6056810   -0.2288010  
C     0.9350910   -1.5810770   -0.0215600  
C     1.3515330   -0.2061920    0.0359070  
C     0.1800260    0.5789460   -0.1201840  
N    -0.8821860   -0.2901660   -0.2675930  
C     0.1746100    1.9877670   -0.1109520  
C     1.4180090    2.5909810    0.0958790  
O     1.5061040    3.9426510    0.1867700  
C     2.6020960    1.8292170    0.2672010  
O     3.7318460    2.5999480    0.4461360  
C     2.6107710    0.4332040    0.2145840  
H     1.5556170   -2.4501000    0.1433270  
H    -1.7972010   -0.0175350   -0.5924390  
H     2.4540690    4.1327670    0.3264410  
H     4.2493550    2.2030620    1.1801360  
C    -3.6382510    2.2428880    2.1672450  
C    -2.3988050    1.9130210    1.7216110  
C    -2.1439890    2.6995040    0.5262330  
C    -3.3555520    3.5248770    0.3144640  
N    -4.2410090    3.1713110    1.3184690  
C    -3.5065310    4.4548070   -0.6647510  
C    -2.4028430    4.6567430   -1.5895940  
O    -2.4150250    5.4944370   -2.4796610  
C    -1.1334640    3.7388220   -1.4411430  
O    -0.2764240    3.7963700   -2.3020660  
C    -1.0479330    2.7936900   -0.2891180  
H    -1.7138000    1.2161920    2.1805590  
H    -4.3957290    5.0677020   -0.7763300  
H    -4.1666210    1.8960860    3.0462520  
H    -5.0829980    3.6834740    1.5320070  
C    -1.0365390   -3.9629570   -0.8913100  
C    -1.3496660   -2.7184760   -0.3852150  
C    -2.7591870   -2.7590230   -0.0530460  
C    -3.2315340   -4.0540380   -0.3872560  
N    -2.1571710   -4.7655080   -0.8843360  
C    -4.5616970   -4.4490110   -0.1984920  
C    -5.4367280   -3.5189390    0.3410840  
O    -6.7467550   -3.8489620    0.5369910  
C    -4.9786880   -2.2243230    0.6987410  
O    -5.9553850   -1.4099470    1.2446830  
C    -3.6632130   -1.8398810    0.5170640  
H    -2.1952520   -5.7106300   -1.2321920  
H    -4.9241810   -5.4385930   -0.4576750  
H    -7.1881860   -3.0651730    0.9068190  
H    -5.5951790   -0.5174600    1.3550740  
H    -3.3402680   -0.8529350    0.8402310  
H    -0.0944170   -4.3297430   -1.2727180  
