62


C    -1.6775920    1.7497090   -0.3167120  
C    -1.5957380    3.1059490   -0.6012180  
C    -2.8874410    3.6658660   -0.4069920  
C    -3.7404450    2.6046670    0.0115000  
N    -3.0002780    1.4416160    0.0237440  
C    -5.0875930    2.7974440    0.3366170  
C    -5.5891160    4.0832200    0.2137550  
O    -6.8903280    4.3352200    0.5103860  
C    -4.7566590    5.1567690   -0.2283340  
O    -5.4165320    6.3652130   -0.3031990  
C    -3.4278750    4.9656640   -0.5390640  
H    -0.7112160    3.6125330   -0.9629390  
H    -3.2985880    0.6261640    0.5545460  
H    -5.7291070    1.9886740    0.6699660  
H    -7.0476070    5.2841210    0.3622480  
H    -4.8025320    7.0565740   -0.5921020  
H    -2.8099840    5.7984720   -0.8677400  
C    -0.6644330    0.7379980   -0.3717870  
C     0.7020900    0.7865520   -0.1940030  
C     1.2093680   -0.5529470   -0.1847500  
C     0.0383610   -1.4283950   -0.3579660  
N    -1.0370440   -0.6014250   -0.5330980  
C     0.0482040   -2.8074310   -0.2888780  
C     1.3311100   -3.4496430   -0.0882090  
O     1.4882580   -4.6643540   -0.0619940  
C     2.5969430   -2.5383620    0.1131630  
O     3.6352730   -3.1310290    0.3878210  
C     2.4945660   -1.0704270   -0.0247750  
H     1.2594660    1.6795560    0.0370730  
H    -1.9744090   -0.9095630   -0.7347710  
C    -1.2025860   -4.7646990   -1.2235490  
C    -2.4747350   -5.2203140   -1.2973190  
C    -3.3030170   -4.3301150   -0.5106730  
C    -2.3744850   -3.3356180    0.0838910  
N    -1.1141190   -3.6104720   -0.4116440  
C    -2.7740530   -2.3529240    0.9458430  
C    -4.1938880   -2.0911140    1.0634980  
O    -4.6348790   -1.0217630    1.4852640  
C    -5.1896830   -3.1831230    0.5434610  
O    -6.3762750   -3.0820300    0.8092060  
C    -4.6386720   -4.2764510   -0.2673360  
H    -2.8131070   -6.0827420   -1.8530800  
H    -2.0852970   -1.6800490    1.4394510  
H    -5.3358480   -5.0140500   -0.6529130  
H    -0.2983130   -5.1508280   -1.6677740  
C     3.6908610   -0.2634750    0.0115630  
C     3.9080280    1.0667320   -0.3694650  
C     5.2807250    1.3567000   -0.1723550  
C     5.8875520    0.1681390    0.3357760  
N     4.9079780   -0.7819750    0.4384080  
C     7.2516120    0.0916500    0.6425550  
C     8.0166020    1.2276860    0.4332720  
O     9.3480050    1.2113000    0.7126210  
C     7.4278020    2.4250830   -0.0748170  
O     8.3299030    3.4600230   -0.2223510  
C     6.0857590    2.5019670   -0.3764210  
H     3.1739370    1.7292640   -0.8007850  
H     5.0071610   -1.7616620    0.6742570  
H     7.7184000   -0.8083720    1.0281900  
H     9.7012940    2.0924480    0.4986980  
H     7.8755080    4.2392450   -0.5752930  
H     5.6576490    3.4248290   -0.7625590  
