62


C    -4.6828000   -0.7077530    2.2173850  
C    -4.2305310   -0.3875950    0.9395860  
C    -5.3334660   -0.6880430    0.0381430  
C    -6.3877010   -1.1968040    0.8350530  
N    -5.9577240   -1.1827480    2.1546380  
C    -7.6082980   -1.6361450    0.3132140  
C    -7.7735450   -1.5647400   -1.0611010  
O    -8.9418090   -1.9712080   -1.6291350  
C    -6.7273870   -1.0680550   -1.8824430  
O    -7.0368080   -1.0572790   -3.2269820  
C    -5.5239090   -0.6374590   -1.3566470  
H    -6.5280920   -1.4182000    2.9530000  
H    -8.4093690   -2.0239310    0.9338570  
H    -8.8608640   -1.8317200   -2.5888470  
H    -6.3111410   -0.6510750   -3.7241090  
H    -4.7547820   -0.2357450   -2.0066890  
H    -4.1858120   -0.5641830    3.1654120  
C    -0.2575270   -1.0631430    2.8251420  
C    -1.5479510   -1.2360950    2.4435280  
C    -1.7848910   -0.2298040    1.4138380  
C    -0.4819670    0.4531700    1.2749870  
N     0.3997190   -0.0272600    2.1135410  
C    -0.2612940    1.5505380    0.3241090  
C    -1.3611570    1.8814150   -0.4117870  
O    -1.3524400    2.8746690   -1.3558430  
C    -2.6745460    1.2088630   -0.3164690  
O    -3.5558240    1.5957820   -1.0938040  
C    -2.8963730    0.1294710    0.6987130  
H    -2.2504220   -1.9783190    2.7941240  
H    -2.2656630    2.8623530   -1.7267210  
H     0.3014470   -1.6154730    3.5710140  
C     4.0359730    0.1469890   -0.1151560  
C     2.6454730    0.2154630    0.0045330  
C     2.2782150    1.5777280    0.1102890  
C     3.4890340    2.3311670    0.0274900  
N     4.5246980    1.4465840   -0.0961850  
C     3.5221230    3.7283530    0.0564690  
C     2.3035010    4.3802560    0.1385360  
O     2.2525570    5.7364440    0.1561350  
C     1.0735620    3.6608340    0.1973180  
O    -0.0305790    4.4780860    0.2995090  
C     1.0260350    2.2629830    0.2164980  
H     1.9728280   -0.6244310   -0.0143760  
H     5.4993600    1.6467600   -0.2821130  
H     4.4436940    4.2976030   -0.0010150  
H     1.3028250    5.9619040    0.1962410  
H    -0.6960560    4.1719390   -0.3553020  
C     3.5335460   -4.2043240    0.7312290  
C     3.3756510   -2.8542570    0.6945470  
C     4.5390030   -2.2963330    0.0406550  
C     5.4074550   -3.4393560   -0.2888160  
N     4.7297840   -4.5684010    0.1218040  
C     6.6340930   -3.3668890   -0.8864980  
C     7.1557190   -2.0594620   -1.1941080  
O     8.2340630   -1.8483580   -1.7350660  
C     6.2871310   -0.8074590   -0.7908100  
O     6.8101050    0.2928380   -0.9142470  
C     4.9029640   -0.9957470   -0.2710060  
H     2.5544750   -2.3032390    1.1250670  
H     7.2270610   -4.2403310   -1.1380700  
H     2.8882970   -4.9629200    1.1531860  
H     5.1059350   -5.5025930    0.0856800  
