62


C     3.3010590   -1.9621310   -1.4489970  
C     4.3782780   -2.6890470   -1.8391420  
C     5.5567930   -2.0472700   -1.3085300  
C     5.1330250   -0.9074980   -0.5871950  
N     3.7178990   -0.8608970   -0.6791400  
C     6.0359580   -0.0594820    0.0579740  
C     7.3878770   -0.3740240   -0.0326120  
O     8.3018640    0.4282530    0.5822400  
C     7.8254680   -1.5114760   -0.7518030  
O     9.1917180   -1.6906740   -0.7503130  
C     6.9234030   -2.3494590   -1.3891780  
H     4.3478750   -3.5865210   -2.4422370  
H     5.7125820    0.8123500    0.6077290  
H     9.1830970    0.0565080    0.4052920  
H     9.4202680   -2.4756980   -1.2699000  
H     7.2711120   -3.2214680   -1.9389080  
H     2.2520850   -2.1126100   -1.6475210  
C     2.8512150    0.0529900   -0.1477380  
C     1.4667760    0.0656140   -0.2473320  
C     1.0623750    1.2285760    0.4554950  
C     2.3422890    1.8389910    0.9546800  
N     3.3822860    1.1376950    0.5915300  
C     2.3678920    3.0558540    1.7129440  
C     1.1751000    3.6412930    1.9719270  
O     1.0260190    4.7793540    2.6496210  
C    -0.1536350    3.0437470    1.5191200  
O    -1.1642800    3.6502180    1.8833230  
C    -0.1491730    1.8224370    0.7236530  
H     0.8244430   -0.6284500   -0.7657540  
H     3.3090790    3.4780450    2.0456400  
H     0.0497700    4.9216200    2.6927630  
C    -1.7372920   -0.0681510    0.6340270  
C    -2.9551770   -0.3763150    0.0607500  
C    -3.3801050    0.8202280   -0.6436750  
C    -2.3889600    1.8077760   -0.4331230  
N    -1.3790390    1.2404510    0.3504450  
C    -2.4690400    3.0912850   -0.9842050  
C    -3.5851350    3.3889860   -1.7489440  
O    -3.7142890    4.6234520   -2.3129590  
C    -4.5957930    2.4149010   -1.9597310  
O    -5.6417680    2.8550750   -2.7463210  
C    -4.5082070    1.1470550   -1.4189400  
H    -1.7100440    3.8478220   -0.8292610  
H    -4.5410050    4.6183310   -2.8260360  
H    -6.2212940    2.1076840   -2.9574350  
H    -5.2707760    0.4046810   -1.6282190  
H    -1.0612370   -0.6943190    1.1984120  
C    -3.4811890   -2.9023700    3.5929410  
C    -4.1527390   -3.9477810    3.0412660  
C    -4.3261330   -3.6552500    1.6352660  
C    -3.6841470   -2.3419450    1.4071880  
N    -3.1561790   -1.9571910    2.6297000  
C    -3.6485150   -1.6583160    0.2191330  
C    -4.3278280   -2.3225680   -0.9144040  
O    -4.3925260   -1.8346870   -2.0317240  
C    -4.9977140   -3.7360500   -0.6958290  
O    -5.5522480   -4.2592630   -1.6517740  
C    -4.9397910   -4.3370540    0.6270330  
H    -4.4963220   -4.8339660    3.5548100  
H    -5.4096720   -5.3049000    0.7708640  
H    -3.1799530   -2.7464480    4.6206600  
H    -2.8323110   -1.0181510    2.8125290  
