62


C     3.5806130    4.2977050    1.4664780  
C     3.0267980    5.4925250    1.0856390  
C     1.8564970    5.1831080    0.3152080  
C     1.7603910    3.7707870    0.2519470  
N     2.8281790    3.2572400    0.9556450  
C     0.6947470    3.0868200   -0.3894980  
C    -0.2937990    3.8981780   -0.9718270  
O    -1.3328030    3.3442560   -1.6475660  
C    -0.1964140    5.3132180   -0.9221840  
O    -1.2401710    5.9585400   -1.5619640  
C     0.8537030    5.9592640   -0.2991880  
H     3.4029190    6.4767260    1.3289300  
H     2.9521110    2.2762590    1.1699150  
H    -1.8758500    4.0789680   -1.9844610  
H    -1.0953120    6.9155190   -1.5336990  
H     0.8958790    7.0466250   -0.2782530  
H     4.4629570    4.0949810    2.0569530  
C     0.6553150    1.6351210   -0.4033990  
C     1.7167950    0.7732640   -0.4398350  
C     1.1752330   -0.5433270   -0.2402670  
C    -0.3026140   -0.3196310   -0.1383110  
N    -0.5970780    0.9380920   -0.2464290  
C    -1.2472330   -1.4248570    0.0602340  
C    -0.6576020   -2.6572780    0.1909670  
O    -1.3632470   -3.7979810    0.4176600  
C     0.8007670   -2.9014860    0.1346180  
O     1.1845150   -4.0601390    0.3453560  
C     1.7337460   -1.7785770   -0.1368540  
H     2.7573840    1.0125050   -0.5929240  
H    -0.6690650   -4.4943330    0.4950940  
C     5.2287490   -0.1920400    2.0917680  
C     6.2330150   -0.9599120    1.6145070  
C     5.6098340   -1.8181410    0.6138790  
C     4.1613930   -1.4159280    0.6294160  
N     3.9557750   -0.4569920    1.4877170  
C     3.1770140   -2.0721600   -0.2217940  
C     3.6622890   -3.0199700   -1.0775140  
O     2.9055850   -3.6617250   -1.9732410  
C     5.1128840   -3.4196760   -1.1236010  
O     5.4376990   -4.2850580   -1.9341770  
C     6.0733610   -2.7712840   -0.2157740  
H     7.2758630   -0.9569650    1.8992010  
H     3.5094430   -4.2905460   -2.4281030  
H     7.1090470   -3.0923130   -0.2704980  
H     5.2812770    0.5720250    2.8585000  
C    -2.6726250   -1.1943770    0.1176090  
C    -3.4011900   -0.0166930   -0.0396620  
C    -4.7755970   -0.3435510    0.0993290  
C    -4.8534440   -1.7468740    0.3446030  
N    -3.5734820   -2.2335750    0.3501830  
C    -6.0720770   -2.4120120    0.5329290  
C    -7.2292820   -1.6524940    0.4729620  
O    -8.4438690   -2.2463340    0.6487610  
C    -7.1716580   -0.2491050    0.2288260  
O    -8.4146990    0.3578130    0.2004320  
C    -5.9733130    0.4057620    0.0436060  
H    -2.9631060    0.9490500   -0.2376930  
H    -3.2870090   -3.1914070    0.4890380  
H    -6.1388150   -3.4787180    0.7199900  
H    -9.1179710   -1.5490360    0.5710860  
H    -8.3044940    1.3060550    0.0370930  
H    -5.9508720    1.4779960   -0.1409780  
