62


C    -3.4313760   -0.5381270    0.3811630  
C    -4.5008390    0.2107840    0.8189830  
C    -4.0732880    1.5838880    0.8984100  
C    -2.7153050    1.6175860    0.5071720  
N    -2.3307930    0.3209550    0.2397010  
C    -1.9366410    2.7954920    0.4229480  
C    -2.6201070    3.9831870    0.7257780  
O    -1.9761580    5.1866920    0.6436760  
C    -3.9745270    3.9685950    1.1397770  
O    -4.4683530    5.2257570    1.4219750  
C    -4.7035640    2.7956270    1.2416510  
H    -5.4713130   -0.1778630    1.0941960  
H    -1.5820110    0.1173930   -0.4090680  
H    -2.6116340    5.8759070    0.9092050  
H    -5.3933700    5.1645530    1.7026500  
H    -5.7430220    2.8206360    1.5608320  
C    -0.5346430    2.7344290    0.0301940  
C     0.3132910    1.6467040    0.0368880  
C     1.5852630    2.0522010   -0.4867830  
C     1.4541500    3.4948660   -0.7857840  
N     0.1534070    3.8373350   -0.4783260  
C     2.4565920    4.2777100   -1.2651460  
C     3.7485370    3.6558370   -1.5023310  
O     4.7286390    4.2687470   -1.8987100  
C     3.9012150    2.1069390   -1.2403530  
O     4.9764280    1.5898190   -1.4977820  
C     2.7452940    1.3435630   -0.7190220  
H     0.1089080    0.6769200    0.4560720  
H     2.3438160    5.3368000   -1.4736730  
H    -0.2264370    4.7726670   -0.4641060  
C     1.8223200   -0.9881540   -0.8703330  
C     2.8195550   -0.1097930   -0.5362200  
C     3.8817330   -0.9282750    0.0655020  
C     3.3857390   -2.3296240    0.0534150  
N     2.1450480   -2.2946880   -0.5541160  
C     4.0551050   -3.3983450    0.5565740  
C     5.3599060   -3.1744710    1.1657720  
O     6.0370960   -4.0695720    1.6498270  
C     5.9055060   -1.7015520    1.1996510  
O     6.9853620   -1.4842140    1.7254630  
C     5.0906900   -0.6324640    0.6059380  
H     3.6643730   -4.4110000    0.5272820  
H     5.5028960    0.3689430    0.6086920  
H     0.8838600   -0.7780770   -1.3633150  
H     1.5018100   -3.0738170   -0.6125810  
C    -5.9826880   -3.6845220   -1.5960860  
C    -5.5379260   -2.5204950   -1.0240360  
C    -4.2047700   -2.7639010   -0.5535910  
C    -3.8884520   -4.1104370   -0.8845600  
N    -4.9935150   -4.6447280   -1.5136630  
C    -2.6462970   -4.6966490   -0.6111400  
C    -1.7079200   -3.9052070    0.0292650  
O    -0.4584790   -4.4009860    0.3247110  
C    -1.9978680   -2.5668690    0.3795460  
O    -0.9472480   -1.9409130    1.0349930  
C    -3.2266870   -1.9599790    0.0893590  
H    -6.0911530   -1.5953380   -0.9572890  
H    -5.0644910   -5.5873310   -1.8636280  
H    -2.4062800   -5.7229470   -0.8689250  
H    -0.0957340   -3.8255550    1.0229450  
H    -1.2780820   -1.1345100    1.4671940  
H    -6.9314600   -3.9134030   -2.0604760  
