60


C     4.9550480   -1.7478620   -1.8260210  
C     5.9579210   -2.6651250   -1.6991800  
C     6.8160380   -2.2201340   -0.6357170  
C     6.2884120   -0.9989430   -0.1500800  
N     5.1354720   -0.7153590   -0.8920820  
C     6.8583810   -0.3094040    0.9256030  
C     7.9967780   -0.8524770    1.5010240  
O     8.5955400   -0.2138660    2.5438990  
C     8.5483220   -2.0692460    1.0165000  
O     9.6780550   -2.4769710    1.6940320  
C     7.9724850   -2.7547440   -0.0364970  
H     6.0906580   -3.5451180   -2.3141270  
H     6.4727990    0.6312600    1.2978980  
H     9.3855130   -0.7271050    2.7865170  
H    10.0410970   -3.2722870    1.2768490  
H     8.4011160   -3.6911320   -0.3874020  
H     4.1632260   -1.6719850   -2.5582570  
C     0.8819340   -0.8849610   -0.3775130  
C     0.5762070    0.4669040   -0.3485210  
C     1.8579920    1.1770590   -0.4670370  
C     2.8901920    0.1307980   -0.5722180  
N     2.2216400   -1.0865550   -0.5137870  
C     4.2326260    0.3407620   -0.7006260  
C     4.6842760    1.7517710   -0.7379230  
O     5.8463260    2.0687250   -0.9026440  
C     3.5948780    2.8779390   -0.5741740  
O     3.9744140    4.0355350   -0.5355040  
C     2.1844090    2.4953300   -0.4671170  
H     1.4326400    3.2697970   -0.3816230  
H     0.2110440   -1.7305150   -0.3053600  
H     2.6866030   -1.9843010   -0.5506400  
C    -0.7320630    1.0196130   -0.2191730  
C    -1.9501240    0.3495390   -0.0853120  
C    -2.9391120    1.3486240    0.0202320  
C    -2.1619830    2.6379640   -0.0573130  
N    -0.8809000    2.4304110   -0.2091560  
C    -2.7915530    3.9185540    0.0418550  
C    -4.1280810    3.9320170    0.2569730  
O    -4.8467270    5.0448930    0.4041510  
C    -4.9518160    2.6597250    0.3637500  
O    -6.1534190    2.8441650    0.6123500  
C    -4.3262530    1.3496780    0.1711810  
H    -2.0915470   -0.7176060   -0.0181340  
H    -2.2060410    4.8279650   -0.0294140  
H    -5.7705900    4.7406290    0.5627290  
C    -5.1486520    0.1578440    0.1399130  
C    -4.8362670   -1.1139550   -0.3073080  
C    -5.9973410   -1.9395010   -0.1613520  
C    -7.0532390   -1.0672060    0.4100030  
N    -6.4770030    0.1709600    0.5768250  
C    -8.3169170   -1.4795110    0.6868450  
C    -8.6716070   -2.8689130    0.4137760  
O    -9.7830630   -3.3283610    0.6310760  
C    -7.5664840   -3.8132420   -0.1877330  
O    -7.8467270   -4.9811810   -0.4190270  
C    -6.2426510   -3.2519670   -0.4465030  
H    -3.9044320   -1.4204820   -0.7533460  
H    -9.0787180   -0.8273360    1.1025330  
H    -5.4885800   -3.9116130   -0.8655960  
H    -6.9449730    1.0285540    0.8360830  
