60


C    -1.4713490   -3.7572990   -1.6604080  
C    -2.5358330   -4.6042730   -1.6127280  
C    -3.5090230   -4.0268990   -0.7225070  
C    -2.9730880   -2.8050760   -0.2493380  
N    -1.7150840   -2.6398150   -0.8493500  
C    -3.6307640   -2.0179400    0.7012390  
C    -4.8803000   -2.4433570    1.1284810  
O    -5.5700410   -1.6900630    2.0367000  
C    -5.4482000   -3.6461860    0.6408810  
O    -6.6930250   -3.9288580    1.1618750  
C    -4.7722920   -4.4434410   -0.2670430  
H    -2.6293810   -5.5321190   -2.1602350  
H    -3.2115660   -1.1143490    1.1257150  
H    -6.4038870   -2.1537200    2.2281660  
H    -7.0055340   -4.7809830    0.8231740  
H    -5.2098340   -5.3770750   -0.6140240  
H    -0.5596820   -3.8028950   -2.2365690  
C    -0.8221320   -1.5934530   -0.7014380  
C     0.5484870   -1.6434270   -0.7298890  
C     1.0325390   -0.3098260   -0.5229400  
C    -0.1734750    0.5464670   -0.4008820  
N    -1.2641980   -0.2844420   -0.5580270  
C    -0.1663070    1.9084890   -0.2173480  
C     1.1610320    2.4592940    0.1500400  
O     1.3011860    3.5351450    0.7029520  
C     2.4519790    1.6159670   -0.1242620  
O     3.5243720    2.1999050   -0.0762580  
C     2.3173940    0.1866450   -0.4312970  
H     1.1456470   -2.5390570   -0.8003030  
H    -2.1823490    0.0246280   -0.2237040  
C     3.6374770   -1.5172540   -1.7300370  
C     3.5061950   -0.6228030   -0.7037460  
C     4.7702270   -0.6788360    0.0434840  
C     5.6190090   -1.6831660   -0.6447610  
N     4.8691800   -2.1526770   -1.7057180  
C     6.8733430   -2.0371970   -0.2650520  
C     7.4403980   -1.4074610    0.9209580  
O     8.5583420   -1.6602810    1.3449840  
C     6.5518680   -0.3622110    1.6871550  
O     6.9917460    0.1565740    2.7002420  
C     5.2164490   -0.0489500    1.1587870  
H     7.4710160   -2.7726830   -0.7950250  
H     4.6388410    0.7050390    1.6794840  
H     2.9291600   -1.7445540   -2.5154050  
H     5.2059490   -2.7936220   -2.4071040  
C    -4.4240070    1.6214580    1.1922530  
C    -4.8243690    2.9029930    1.0482220  
C    -3.6996380    3.5965470    0.4351580  
C    -2.6331180    2.5456140    0.3045130  
N    -3.0845470    1.3977340    0.7328110  
C    -1.3146240    2.8307800   -0.2451850  
C    -1.1841040    4.0837370   -0.7958760  
O    -0.1057460    4.4790120   -1.4757970  
C    -2.2429600    5.1446910   -0.7031590  
O    -2.0015060    6.2374350   -1.2142030  
C    -3.5189840    4.8444990   -0.0331980  
H    -5.7793920    3.3375730    1.3078460  
H    -0.2645020    5.4225270   -1.7042680  
H    -4.2594690    5.6366570    0.0168760  
H    -4.9760740    0.7793240    1.5929440  
