64


C    -5.2728850    0.1202090   -0.0027190  
C    -5.6996160   -1.1410280    0.3406720  
C    -7.1287590   -1.1818230    0.2061380  
C    -7.5406410    0.1007550   -0.2295020  
N    -6.4074330    0.9095420   -0.2934180  
C    -8.8754010    0.4170800   -0.4951420  
C    -9.8199890   -0.5826980   -0.3061310  
O   -11.1373850   -0.3283380   -0.5551460  
C    -9.4288670   -1.8679270    0.1511090  
O   -10.4817680   -2.7501550    0.3020740  
C    -8.1051010   -2.1760120    0.4106310  
H    -5.0628650   -1.9340710    0.7074900  
H    -6.3440530    1.6811290   -0.9465920  
H    -9.1944830    1.3978610   -0.8329260  
H   -11.6302160   -1.1432400   -0.3569060  
H   -10.1467440   -3.6026530    0.6168580  
H    -7.8288390   -3.1700020    0.7569330  
C    -1.2755730   -1.5309190   -1.1842220  
C    -2.6112890   -1.3682210   -0.9432140  
C    -2.7925770   -0.0419150   -0.4213080  
C    -1.5127940    0.5639080   -0.3784380  
N    -0.5873170   -0.3677030   -0.8443710  
C    -1.3050740    1.8856710    0.0314850  
C    -2.4222880    2.6069860    0.4224060  
O    -2.2838720    3.8956060    0.8484590  
C    -3.7139670    2.0243690    0.3971830  
O    -4.7122840    2.8746930    0.8339490  
C    -3.9318090    0.7062910   -0.0176840  
H    -3.3815840   -2.1031840   -1.1247770  
H    -0.3249920    2.3479410    0.0597080  
H    -3.1660570    4.1959690    1.1296640  
H    -5.5241190    2.3568490    0.9857400  
H    -0.7256960   -2.3833320   -1.5570400  
C     1.5061440   -0.1643450   -2.1421220  
C     0.7990770   -0.1725710   -0.9750970  
C     1.7483370    0.0040610    0.1130270  
C     3.0708090    0.1275470   -0.5269200  
N     2.8505280    0.0489750   -1.8973860  
C     4.2681660    0.2719520    0.1244590  
C     4.1828060    0.2802280    1.6037970  
O     5.1610720    0.3827580    2.3256180  
C     2.7709660    0.1554080    2.3021250  
O     2.7386440    0.1462970    3.5235460  
C     1.5867450    0.0345300    1.4646300  
H     0.6166010   -0.0474400    1.9427840  
H     1.1391120   -0.2840950   -3.1527420  
H     3.5995030   -0.1088490   -2.5566540  
C     5.7080580    1.1954370   -1.7318720  
C     5.5418510    0.4433290   -0.5779900  
C     6.8456550   -0.1191200   -0.2761450  
C     7.7349350    0.3230830   -1.2866330  
N     7.0130670    1.1219970   -2.1548250  
C     9.0855520   -0.0447280   -1.3345260  
C     9.5520270   -0.8793470   -0.3325100  
O    10.8594320   -1.2640650   -0.3163130  
C     8.6760060   -1.3368120    0.6886800  
O     9.2862630   -2.1583360    1.6171550  
C     7.3441100   -0.9757350    0.7258590  
H     7.4021860    1.6386740   -2.9282050  
H     9.7633920    0.3008520   -2.1082880  
H    10.9857910   -1.8099400    0.4795190  
H     8.6867170   -2.2977900    2.3655790  
H     6.7057320   -1.3132770    1.5350920  
H     5.0001810    1.8354060   -2.2401310  
