62


C     4.0313170   -0.3045380    2.3361970  
C     5.3042920    0.1635010    2.2363480  
C     5.6017810    0.3135530    0.8355370  
C     4.4611510   -0.1081970    0.1118850  
N     3.4890310   -0.4973650    1.0542360  
C     4.3916790   -0.0181160   -1.2816160  
C     5.5064970    0.4626810   -1.9531150  
O     5.4850220    0.5529430   -3.3134430  
C     6.6664300    0.8622650   -1.2424590  
O     7.6900490    1.3158210   -2.0477910  
C     6.7224830    0.7966640    0.1385710  
H     5.9711280    0.3616620    3.0645580  
H     3.5275110   -0.3253630   -1.8553030  
H     6.3473910    0.9032410   -3.5954760  
H     8.4515660    1.5596440   -1.5010160  
H     7.6110470    1.1270430    0.6724800  
H     3.4520310   -0.5893790    3.2012320  
C    -0.3740210    0.4140080    2.9750780  
C     0.9358820    0.5101130    2.6210860  
C     1.1119580   -0.4843570    1.5658650  
C    -0.2400700   -1.0705520    1.3879830  
N    -1.0976790   -0.5507570    2.2258760  
C    -0.5327990   -2.0817310    0.3800210  
C     0.5303590   -2.5301040   -0.3423580  
O     0.4289100   -3.4485730   -1.3188530  
C     1.9210180   -2.0153470   -0.1519030  
O     2.8163470   -2.5325420   -0.8136590  
C     2.1776520   -0.9138370    0.8368500  
H     1.6985670    1.1486150    3.0440420  
H     1.3451080   -3.6012450   -1.6351240  
H    -0.8984800    0.9750370    3.7401160  
C    -4.1432920    0.1175690   -0.7809450  
C    -5.0510680   -0.9092720   -0.9370580  
C    -4.3526840   -2.1101260   -0.5997310  
C    -2.9615170   -1.6458160   -0.2563980  
N    -2.8447590   -0.3626420   -0.3804710  
C    -1.9058760   -2.5661610    0.1295700  
C    -2.2568940   -3.8805730    0.1793820  
O    -1.4283030   -4.8661490    0.5277990  
C    -3.6585440   -4.3761690   -0.1416170  
O    -3.8281670   -5.5972680   -0.0441520  
C    -4.6817880   -3.4310280   -0.5387270  
H    -6.0957510   -0.8312200   -1.2050160  
H    -1.9843440   -5.6813080    0.4672050  
H    -5.6651820   -3.8237460   -0.7767360  
C    -5.3485940    2.2201900   -1.5066590  
C    -4.2881410    1.5344660   -0.9191040  
C    -3.3657240    2.5510310   -0.4414020  
C    -3.9222360    3.8072460   -0.7661240  
N    -5.1261870    3.5635420   -1.4203200  
C    -3.3131140    5.0205860   -0.4255440  
C    -2.1143080    4.9531470    0.2716980  
O    -1.4741370    6.1001060    0.6382910  
C    -1.5486630    3.6970020    0.6178080  
O    -0.3662380    3.7812360    1.3222970  
C    -2.1540080    2.5049700    0.2684470  
H    -5.7369760    4.2741640   -1.7947560  
H    -3.7388570    5.9879550   -0.6714900  
H    -0.6717850    5.8341060    1.1207950  
H    -0.0870060    2.8874880    1.5871840  
H    -1.7218950    1.5469110    0.5318230  
H    -6.2297220    1.8339460   -1.9990720  
