60


C     6.4005760   -2.9072780    2.1836770  
C     7.6237080   -2.7345330    1.5939920  
C     7.5223340   -1.5893130    0.7337390  
C     6.1915100   -1.1073410    0.8500980  
N     5.5311780   -1.9237640    1.7405330  
C     5.7458760    0.0188560    0.1333870  
C     6.6579650    0.6677220   -0.6972910  
O     6.2651000    1.7670290   -1.3994050  
C     7.9913840    0.1982330   -0.8029080  
O     8.7673840    0.9559930   -1.6550870  
C     8.4278110   -0.9138600   -0.1075030  
H     8.4985730   -3.3492700    1.7524720  
H     4.5617780   -1.8416030    2.0037870  
H     7.0284330    2.0548520   -1.9315310  
H     9.6380340    0.5450680   -1.7630320  
H     9.4562480   -1.2541020   -0.2050990  
H     6.0642370   -3.6532060    2.8894430  
C     4.0577450    1.7772630    0.6637540  
C     2.7056300    1.9706990    0.6004620  
C     2.1181470    0.7646050    0.1000250  
C     3.2504510   -0.1668310   -0.1229860  
N     4.4129010    0.5087580    0.2453670  
C     3.1411930   -1.4279240   -0.6115720  
C     1.8032230   -1.9350120   -0.8851890  
O     1.5871630   -3.0395490   -1.3527690  
C     0.5756070   -1.0202360   -0.5408950  
O    -0.5318920   -1.5426330   -0.5953760  
C     0.8051790    0.3918520   -0.1637330  
H     2.1919370    2.8608000    0.9235630  
H     3.9940290   -2.0641150   -0.8199600  
H     4.8306220    2.4585640    0.9913830  
C    -0.3160140    1.3061030   -0.0732360  
C    -0.3631610    2.6840800   -0.0477700  
C    -1.7385820    3.0809830    0.0353540  
C    -2.5334260    1.8315750    0.0348330  
N    -1.6313650    0.8152820   -0.0372560  
C    -3.9145310    1.7678410    0.0996050  
C    -4.6015550    3.0574700    0.2986670  
O    -5.8009190    3.1607150    0.5324070  
C    -3.7775040    4.3932890    0.2177850  
O    -4.3871790    5.4504760    0.2698970  
C    -2.3303450    4.3088030    0.1002740  
H     0.4700390    3.3615430   -0.1387100  
H    -1.7666410    5.2360430    0.0740890  
H    -1.8199170   -0.1790300   -0.0298050  
C    -4.6642560    0.5270950    0.0153610  
C    -4.2886280   -0.7204350   -0.4491150  
C    -5.4212890   -1.5955270   -0.3348000  
C    -6.5199560   -0.7750890    0.2338440  
N    -5.9957370    0.4803310    0.4331540  
C    -7.7713790   -1.2404910    0.4832880  
C    -8.0660200   -2.6369740    0.1816040  
O    -9.1614580   -3.1449140    0.3741280  
C    -6.9142240   -3.5266580   -0.4179880  
O    -7.1468780   -4.7001080   -0.6731990  
C    -5.6089250   -2.9103740   -0.6450160  
H    -3.3503010   -0.9970840   -0.9053010  
H    -8.5634640   -0.6245770    0.8975770  
H    -4.8217440   -3.5318660   -1.0613530  
H    -6.4925320    1.3260900    0.6866350  
