60


C    -7.5580900   -1.3496290    2.6668600  
C    -6.3392940   -1.0640870    2.1106820  
C    -6.5755850   -0.5952950    0.7752570  
C    -7.9837950   -0.6084270    0.5849790  
N    -8.5543450   -1.0834910    1.7466800  
C    -8.6063420   -0.1759150   -0.5901140  
C    -7.7865790    0.3137940   -1.5935340  
O    -8.3253620    0.7650680   -2.7599890  
C    -6.3784170    0.3664030   -1.4310340  
O    -5.7105660    0.8541170   -2.5358720  
C    -5.7407420   -0.1098630   -0.2743770  
H    -5.3829920   -1.1981080    2.5917620  
H    -9.5439920   -1.1785120    1.9102150  
H    -9.6825400   -0.1950900   -0.7297580  
H    -7.5676340    1.0680460   -3.2957170  
H    -5.0785110    1.5388890   -2.2295440  
H    -7.8034700   -1.7319230    3.6475950  
C    -2.8769860   -3.2467550    0.9091900  
C    -1.6895000   -2.6014710    0.8186740  
C    -2.0179310   -1.2566440    0.3582750  
C    -3.5023760   -1.2618120    0.2582450  
N    -3.9917040   -2.4307630    0.5600720  
C    -4.2710080   -0.0870140   -0.1655190  
C    -3.5062480    0.9952630   -0.4929940  
O    -4.0429110    2.1786460   -0.9208370  
C    -2.0328010    1.0418190   -0.4011830  
O    -1.4816520    2.1108540   -0.6917370  
C    -1.2636640   -0.1708990    0.0214650  
H    -0.7062630   -2.9843520    1.0501790  
H    -3.2667230    2.7699250   -1.0535950  
H    -3.0624890   -4.2689260    1.2157260  
C     0.9746440   -1.2163440   -0.4367930  
C     0.1897830   -0.1706260   -0.0311700  
C     1.1642330    0.8760950    0.3335180  
C     2.5009400    0.2463880    0.0890390  
N     2.3567020   -0.9694610   -0.3707870  
C     3.7691930    0.9295220    0.3437060  
C     3.6479940    2.2115840    0.8451440  
O     4.6526970    3.0255810    1.1468130  
C     2.3051510    2.8493440    1.1117320  
O     2.3086650    3.9913590    1.5678470  
C     1.0602940    2.1198940    0.8304230  
H     4.2225440    3.8497600    1.4785400  
H     0.1260250    2.6343820    1.0154010  
H     0.6342780   -2.1671680   -0.8284620  
C     5.0392810    0.2739870    0.0819600  
C     5.2652680   -0.9725780   -0.4446230  
C     6.7009990   -1.1244730   -0.4918300  
C     7.2283550    0.1621440    0.0630180  
N     6.2692780    0.9697470    0.3946930  
C     8.6442610    0.4068860    0.1864630  
C     9.4872630   -0.5707240   -0.2194730  
O    10.8249710   -0.4868890   -0.1663270  
C     8.9838680   -1.8795470   -0.7840710  
O     9.8299080   -2.7064840   -1.1251890  
C     7.5376660   -2.1068130   -0.8995080  
H     4.5225590   -1.6885090   -0.7552320  
H     9.0007440    1.3472340    0.5917860  
H    11.1503120   -1.3423180   -0.5269240  
H     7.2136160   -3.0588180   -1.3087080  
