60


C    -6.0572970    1.0618060    1.8078840  
C    -7.3322250    0.5825370    1.8116060  
C    -7.4207510   -0.4183690    0.7820680  
C    -6.1491490   -0.4974970    0.1630200  
N    -5.3149680    0.4325780    0.8012130  
C    -5.8650410   -1.4279050   -0.8414110  
C    -6.8924990   -2.2671750   -1.2509090  
O    -6.6615410   -3.1853590   -2.2364480  
C    -8.1753770   -2.1849740   -0.6577820  
O    -9.0930330   -3.0826260   -1.1703420  
C    -8.4466240   -1.2770030    0.3520500  
H    -8.1236280    0.8993980    2.4772010  
H    -4.8958930   -1.5102970   -1.3144910  
H    -7.4925120   -3.6709170   -2.3759690  
H    -9.9412010   -2.9706670   -0.7164090  
H    -9.4328130   -1.2412100    0.8110430  
H    -5.5837330    1.8012410    2.4327660  
C    -1.9874040    0.9024990    3.5268060  
C    -0.9571860    1.0919530    2.6732000  
C    -1.5486960    1.0472010    1.3400770  
C    -3.0033180    0.8143840    1.5999270  
N    -3.2510430    0.7355470    2.8729000  
C    -3.9716180    0.7072110    0.5150400  
C    -3.4896900    0.8835750   -0.7514010  
O    -4.2635080    0.8594890   -1.8527970  
C    -2.0446520    1.0960460   -1.0341230  
O    -1.7053370    1.1860820   -2.2141360  
C    -1.0613840    1.2064540    0.0886920  
H     0.0885370    1.2264900    2.9056900  
H    -3.6417310    0.9816120   -2.6039990  
H    -1.9631010    0.8651470    4.6090190  
C     2.5194210   -1.1850820    0.8693950  
C     3.5171460   -0.4560910    0.2806090  
C     2.8243680    0.7270240   -0.2671600  
C     1.3953660    0.5170080    0.1130830  
N     1.2392500   -0.6045120    0.7664420  
C     0.3536500    1.4536420   -0.2542360  
C     0.7462860    2.5476110   -0.9715110  
O    -0.0852540    3.5253090   -1.3392490  
C     2.1730480    2.7686440   -1.3899930  
O     2.4286520    3.7808390   -2.0361190  
C     3.2052950    1.7815480   -1.0109800  
H     0.4558770    4.1615910   -1.8577010  
H     4.2152900    1.9603880   -1.3656990  
H     2.6248230   -2.1211860    1.4047030  
C     4.9188240   -0.7764990    0.1977850  
C     5.5334690   -2.0040980    0.2094360  
C     6.9538420   -1.7990620    0.1258520  
C     7.1535350   -0.3309480    0.0672640  
N     5.8845240    0.2376220    0.0494950  
C     8.3629760    0.2770600    0.0403760  
C     9.5622890   -0.5621520    0.0347420  
O    10.6920090   -0.1008590    0.0092170  
C     9.3744390   -2.1230740    0.0500150  
O    10.3659900   -2.8368330    0.0327530  
C     8.0130930   -2.6561770    0.0966990  
H     5.0279250   -2.9592790    0.2144340  
H     8.4923700    1.3546710    0.0076350  
H     7.8947900   -3.7350140    0.1267210  
H     5.7220240    1.1804720    0.3749590  
