64


C     4.5838000   -0.6209560   -0.4638640  
C     5.3230240   -1.4271120   -1.3195020  
C     6.6524990   -1.4965100   -0.8171270  
C     6.6912500   -0.7104570    0.3700650  
N     5.4368920   -0.1621380    0.5424240  
C     7.8459960   -0.5710580    1.1458960  
C     8.9886650   -1.2267060    0.7120090  
O    10.1408690   -1.1266290    1.4287130  
C     8.9749840   -2.0038580   -0.4824310  
O    10.1931130   -2.5819330   -0.7760460  
C     7.8338320   -2.1420390   -1.2451040  
H     4.9480810   -1.8701920   -2.2319060  
H     5.1109060    0.2454530    1.4058410  
H     7.8810340    0.0230820    2.0531250  
H    10.8197780   -1.6449820    0.9623270  
H    10.1227490   -3.0925360   -1.5962580  
H     7.8442220   -2.7425300   -2.1522140  
C     2.1579050   -0.8933420   -1.1312740  
C     3.1974890   -0.2510980   -0.5148230  
C     2.5708510    0.9661630    0.0643490  
C     1.1341740    0.8407500   -0.2787920  
N     0.9227770   -0.2332630   -0.9955670  
C     0.1503310    1.8538840    0.0944140  
C     0.6738070    2.9610420    0.7068330  
O    -0.0915190    4.0225120    1.1110810  
C     2.1014080    3.1407960    1.0177010  
O     2.4561180    4.1780610    1.5952470  
C     3.0564370    2.0759120    0.6500900  
H     0.5558990    4.6440700    1.5188010  
H     4.1061520    2.2658650    0.8524360  
H     2.1920770   -1.8308620   -1.6720460  
C    -2.8008730   -1.4840380    0.7692530  
C    -1.6733760   -0.7100280    0.7475580  
C    -2.0010020    0.5068640    0.0612180  
C    -3.3687390    0.4124200   -0.3036190  
N    -3.8437750   -0.8205940    0.1277060  
C    -4.0654540    1.4441820   -0.9394750  
C    -3.3634250    2.6091880   -1.1980500  
O    -3.9799270    3.6614780   -1.8059680  
C    -1.9980910    2.7446480   -0.8353680  
O    -1.4451540    3.9570470   -1.1944850  
C    -1.2813390    1.7018640   -0.2315030  
H    -0.7101820   -0.9937980    1.1435310  
H    -5.1085200    1.3593090   -1.2196200  
H    -3.2993350    4.3585770   -1.8671980  
H    -0.9620710    4.3121540   -0.4176360  
H    -2.9590240   -2.4829360    1.1511090  
C    -6.5769320   -1.7532330    3.3798930  
C    -7.6377050   -2.1577910    2.6112380  
C    -7.2374710   -2.0338980    1.2373110  
C    -5.9064810   -1.5453800    1.2442230  
N    -5.5266390   -1.3859720    2.5583900  
C    -5.1809200   -1.2901820    0.0656990  
C    -5.8235090   -1.5347870   -1.1463130  
O    -5.1705980   -1.3165880   -2.3209980  
C    -7.1623650   -2.0089380   -1.1623140  
O    -7.6600410   -2.1945750   -2.4393520  
C    -7.8680360   -2.2650730   -0.0019970  
H    -8.5939110   -2.5031560    2.9796130  
H    -4.6337000   -1.0240670    2.8566910  
H    -5.7917580   -1.5344290   -3.0376440  
H    -8.5663540   -2.5315580   -2.3864590  
H    -8.8918890   -2.6303440   -0.0503990  
H    -6.4762400   -1.6957110    4.4544980  
