64


C    -4.9725700   -0.2186370   -2.3963060  
C    -4.9519920   -0.3896050   -1.0255110  
C    -6.2784690   -0.0547700   -0.5575220  
C    -7.0460520    0.3098130   -1.6915450  
N    -6.2235060    0.2041500   -2.7965470  
C    -8.3859950    0.7101090   -1.6049310  
C    -8.9608470    0.7409060   -0.3449180  
O   -10.2642770    1.1173920   -0.1989340  
C    -8.2046540    0.3820720    0.8038520  
O    -8.9178420    0.4639600    1.9858670  
C    -6.8831740   -0.0081490    0.7139780  
H    -6.5127610    0.3387240   -3.7525800  
H    -8.9760340    0.9885510   -2.4721630  
H   -10.4739660    1.0603720    0.7493390  
H    -8.3614170    0.1590000    2.7176750  
H    -6.3282700   -0.2957790    1.6024580  
H    -4.2002310   -0.4227730   -3.1254960  
C    -0.9388780    1.3015940   -1.0264890  
C    -0.3212530    0.4502750   -0.1098310  
C    -1.3465840   -0.4988230    0.3030580  
C    -2.5302700   -0.1512960   -0.3896710  
N    -2.2363070    0.9372650   -1.1969790  
C    -3.7758570   -0.7936660   -0.2347300  
C    -3.7960090   -1.8277140    0.7036970  
O    -4.9458810   -2.5269050    0.9297420  
C    -2.6274730   -2.1833820    1.4241330  
O    -2.8215440   -3.2308850    2.3056160  
C    -1.4146930   -1.5482360    1.2385620  
H    -2.9105520    1.3818030   -1.8033970  
H    -4.7246750   -3.2355450    1.5598340  
H    -1.9640490   -3.5266840    2.6461360  
H    -0.5334060   -1.8696240    1.7811040  
H    -0.5009240    2.1016730   -1.6048040  
C     2.3834260    3.9580410    0.3795360  
C     1.2593980    3.2039390    0.2737850  
C     1.7115140    1.8187530    0.3416320  
C     3.1698800    1.9347470    0.5085670  
N     3.5625840    3.1833050    0.5168030  
C     4.0288950    0.7598500    0.6409140  
C     3.3991590   -0.4517110    0.6856610  
O     4.0420420   -1.6207530    0.9099860  
C     1.9345210   -0.5926900    0.5228000  
O     1.4749330   -1.7369010    0.6157050  
C     1.0693280    0.6098510    0.2662660  
H     0.2368190    3.5457980    0.2035450  
H     3.3330150   -2.2999580    0.8777380  
H     2.4677020    5.0380140    0.3878780  
C     6.0603830    1.8813880    1.5125810  
C     7.4109470    1.7442220    1.4042880  
C     7.6635870    0.6553310    0.4986220  
C     6.4048720    0.1472830    0.0920770  
N     5.4178110    0.9096060    0.7354390  
C     6.2858020   -0.8766230   -0.8528930  
C     7.4558870   -1.4201290   -1.3657470  
O     7.3855170   -2.4304860   -2.2853660  
C     8.7206330   -0.9395260   -0.9511100  
O     9.7931690   -1.5785850   -1.5469450  
C     8.8351710    0.0903790   -0.0322600  
H     8.1496060    2.3548970    1.9056070  
H     5.3329140   -1.2672550   -1.1824770  
H     8.2992690   -2.6675940   -2.5184180  
H    10.6183390   -1.1933030   -1.2175320  
H     9.8156250    0.4625750    0.2593200  
H     5.4681630    2.5905730    2.0665720  
