60


C    -5.2991970    3.6506260   -1.4242850  
C    -4.5407930    2.5760250   -1.0280920  
C    -5.4430830    1.5584840   -0.5721710  
C    -6.7545710    2.0817200   -0.7346310  
N    -6.6326380    3.3612050   -1.2370360  
C    -7.9094320    1.3506520   -0.4522960  
C    -7.7396940    0.0412570   -0.0235420  
O    -8.8249060   -0.7233050    0.2576350  
C    -6.4493380   -0.5289930    0.1267320  
O    -6.4802820   -1.8194040    0.5896300  
C    -5.2767630    0.2152700   -0.0969270  
H    -3.4628320    2.5281590   -1.0637440  
H    -7.4026010    3.9596830   -1.4929240  
H    -8.9098870    1.7516670   -0.5785840  
H    -8.4769620   -1.6042510    0.4961970  
H    -5.7957800   -2.3264770    0.0958430  
H    -4.9925410    4.6065220   -1.8245300  
C    -1.7891970    1.8419090    2.0953560  
C    -3.0263760    1.5947150    1.6016590  
C    -2.9455040    0.3862480    0.8103060  
C    -1.5416840   -0.0479400    0.8706470  
N    -0.8856010    0.8805070    1.6285210  
C    -1.0103170   -1.1792170    0.2600150  
C    -1.9979640   -2.0728740   -0.3360430  
O    -1.7419600   -3.1696780   -0.8216580  
C    -3.5166370   -1.6542620   -0.3410200  
O    -4.2972070   -2.5081120   -0.7477510  
C    -3.9278330   -0.3196040    0.1371600  
H    -3.9179020    2.1755140    1.7761290  
H    -1.4442830    2.6301610    2.7500070  
H     0.0464150    0.7407880    1.9907580  
C     0.4004610   -1.4853890    0.2140230  
C     1.5068080   -0.6838000    0.4759910  
C     2.6796370   -1.4616830    0.2327800  
C     2.2124200   -2.8012240   -0.1912670  
N     0.8361240   -2.7514760   -0.1588300  
C     3.0276090   -3.8257020   -0.5484280  
C     4.4695690   -3.6083670   -0.5117260  
O     5.2827850   -4.4543190   -0.8471010  
C     5.0071440   -2.2156890   -0.0136020  
O     6.2102830   -2.0497420    0.0995160  
C     4.0209130   -1.1743590    0.3179050  
H     1.5045780    0.3772150    0.6717300  
H     2.6605340   -4.7953230   -0.8686720  
H     0.1855320   -3.4494380   -0.5011750  
C     4.2004140    0.5473690    2.1084670  
C     4.7949990    1.7447860    2.3359010  
C     5.5179400    2.1004780    1.1335890  
C     5.2946010    0.9907160    0.1745990  
N     4.4714410    0.0667410    0.8223620  
C     5.7860920    0.9663240   -1.0880100  
C     6.6015810    2.0938110   -1.5379980  
O     7.0718360    2.1647560   -2.6628240  
C     6.8671880    3.2706770   -0.5299140  
O     7.5468300    4.2193610   -0.8901720  
C     6.2689570    3.1841160    0.8037770  
H     4.7571770    2.3168510    3.2519230  
H     5.6180920    0.1486410   -1.7792890  
H     6.4429260    4.0077620    1.4897450  
H     3.5955080   -0.0592370    2.7695230  
