62


C     0.5041270    5.5622130   -2.1306950  
C     1.5371430    6.1985530   -1.4946170  
C     2.1061450    5.2563640   -0.5740460  
C     1.3618660    4.0565510   -0.6895010  
N     0.3866820    4.2755990   -1.6363110  
C     1.6627400    2.8728150    0.0338240  
C     2.7619760    2.9585440    0.9091250  
O     3.1018250    1.9150340    1.7122550  
C     3.5034480    4.1607610    1.0389580  
O     4.5331850    4.0707140    1.9558080  
C     3.1934710    5.2986260    0.3199780  
H     1.8583420    7.2172340   -1.6619350  
H    -0.2128330    3.5532710   -2.0051330  
H     3.8803380    2.1970570    2.2261520  
H     5.0008320    4.9169010    2.0110530  
H     3.7815310    6.2056380    0.4438120  
H    -0.1739460    5.9195510   -2.8925700  
C     0.8735660    1.6650190   -0.1268050  
C    -0.4754470    1.5571260   -0.3818130  
C    -0.7555820    0.1468800   -0.4094580  
C     0.5759940   -0.5086980   -0.2277060  
N     1.5065060    0.3856730   -0.0425610  
C     0.7600010   -1.9530890   -0.2302150  
C    -0.4053640   -2.6727650   -0.2027120  
O    -0.4551310   -4.0018650   -0.0567110  
C    -1.7666310   -2.0611400   -0.3600230  
O    -2.7307010   -2.8265280   -0.4113300  
C    -1.8995280   -0.5913830   -0.4649220  
H    -1.2066370    2.3535630   -0.3784400  
H    -1.4061940   -4.2382940   -0.1367120  
C    -3.4086740    0.8887970   -1.7481820  
C    -4.6912710    1.3221800   -1.7422660  
C    -5.3612670    0.6790200   -0.6328620  
C    -4.3483720   -0.1878530    0.0181210  
N    -3.1638550   -0.0326250   -0.7191180  
C    -4.5833890   -0.9094090    1.1392690  
C    -5.9249240   -0.8708490    1.7258190  
O    -6.2192600   -1.4913920    2.7349540  
C    -7.0210310    0.0090330    1.0263140  
O    -8.1469990    0.0422610    1.4972490  
C    -6.6328590    0.7690560   -0.1633070  
H    -5.1387220    2.0077790   -2.4475240  
H    -3.8419440   -1.5362980    1.6184970  
H    -7.3842830    1.4005110   -0.6275790  
H    -2.6020030    1.1257340   -2.4281910  
C     4.5182830   -1.3119580    2.1374590  
C     5.2011010   -2.4056360    1.6746840  
C     4.3660670   -3.0245310    0.6855830  
C     3.1690800   -2.2602030    0.6141700  
N     3.2796030   -1.2354110    1.5314900  
C     2.0886390   -2.6052530   -0.2379040  
C     2.3234180   -3.6842180   -1.1065440  
O     1.4000700   -4.0178460   -2.0516730  
C     3.5209060   -4.4391540   -1.0482400  
O     3.5650420   -5.4793340   -1.9626810  
C     4.5270630   -4.1435100   -0.1520590  
H     6.1787850   -2.7376380    1.9967410  
H     2.7587230   -0.3684850    1.4210520  
H     1.7338890   -4.8127750   -2.5032050  
H     4.4008520   -5.9578770   -1.8634010  
H     5.4316230   -4.7477920   -0.1147890  
H     4.8107090   -0.5704200    2.8681550  
