66


C     5.5151440    1.4127110   -1.9772650  
C     6.8268630    1.3642900   -2.3639090  
C     7.5094030    0.5062610   -1.4378300  
C     6.5405580    0.0527650   -0.5033740  
N     5.3191310    0.6240800   -0.8475070  
C     6.8542790   -0.8332380    0.5402460  
C     8.1729820   -1.2522930    0.6497740  
O     8.5303610   -2.1150470    1.6454130  
C     9.1553740   -0.7982710   -0.2681230  
O    10.4208670   -1.3004040   -0.0259070  
C     8.8391170    0.0627140   -1.3036000  
H     7.2588880    1.8831980   -3.2087500  
H     6.1081940   -1.2239600    1.2241680  
H     9.4799710   -2.2973910    1.5399790  
H    11.0293880   -0.9846910   -0.7100150  
H     9.6084030    0.3878550   -2.0016990  
H     4.6788880    1.9553910   -2.3936050  
C     1.3231000   -0.8102810   -2.1374900  
C     2.6511870   -0.4793310   -2.1099410  
C     2.9302480    0.0072010   -0.7891520  
C     1.7203800   -0.0621650   -0.0512920  
N     0.7402810   -0.5643850   -0.8996560  
C     1.6321220    0.2912450    1.3012940  
C     2.7872920    0.7495000    1.9150420  
O     2.7631870    1.1168620    3.2298910  
C     4.0058040    0.8639620    1.1959700  
O     5.0479790    1.3885350    1.9294380  
C     4.0890850    0.4927190   -0.1435960  
H     3.3490010   -0.5689240   -2.9301310  
H     0.7118050    0.2083510    1.8677220  
H     3.6737750    1.3666140    3.4674830  
H     5.8953110    1.1810130    1.4994860  
H     0.7118170   -1.1943280   -2.9416160  
C    -1.2469630   -2.0285720   -0.6529330  
C    -0.6094060   -0.8122810   -0.5676880  
C    -1.5791270    0.1558790   -0.1256810  
C    -2.7957160   -0.5463260    0.0486340  
N    -2.5622910   -1.8684100   -0.2773950  
C    -4.0037150    0.0618640    0.4578320  
C    -3.9323420    1.4386150    0.6782250  
O    -5.0406320    2.1255670    1.0903880  
C    -2.7195860    2.1574770    0.4998900  
O    -2.8377810    3.5115980    0.7623240  
C    -1.5464790    1.5440650    0.1083620  
H    -3.2868490   -2.5685570   -0.3271640  
H    -4.7557870    3.0417730    1.2552570  
H    -1.9549130    3.9081460    0.8034250  
H    -0.6306050    2.1149520   -0.0203010  
H    -0.8537240   -2.9928340   -0.9404530  
C    -5.3133260   -1.9234780    1.3353440  
C    -5.2326320   -0.7299960    0.6447940  
C    -6.5599360   -0.4733840    0.1298150  
C    -7.3883930   -1.5463010    0.5439840  
N    -6.6012580   -2.4153820    1.2741860  
C    -8.7457160   -1.6325390    0.2071590  
C    -9.2762270   -0.6120780   -0.5650620  
O   -10.5944120   -0.6388500   -0.9202250  
C    -8.4595330    0.4687810   -0.9930900  
O    -9.1326090    1.4066520   -1.7563150  
C    -7.1213980    0.5480110   -0.6613300  
H    -6.9305670   -3.2419990    1.7472580  
H    -9.3815130   -2.4526130    0.5252030  
H   -10.7650880    0.1648070   -1.4411460  
H    -8.5338390    2.1399710   -1.9607950  
H    -6.5197500    1.3934580   -0.9820450  
H    -4.5541960   -2.4359860    1.9102280  
