60


C     3.6603510    1.3214660    2.2460280  
C     3.2989960    0.5765910    1.1386440  
C     4.4976440    0.4392770    0.3345480  
C     5.5367090    1.1197320    1.0179620  
N     4.9924060    1.6474520    2.1750380  
C     6.8422500    1.2120260    0.5222270  
C     7.1075090    0.6098820   -0.6976640  
O     8.3631460    0.6645020   -1.2242930  
C     6.0762770   -0.0577530   -1.4109070  
O     6.4894480   -0.5871560   -2.6168870  
C     4.7874880   -0.1433510   -0.9166900  
H     5.5059360    2.1483060    2.8836010  
H     7.6365820    1.7318490    1.0479690  
H     8.3422720    0.1902420   -2.0735370  
H     5.7544390   -1.0571410   -3.0378480  
H     4.0145150   -0.6415890   -1.4966840  
H     3.0595450    1.6114460    3.0962180  
C     0.7702070    0.7187150    1.0678600  
C     1.9558830    0.0801270    0.8833210  
C     1.5699140   -1.2735890    0.4335560  
C     0.0736340   -1.2716570    0.4286940  
N    -0.3665050   -0.0921910    0.7871750  
C    -0.7077350   -2.4449490    0.0565880  
C     0.0320290   -3.5002250   -0.4254570  
O    -0.5143670   -4.5986860   -0.9582900  
C     1.5256550   -3.5322600   -0.4120360  
O     2.0872720   -4.5402830   -0.8435900  
C     2.2745340   -2.3608930    0.0788810  
H     0.2373650   -5.2001080   -1.1566350  
H     3.3578930   -2.4189730    0.0840020  
H     0.6167840    1.7477280    1.3715370  
C    -4.1677730    0.3445910   -0.5597140  
C    -5.1775000   -0.5802430   -0.4261910  
C    -4.5835070   -1.8383670   -0.0784820  
C    -3.1150040   -1.6074580   -0.0592520  
N    -2.9314150   -0.2835290   -0.3842720  
C    -2.1708850   -2.5733940    0.1883950  
C    -2.7192500   -3.8484020    0.7304680  
O    -2.0346360   -4.6569650    1.3306320  
C    -4.2524130   -4.1480130    0.5905580  
O    -4.6470540   -5.2808260    0.8282280  
C    -5.1299500   -3.0571860    0.2004050  
H    -6.2360070   -0.3748360   -0.4951530  
H    -6.1963940   -3.2508940    0.1387900  
H    -2.0435640    0.1673770   -0.1605900  
C    -5.2401850    2.4264450   -1.5154770  
C    -4.2650360    1.7587950   -0.8257760  
C    -3.3426110    2.8249700   -0.3867530  
C    -3.9439860    4.0736030   -0.9351210  
N    -5.0524720    3.8250300   -1.5838730  
C    -3.3414970    5.3598280   -0.7164080  
C    -2.2082280    5.4121580    0.0270010  
O    -1.5422580    6.5432260    0.3040590  
C    -1.5971650    4.1723880    0.6174380  
O    -0.5651080    4.2942980    1.2762220  
C    -2.2430080    2.8621910    0.3881120  
H    -3.7970250    6.2501870   -1.1352060  
H    -0.7738660    6.2739120    0.8526150  
H    -1.7873660    1.9985550    0.8617180  
H    -6.0968610    1.9914420   -2.0164700  
