62


C     3.7669330    1.6142760    0.1943280  
C     4.9926610    1.2040050   -0.2691140  
C     4.9034990   -0.2156320   -0.4767620  
C     3.5842340   -0.6083190   -0.1401530  
N     2.9074740    0.5281550    0.2645150  
C     3.1209450   -1.9384870   -0.2247210  
C     4.0489780   -2.8881440   -0.6619520  
O     3.6629820   -4.1822320   -0.8158430  
C     5.3719190   -2.5106180   -1.0050870  
O     6.1512640   -3.5659300   -1.4367210  
C     5.8065490   -1.1996940   -0.9223780  
H     5.8377770    1.8450340   -0.4756860  
H     2.0199010    0.5396430    0.7435040  
H     4.4562950   -4.6978900   -1.0436420  
H     7.0677330   -3.2716270   -1.5444040  
H     6.8258720   -0.9399970   -1.2001770  
C    -0.7690950   -0.3736000   -1.5600450  
C     0.5311460   -0.7214850   -1.4513760  
C     0.6434470   -1.7056900   -0.3918230  
C    -0.7315700   -1.9502250    0.0956540  
N    -1.5666250   -1.1008870   -0.6538770  
C    -1.0475530   -2.8136340    1.0926820  
C     0.0376480   -3.5784820    1.7052210  
O    -0.1570590   -4.4323500    2.5547100  
C     1.5146640   -3.2679460    1.2712390  
O     2.4212340   -3.7821090    1.8967730  
C     1.7431240   -2.3062390    0.1570250  
H     1.3439460   -0.3490460   -2.0562140  
H    -2.0506190   -2.9646540    1.4728240  
H    -1.2476790    0.3337230   -2.2221700  
C    -2.9150290   -0.8430120   -0.4721800  
C    -3.5749110    0.3436440   -0.6227470  
C    -4.9738660    0.0826190   -0.3989130  
C    -5.0834900   -1.3663830   -0.0985650  
N    -3.7840840   -1.8743160   -0.1000910  
C    -6.2474470   -2.0186570    0.1226380  
C    -7.4910160   -1.2436590    0.0984240  
O    -8.5852090   -1.7489610    0.2889870  
C    -7.3962630    0.3020410   -0.1717150  
O    -8.4255920    0.9609680   -0.1834830  
C    -6.0767140    0.8813240   -0.4126080  
H    -3.1092970    1.3037370   -0.7976670  
H    -6.3096030   -3.0819110    0.3335760  
H    -6.0245590    1.9463480   -0.6166210  
H    -3.5840580   -2.8442520   -0.3041500  
C     4.0742960    3.8022450    1.3090810  
C     3.3490270    4.9418360    1.5108870  
C     2.0674740    4.7484870    0.8900330  
C     2.0764310    3.4548100    0.3100510  
N     3.3206340    2.8799890    0.5830830  
C     0.9864330    2.9482660   -0.4100870  
C    -0.1389230    3.7491330   -0.5189950  
O    -1.2375020    3.2944370   -1.2066780  
C    -0.1730390    5.0390250    0.0676860  
O    -1.3635260    5.7106350   -0.1298330  
C     0.9131160    5.5446500    0.7600550  
H     3.6823870    5.8159340    2.0531540  
H     0.9947830    1.9752360   -0.8841090  
H    -1.8870480    4.0195140   -1.2094390  
H    -1.3118870    6.5924670    0.2677120  
H     0.8723500    6.5415370    1.1943030  
H     5.0675520    3.5312290    1.6357910  
