62


C    -5.5790850    0.4394840    2.4298920  
C    -6.8729150    0.0070130    2.3935810  
C    -7.0017880   -0.8954420    1.2786240  
C    -5.7353820   -0.9810130    0.6531650  
N    -4.8774530   -0.1566260    1.3779730  
C    -5.4843180   -1.7727010   -0.4704990  
C    -6.5494110   -2.5013060   -0.9791660  
O    -6.3682330   -3.2920980   -2.0744780  
C    -7.8311430   -2.4330030   -0.3696500  
O    -8.7832030   -3.2166860   -0.9912820  
C    -8.0667800   -1.6460330    0.7426900  
H    -7.6543420    0.2980250    3.0822210  
H    -4.5124130   -1.8274310   -0.9480730  
H    -7.2275620   -3.6972720   -2.2840970  
H    -9.6425860   -3.0857330   -0.5640980  
H    -9.0568470   -1.6097420    1.1926460  
H    -5.0682170    1.1212290    3.0940810  
C    -2.4994270   -0.7023880    1.6329570  
C    -1.3091080   -0.1978010    1.2301760  
C    -1.5782380    0.9570540    0.3914260  
C    -3.0494400    1.0999270    0.3378320  
N    -3.5560350    0.0471130    1.0978420  
C    -3.7270520    2.0846280   -0.3004760  
C    -2.9473360    3.0919570   -1.0092680  
O    -3.4477440    4.0419980   -1.5899460  
C    -1.3843420    2.9336310   -1.0367410  
O    -0.7358100    3.6764230   -1.7496830  
C    -0.7512180    1.8405620   -0.2465040  
H    -0.3332980   -0.5818830    1.4856940  
H    -4.8086190    2.1638920   -0.2920360  
H    -2.7307210   -1.5482090    2.2659230  
C     2.1957310   -1.2603510   -1.5163600  
C     1.0547030   -0.5774870   -1.2389340  
C     1.4430000    0.6914980   -0.6644170  
C     2.9260400    0.6929820   -0.6463880  
N     3.3336180   -0.5311900   -1.1695590  
C     3.6976130    1.7274630   -0.2235060  
C     3.0308380    2.9240910    0.2715490  
O     3.6318680    3.9142490    0.6600800  
C     1.4614240    2.9300850    0.3251410  
O     0.8990190    3.8644350    0.8679300  
C     0.7181270    1.7678210   -0.2249050  
H     0.0463380   -0.9189030   -1.4165820  
H     4.7813750    1.7076900   -0.2540830  
H     2.3239890   -2.2454460   -1.9450670  
C     5.2407800   -1.2198990   -2.5959160  
C     4.6684610   -0.9487050   -1.3741870  
C     5.6565990   -1.2085200   -0.3593100  
C     6.8206230   -1.6421140   -1.0409990  
N     6.5324860   -1.6498920   -2.3936490  
C     8.0011890   -1.9869360   -0.3704580  
C     8.0025240   -1.8880800    1.0114030  
O     9.1260740   -2.2041510    1.7136200  
C     6.8404100   -1.4563050    1.7098960  
O     7.0013260   -1.4173390    3.0796820  
C     5.6756140   -1.1210410    1.0470760  
H     7.1804080   -1.8989170   -3.1247060  
H     8.8977150   -2.3147870   -0.8863750  
H     8.9354880   -2.0413090    2.6538580  
H     6.2329120   -0.9911690    3.4877190  
H     4.7988880   -0.7918970    1.5993350  
H     4.8226310   -1.1330520   -3.5883400  
