64


C    -4.3268210    0.6777800   -2.4155770  
C    -5.5121450    0.3316660   -1.8191680  
C    -5.1931880   -0.5371160   -0.7221410  
C    -3.7792500   -0.6711640   -0.6939900  
N    -3.2809630    0.0804390   -1.7382550  
C    -3.0842620   -1.4810770    0.2367910  
C    -3.9017150   -2.1825170    1.1215590  
O    -3.3306920   -3.0393280    2.0457900  
C    -5.3121540   -2.0646010    1.1145260  
O    -5.9344820   -2.8354800    2.0800400  
C    -5.9681580   -1.2462800    0.2165210  
H    -6.4986110    0.6435220   -2.1336310  
H    -2.3015950    0.1491790   -1.9703280  
H    -4.0580660   -3.4121740    2.5768340  
H    -6.8922640   -2.6977260    2.0404100  
H    -7.0534110   -1.1717820    0.2232830  
H    -4.1359370    1.2952230   -3.2824630  
C     0.1528250    1.6462070    0.0916200  
C    -1.0565580    0.9613920    0.2148520  
C    -0.7734670   -0.4343360    0.1771210  
C     0.6407170   -0.5617460    0.0567730  
N     1.1627910    0.7061390   -0.0136540  
C     1.3132240   -1.8059130    0.0121810  
C     0.4679750   -2.9097710    0.0999800  
O     0.9932650   -4.1812400    0.0557310  
C    -0.9440830   -2.8143750    0.2182050  
O    -1.5778760   -4.0383120    0.2675460  
C    -1.6051130   -1.5901960    0.2313020  
H    -2.0201770    1.3960810    0.4316500  
H     2.1439510    0.9620410   -0.0074160  
H     0.2260520   -4.7794000    0.1686880  
H    -2.2669920   -3.9889470    0.9666750  
C    -2.4825880    5.0866460   -0.6648980  
C    -1.6013010    6.0944920   -0.4355990  
C    -0.3281440    5.4886000   -0.1117450  
C    -0.5452540    4.0292500   -0.1547570  
N    -1.8811800    3.8490520   -0.4649680  
C     0.4188350    3.0717710    0.0730730  
C     1.7887300    3.5960730    0.2721240  
O     2.7785570    2.8779690    0.3179130  
C     2.0144360    5.1485920    0.4216800  
O     3.1368620    5.5349240    0.7146940  
C     0.8873850    6.0325100    0.1880320  
H    -1.8065250    7.1538540   -0.4869310  
H     1.0522100    7.1030210    0.2555920  
H    -3.5260630    5.1343130   -0.9471610  
H    -2.2666730    2.9669040   -0.7696270  
C     4.7402860    0.1261950    2.2033400  
C     3.4979930   -0.3139370    1.8285800  
C     3.6741560   -1.1673710    0.6831890  
C     5.0708790   -1.2190130    0.4252820  
N     5.6907840   -0.4172200    1.3611720  
C     5.6330890   -1.9976040   -0.5925640  
C     4.7600820   -2.7589480   -1.3518440  
O     5.2327320   -3.5636100   -2.3455610  
C     3.3584530   -2.7226050   -1.1237740  
O     2.6290170   -3.5155430   -1.9900200  
C     2.7849120   -1.9144970   -0.1394100  
H     2.5687110   -0.0669250    2.3206130  
H     6.6821810   -0.2442890    1.4115510  
H     6.7005390   -2.0400100   -0.7839670  
H     4.4438350   -4.0058630   -2.7135000  
H     1.9801200   -4.0183890   -1.4529400  
H     5.0309650    0.7888040    3.0059580  
