60


C    -3.7464380    0.4949840   -1.5939050  
C    -3.3495950   -0.5320860   -0.7421950  
C    -4.5756760   -1.1770660   -0.2957780  
C    -5.6505400   -0.4789270   -0.8984150  
N    -5.1064380    0.5244710   -1.6871250  
C    -6.9956190   -0.7888040   -0.6734360  
C    -7.2697410   -1.8366430    0.1913550  
O    -8.5593080   -2.1916330    0.4455710  
C    -6.2095230   -2.5450770    0.8157810  
O    -6.6360240   -3.5588580    1.6493210  
C    -4.8833220   -2.2296870    0.5884920  
H    -5.6319550    1.1300330   -2.2995270  
H    -7.8113780   -0.2483540   -1.1422990  
H    -8.5350160   -2.9503170    1.0546210  
H    -5.8704190   -4.0573110    1.9721250  
H    -4.0953320   -2.8074720    1.0583750  
H    -3.1322310    1.1620700   -2.1807790  
C     0.2427590    2.0559070   -0.1447420  
C    -1.0550610    1.6198800   -0.2741710  
C    -0.9924180    0.1820540   -0.3243880  
C     0.4517830   -0.1251580   -0.1859200  
N     1.1608420    0.9619170   -0.0903970  
C     0.9798180   -1.4943710   -0.1374200  
C     0.0196330   -2.4804050   -0.1788130  
O     0.2619870   -3.7919680   -0.1460880  
C    -1.4527710   -2.1852870   -0.3090980  
O    -2.1981300   -3.1697630   -0.3258420  
C    -1.9532910   -0.7933920   -0.4412360  
H    -1.9464380    2.2240400   -0.3450620  
H    -0.6293450   -4.2092070   -0.2074560  
C    -1.4157590    5.7378730    1.7175990  
C    -1.2168980    4.4625660    1.2851760  
C     0.0479310    4.4304320    0.5877130  
C     0.5860450    5.8055700    0.6644280  
N    -0.3636400    6.5553980    1.3328770  
C     1.7966040    6.2055090    0.1910270  
C     2.6434420    5.2080610   -0.4400290  
O     3.7761910    5.4397370   -0.8354610  
C     2.0634440    3.7593150   -0.6395910  
O     2.6973190    2.9929360   -1.3399900  
C     0.7451380    3.4108030   -0.0299790  
H    -1.8727880    3.6251540    1.4625640  
H     2.1725420    7.2191190    0.2909340  
H    -2.2402120    6.1490090    2.2848700  
H    -0.2433540    7.5184730    1.6052130  
C     2.4052010   -1.7376990   -0.0617360  
C     3.4268510   -0.8397080   -0.2525570  
C     4.6458130   -1.5931160   -0.0824140  
C     4.1844790   -2.9832620    0.2293750  
N     2.8908190   -3.0698310    0.2400630  
C     5.1233300   -4.0502790    0.4795270  
C     6.4414360   -3.7528640    0.4153900  
O     7.4302140   -4.6379380    0.6208040  
C     6.9356530   -2.3599010    0.0978260  
O     8.1567500   -2.1947690    0.0648760  
C     5.9643240   -1.2895660   -0.1484830  
H     3.3336000    0.2100750   -0.4825610  
H     4.7651050   -5.0485510    0.7053000  
H     8.2588650   -4.1198640    0.5043550  
H     6.3531100   -0.3004800   -0.3704220  
