60


C    -6.9356210    2.9951760    1.2168400  
C    -5.7584070    2.3552940    0.9344170  
C    -6.0869070    1.1275020    0.2673070  
C    -7.5037010    1.0879010    0.1639190  
N    -7.9935490    2.2296200    0.7618550  
C    -8.2007250    0.0534220   -0.4690130  
C    -7.4446800   -0.9565400   -1.0404390  
O    -8.0539570   -1.9889140   -1.6883090  
C    -6.0276260   -0.9399560   -0.9737500  
O    -5.4271990   -2.0330190   -1.5698060  
C    -5.3229980    0.0690690   -0.3027850  
H    -4.7724400    2.7108860    1.1908460  
H    -8.9661930    2.4883100    0.8082850  
H    -9.2834450    0.0283420   -0.5409220  
H    -7.3274580   -2.5523680   -2.0163580  
H    -4.7255540   -1.6993080   -2.1682670  
H    -7.1138930    3.9381000    1.7141860  
C    -2.6336370    0.4508020    3.1636260  
C    -1.4062400    0.3296750    2.5997000  
C    -1.6606260    0.1149650    1.1784620  
C    -3.1481600    0.1720720    1.0648140  
N    -3.7028830    0.3506520    2.2305530  
C    -3.8493040    0.0241110   -0.2129790  
C    -3.0333350   -0.2194040   -1.2773550  
O    -3.5037710   -0.4308310   -2.5402090  
C    -1.5539640   -0.3287440   -1.1992840  
O    -0.9555640   -0.6548550   -2.2240710  
C    -0.8536900   -0.1074890    0.1072780  
H    -0.4416050    0.4146430    3.0802750  
H    -2.6972930   -0.5973470   -3.0818240  
H    -2.8746350    0.6254520    4.2056070  
C     1.8522390   -2.5640590    2.5760860  
C     3.0415120   -2.2172950    2.0203000  
C     2.7683110   -1.2568290    0.9706890  
C     1.3022030   -1.0618920    0.9713710  
N     0.8071970   -1.9000960    1.9445830  
C     0.6060340   -0.2299860    0.1275890  
C     1.4132810    0.5913210   -0.7855410  
O     0.9479990    1.4924970   -1.4607620  
C     2.9630920    0.3482120   -0.8572990  
O     3.5915940    0.9497280   -1.7095550  
C     3.5990530   -0.6044540    0.0874010  
H     4.0137240   -2.5705990    2.3271400  
H     1.6433480   -3.2418620    3.3927400  
H    -0.1593930   -1.9193190    2.2358200  
C     5.5852110   -2.1362860    0.0189770  
C     5.0284790   -0.8842960   -0.0172330  
C     6.1505590    0.0533570   -0.1654600  
C     7.3808470   -0.7748040   -0.2005650  
N     6.9606330   -2.0888000   -0.0839900  
C     8.6435330   -0.2945890   -0.3195350  
C     8.8281480    1.1511290   -0.4021530  
O     9.9234870    1.6799950   -0.5090070  
C     7.5454400    2.0546500   -0.3355330  
O     7.6731810    3.2670750   -0.3696080  
C     6.2300730    1.4057530   -0.2276610  
H     9.5236800   -0.9297570   -0.3457720  
H     5.3587390    2.0491910   -0.2239210  
H     5.0809930   -3.0911950    0.0839260  
H     7.5651180   -2.8929440   -0.1552890  
