62


C     4.3783470   -0.0600050   -0.0587090  
C     5.0990150    0.7425970    0.7925270  
C     6.4957530    0.5297700    0.5325750  
C     6.5822680   -0.4306060   -0.5028230  
N     5.2839910   -0.8372370   -0.8164030  
C     7.7994910   -0.8592830   -1.0374950  
C     8.9592790   -0.3130190   -0.5045650  
O    10.1733040   -0.6935920   -0.9919630  
C     8.8932020    0.6351240    0.5507500  
O    10.1290350    1.0741760    0.9803860  
C     7.6841950    1.0571950    1.0740560  
H     4.6753680    1.3692500    1.5655410  
H     5.0426780   -1.1260380   -1.7577630  
H     7.8702300   -1.5920040   -1.8347970  
H    10.8524070   -0.2083350   -0.4920670  
H    10.0162960    1.7238790    1.6899120  
H     7.6575340    1.7876670    1.8800140  
C     0.9520440    2.7965950   -0.0041990  
C     2.1849440    2.2275340    0.0056020  
C     2.0112760    0.8009020   -0.1119690  
C     0.6225920    0.5505510   -0.2011650  
N    -0.0336220    1.8026790   -0.1171300  
C     0.1056160   -0.7310250   -0.4051440  
C     1.0167620   -1.7788280   -0.4807330  
O     0.5582710   -3.0495960   -0.6506610  
C     2.4074010   -1.5537600   -0.3725380  
O     3.1673660   -2.6978580   -0.4468800  
C     2.9354770   -0.2676230   -0.1909400  
H     3.1239910    2.7561070    0.0814580  
H    -0.9523460   -0.9230090   -0.5092510  
H     1.3344940   -3.6365980   -0.6682810  
H     4.0997420   -2.4749020   -0.2632120  
H     0.6619330    3.8309180    0.0897530  
C    -1.3766790    2.0772520   -0.1437670  
C    -1.9831120    3.3108320   -0.2655700  
C    -3.3794670    3.0517020   -0.1927900  
C    -3.4839630    1.5513130   -0.0398380  
N    -2.2911640    1.0043960   -0.0017750  
C    -4.7443730    0.8590650    0.0627760  
C    -5.8413550    1.6863320    0.1005360  
O    -7.0759310    1.2598580    0.3059610  
C    -5.7725000    3.2041910   -0.0622790  
O    -6.8595720    3.7892530   -0.0249030  
C    -4.4899360    3.8419700   -0.2248230  
H    -1.5178910    4.2737960   -0.4106570  
H    -7.6378980    2.0731600    0.2476370  
H    -4.4622140    4.9203380   -0.3379810  
C    -2.6062320   -2.3808310    2.2352340  
C    -3.3587430   -3.4413870    1.8458960  
C    -4.3688320   -2.9403120    0.9402840  
C    -4.1471890   -1.4732210    0.8565510  
N    -3.0922140   -1.1868780    1.7065940  
C    -4.8915870   -0.6101060    0.0986050  
C    -5.8899100   -1.2408740   -0.8000840  
O    -6.4570800   -0.6299930   -1.6891260  
C    -6.2103010   -2.7706600   -0.6341220  
O    -7.1446920   -3.2396480   -1.2666680  
C    -5.3691380   -3.5587810    0.2568260  
H    -3.2282140   -4.4708630    2.1462720  
H    -5.5710310   -4.6221060    0.3423310  
H    -1.7397770   -2.3599830    2.8834580  
H    -2.5059090   -0.3784260    1.5074640  
