62


C    -3.3301030    0.9298350   -1.9615980  
C    -4.6262970    1.3603370   -1.8860020  
C    -5.2097820    0.7502660   -0.7245860  
C    -4.2010580   -0.0474510   -0.1241050  
N    -3.0492120    0.0712970   -0.9006310  
C    -4.4154640   -0.7773950    1.0554140  
C    -5.6775610   -0.7102170    1.6278200  
O    -5.9388330   -1.4008270    2.7742720  
C    -6.7016170    0.0745590    1.0343250  
O    -7.8998270    0.0363870    1.7202670  
C    -6.4815230    0.8018170   -0.1212210  
H    -5.1155690    2.0254720   -2.5846020  
H    -3.6378140   -1.3599620    1.5372950  
H    -6.8646640   -1.2234020    3.0144390  
H    -8.5515560    0.5918570    1.2676750  
H    -7.2793560    1.4034650   -0.5524230  
H    -2.5638540    1.1276210   -2.6972670  
C     1.0649290    1.6582990   -0.2369150  
C    -0.3106980    1.5373520   -0.4332960  
C    -0.6117270    0.1480610   -0.5042380  
C     0.6121540   -0.5586980   -0.3480350  
N     1.6031870    0.3808850   -0.1929770  
C     0.7071900   -1.9673240   -0.3487340  
C    -0.5001640   -2.6548560   -0.5003680  
O    -0.5123800   -4.0082410   -0.4495590  
C    -1.7355020   -1.9720850   -0.6830000  
O    -2.8108330   -2.8073810   -0.8549890  
C    -1.8069830   -0.5856980   -0.6898700  
H    -1.0367100    2.3370140   -0.4141180  
H     2.5873020    0.2244650   -0.0150470  
H    -1.4232580   -4.3022100   -0.6283100  
H    -3.6378980   -2.2969140   -0.8310510  
C     0.4365300    5.8635720   -1.3522660  
C     1.5539300    6.4082940   -0.8053580  
C     2.3117690    5.3303170   -0.2076670  
C     1.5276700    4.1023440   -0.4403070  
N     0.3828920    4.4943710   -1.1060280  
C     1.8977630    2.8318300   -0.0588520  
C     3.2386340    2.7251190    0.5522280  
O     3.7770390    1.6536880    0.8077550  
C     4.0402590    4.0371970    0.9009160  
O     5.0855850    3.9140300    1.5222680  
C     3.5045550    5.3110170    0.4554710  
H     1.8319350    7.4521140   -0.8147950  
H     4.0775680    6.2086420    0.6638280  
H    -0.3652430    6.3408710   -1.8999290  
H    -0.2162630    3.8433780   -1.5930540  
C     3.8882840   -1.7973590    2.7045240  
C     4.7641280   -2.6884810    2.1737440  
C     4.1800750   -3.1901610    0.9483130  
C     2.8696960   -2.5068130    0.8058400  
N     2.7519620   -1.6846630    1.9108110  
C     1.9912150   -2.6878710   -0.2253290  
C     2.4197800   -3.6148980   -1.2968040  
O     1.7898860   -3.7702020   -2.3280140  
C     3.7695180   -4.4047420   -1.1215870  
O     4.0697730   -5.2379300   -1.9631960  
C     4.6091740   -4.1002370    0.0329340  
H     5.7238880   -2.9673950    2.5831680  
H     5.5539480   -4.6267710    0.1270540  
H     3.9710710   -1.2061730    3.6066690  
H     1.9687340   -1.0770600    2.0934710  
