62


C    -5.4429540   -1.1554160    2.1089260  
C    -4.9489190   -0.7125040    0.8883030  
C    -6.0985870   -0.6315420    0.0001920  
C    -7.2279660   -1.0537490    0.7433470  
N    -6.7934430   -1.3566820    2.0234990  
C    -8.5166730   -1.1405860    0.2046120  
C    -8.6730030   -0.7911070   -1.1269890  
O    -9.9045730   -0.8449720   -1.7079460  
C    -7.5539500   -0.3714690   -1.8937480  
O    -7.8640490   -0.0548620   -3.2020320  
C    -6.2845780   -0.2926580   -1.3545470  
H    -7.3905160   -1.6213290    2.7919150  
H    -9.3765940   -1.4627700    0.7828020  
H    -9.8011030   -0.5390670   -2.6260050  
H    -7.0897330    0.3409290   -3.6294960  
H    -5.4553170    0.0608300   -1.9572380  
H    -4.9238970   -1.2835840    3.0474510  
C    -1.2060780   -2.6238930    2.3150180  
C    -2.4979800   -2.3410610    2.0112200  
C    -2.5051260   -1.1431690    1.1936270  
C    -1.0919370   -0.7612900    1.0236500  
N    -0.3575710   -1.6977080    1.7165520  
C    -0.6072910    0.3249940    0.3217230  
C    -1.6245940    1.1492810   -0.3228270  
O    -1.3824110    2.1373210   -1.0029980  
C    -3.1484000    0.7552050   -0.1746000  
O    -3.9546460    1.4752140   -0.7379430  
C    -3.5429850   -0.4212860    0.6401330  
H    -3.3609170   -2.9240470    2.2923190  
H    -0.7932570   -3.4368550    2.8969030  
H     0.6326140   -1.6007670    1.8898580  
C     1.8039760   -0.3391340    0.0358090  
C     0.8232890    0.6099400    0.1929240  
C     1.5087520    1.8954390    0.2520960  
C     2.8956990    1.6521900    0.1384620  
N     3.0691100    0.2520390   -0.0088030  
C     3.8434670    2.6771810    0.1951960  
C     3.3729560    3.9738400    0.3624150  
O     4.2578190    5.0078270    0.4120890  
C     1.9863040    4.2328160    0.4750880  
O     1.6693670    5.5651420    0.6306460  
C     1.0545560    3.2106520    0.4282350  
H     4.9019200    2.4824750    0.1044360  
H     3.7403040    5.8272510    0.4987470  
H     0.7090230    5.6788060    0.5664060  
H    -0.0062180    3.4272310    0.4849530  
H     1.7040630   -1.3978520   -0.1440860  
C     4.2242830   -0.4645120   -0.1747520  
C     4.3555850   -1.8387400   -0.3007350  
C     5.7507810   -2.0641160   -0.4499530  
C     6.3615930   -0.6860670   -0.3891300  
N     5.4528160    0.2381800   -0.2273460  
C     7.7747520   -0.4781580   -0.5004600  
C     8.5463010   -1.5810460   -0.6649250  
O     9.8731970   -1.5619410   -0.7845410  
C     7.9639800   -2.9907880   -0.7311430  
O     8.7902200   -3.8995110   -0.8827630  
C     6.5367460   -3.1708630   -0.6160610  
H     3.5818570   -2.5913360   -0.2984130  
H     8.1905030    0.5220620   -0.4543820  
H    10.1211750   -2.5139730   -0.8886700  
H     6.1483270   -4.1828340   -0.6675570  
