64


C     5.3518560    1.0765270   -1.9624750  
C     6.4377370    0.4437490   -2.5000540  
C     6.8761650   -0.5355300   -1.5450860  
C     6.0100130   -0.4473100   -0.4264530  
N     5.0719890    0.5491320   -0.6976380  
C     6.1294500   -1.2876060    0.6864710  
C     7.1534480   -2.2213370    0.6748330  
O     7.3191540   -3.0604780    1.7381350  
C     8.0368370   -2.3176470   -0.4333520  
O     9.0023450   -3.2975590   -0.2958060  
C     7.9096260   -1.4927310   -1.5347500  
H     6.8904950    0.6659510   -3.4570720  
H     5.4829040   -1.2139990    1.5523410  
H     8.1054870   -3.6033130    1.5565560  
H     9.6264830   -3.2408780   -1.0341990  
H     8.5918630   -1.5877000   -2.3773740  
H     4.7692370    1.9085150   -2.3330620  
C     0.8759530    0.5798450   -1.6901860  
C     0.3594160    1.1199670   -0.5473430  
C     1.4952970    1.3427430    0.3484060  
C     2.6955120    0.8896230   -0.3851840  
N     2.2571210    0.4415510   -1.6116160  
C     3.9722190    0.9277970    0.1004700  
C     4.1671790    1.4551740    1.4602950  
O     5.2623380    1.5703530    1.9822500  
C     2.8858350    1.8888190    2.2712690  
O     3.0342750    2.2661310    3.4222670  
C     1.5779270    1.8152670    1.6189310  
H     0.7112830    2.1520280    2.1756430  
H     0.3567310    0.2925930   -2.5954640  
H     2.8634090    0.0806570   -2.3328830  
C    -3.1257530   -1.5703210   -0.7236140  
C    -4.1083740   -0.6637400   -0.3876390  
C    -3.4282420    0.6007680   -0.1791290  
C    -2.0479970    0.3838920   -0.4171580  
N    -1.8967000   -0.9442050   -0.7583280  
C    -1.0641870    1.3858170   -0.2731940  
C    -1.5244570    2.6384850    0.1369370  
O    -0.6426110    3.6692630    0.2825360  
C    -2.9014060    2.8691940    0.3934900  
O    -3.1760930    4.1631510    0.7904950  
C    -3.8528170    1.8797410    0.2396750  
H    -1.0070300   -1.4045590   -0.8746420  
H    -1.1511460    4.4415060    0.5871530  
H    -4.1214800    4.2508530    0.9830320  
H    -4.9006180    2.0804980    0.4470180  
H    -3.2197310   -2.6190600   -0.9663580  
C    -6.4114320   -3.8638090    1.7808490  
C    -5.4148340   -3.0667830    1.2812450  
C    -6.0423500   -2.0507620    0.4818350  
C    -7.4415360   -2.2856270    0.5421740  
N    -7.6356280   -3.3985390    1.3357400  
C    -8.3797110   -1.4727070   -0.1057420  
C    -7.8887490   -0.4008030   -0.8330690  
O    -8.7515330    0.4222320   -1.5017980  
C    -6.4956190   -0.1482500   -0.9081020  
O    -6.1730680    0.9465430   -1.6928200  
C    -5.5512170   -0.9474800   -0.2655010  
H    -4.3572790   -3.1788980    1.4723390  
H    -8.5311170   -3.7995980    1.5649210  
H    -9.4492390   -1.6517910   -0.0632470  
H    -8.2058950    1.0677610   -1.9837270  
H    -5.2097040    0.9675500   -1.8175280  
H    -6.3553080   -4.7305800    2.4242970  
