64


C     4.4009000    0.5687080    2.4428000  
C     5.5709480    0.1968990    1.8318000  
C     5.2173690   -0.6485210    0.7277930  
C     3.7994800   -0.7455120    0.7143500  
N     3.3338630   -0.0000800    1.7769090  
C     3.0737220   -1.5220490   -0.2211860  
C     3.8627560   -2.2194790   -1.1348280  
O     3.2606540   -3.0381660   -2.0751880  
C     5.2753570   -2.1381250   -1.1421960  
O     5.8674100   -2.9009410   -2.1342500  
C     5.9627720   -1.3594010   -0.2328300  
H     6.5685490    0.4789570    2.1391580  
H     2.3575420    0.1370430    1.9911480  
H     3.9752040   -3.4230970   -2.6149220  
H     6.8299570   -2.8066720   -2.0855870  
H     7.0495560   -1.3126610   -0.2512060  
H     4.2340460    1.1898680    3.3117270  
C    -0.1281930    1.6593390   -0.0118920  
C     1.0753100    0.9577300   -0.1420090  
C     0.7832980   -0.4311900   -0.1026670  
C    -0.6324450   -0.5471910    0.0364870  
N    -1.1474320    0.7217640    0.0940710  
C    -1.3163070   -1.7787170    0.0820710  
C    -0.5082660   -2.9067540   -0.0567990  
O    -1.0600860   -4.1413550   -0.0822880  
C     0.9123300   -2.8180970   -0.1940580  
O     1.5266540   -4.0467430   -0.2911020  
C     1.5922460   -1.6055060   -0.1896540  
H     2.0419450    1.3959220   -0.3313200  
H    -2.1233320    0.9891380    0.1419530  
H    -0.3127780   -4.7596400   -0.2021550  
H     2.2091440   -3.9861350   -0.9952480  
C     2.4694190    5.2450520    0.5981920  
C     1.9842280    3.9750240    0.5587460  
C     0.5898070    4.0490450    0.1799350  
C     0.2931350    5.4825500    0.0138080  
N     1.4757470    6.1521510    0.2521540  
C    -0.9186700    6.0181710   -0.3190950  
C    -2.0271870    5.1147560   -0.4938130  
O    -3.1610220    5.4551480   -0.8074140  
C    -1.7696140    3.5795760   -0.2490870  
O    -2.7497720    2.8471150   -0.2479290  
C    -0.3830900    3.0805310   -0.0188340  
H     2.5408210    3.0869290    0.8111240  
H    -1.0808830    7.0817900   -0.4613640  
H     3.4601300    5.5961480    0.8532590  
H     1.5710610    7.1553230    0.2589760  
C    -4.5608720   -0.2867620   -2.5250910  
C    -5.6229460   -0.7116120   -1.7711320  
C    -5.0838030   -1.3677730   -0.6135270  
C    -3.6699020   -1.3078270   -0.7233090  
N    -3.3808870   -0.6432230   -1.8982690  
C    -2.7900780   -1.8649520    0.2287570  
C    -3.3872510   -2.4911730    1.3233680  
O    -2.6104670   -3.0269880    2.3085250  
C    -4.7990820   -2.5609970    1.4468030  
O    -5.2238210   -3.2136980    2.5928130  
C    -5.6473740   -2.0136530    0.5037550  
H    -6.6682690   -0.5676610   -2.0075610  
H    -2.4524670   -0.4725850   -2.2513990  
H    -3.2140670   -3.4329730    2.9542400  
H    -6.1918430   -3.2242770    2.6131410  
H    -6.7267000   -2.0819100    0.6269180  
H    -4.5410270    0.2546730   -3.4602250  
