62


C     5.5682980    1.9510560    0.7309910  
C     4.6783870    0.9634450    0.3452300  
C     5.4813290   -0.1949360    0.0127010  
C     6.8368790    0.1627210    0.2177470  
N     6.8564720    1.4735280    0.6566470  
C     7.9024520   -0.7124710   -0.0281570  
C     7.5904570   -1.9793580   -0.4931720  
O     8.5849300   -2.8772580   -0.7453190  
C     6.2369730   -2.3546720   -0.7111670  
O     6.0888200   -3.6473140   -1.1765280  
C     5.1905670   -1.4860750   -0.4709750  
H     7.6807220    1.9798700    0.9403160  
H     8.9401840   -0.4375180    0.1303190  
H     8.1604280   -3.6990980   -1.0470370  
H     5.1461820   -3.8592240   -1.2458780  
H     4.1636050   -1.8024050   -0.6254190  
H     5.3684180    2.9431340    1.1117830  
C     2.3363740    4.2231440   -1.3928610  
C     1.0809590    3.7752110   -1.0609720  
C     1.2460950    2.5394470   -0.3538180  
C     2.6389400    2.2876100   -0.2897450  
N     3.2762250    3.3390340   -0.9150620  
C     3.2209190    1.1329000    0.2769930  
C     2.3099500    0.1955760    0.7768720  
O     2.7685830   -0.9457800    1.3691320  
C     0.9132380    0.4105120    0.7266310  
O     0.1974110   -0.6228650    1.2987990  
C     0.3409710    1.5741440    0.1815590  
H     0.1535380    4.2619140   -1.3214780  
H     4.2678090    3.3606280   -1.1003170  
H     1.9885850   -1.4073760    1.7267090  
H    -0.7010240   -0.3325510    1.5366940  
H     2.6365720    5.1101900   -1.9324610  
C    -1.0902110    1.7957930    0.1812460  
C    -1.8150410    2.9602340    0.2272140  
C    -3.2143900    2.6390390    0.2107440  
C    -3.2933850    1.1650390    0.1497690  
N    -1.9869910    0.6906110    0.2056880  
C    -4.4478870    0.4483530    0.0328580  
C    -5.7169930    1.2125840    0.0420090  
O    -6.8045240    0.6633670    0.0399440  
C    -5.6502840    2.7777310    0.1247030  
O    -6.6992860    3.4053140    0.0961290  
C    -4.3414250    3.4087040    0.2248710  
H    -1.4001530    3.9517330    0.3275940  
H    -4.3065380    4.4927950    0.2704950  
H    -1.7466070   -0.1760890   -0.2627510  
C    -2.9414710   -2.9441990    2.5458900  
C    -3.2233490   -1.6884050    2.1160860  
C    -3.9402010   -1.8708360    0.8583920  
C    -4.0073280   -3.3558690    0.6962760  
N    -3.4135260   -3.9748670    1.6796100  
C    -4.6793770   -3.9675470   -0.4196200  
C    -5.2542590   -3.1497410   -1.3315830  
O    -5.9102650   -3.5795710   -2.4194870  
C    -5.1607360   -1.6478530   -1.2295850  
O    -5.5958150   -0.9952230   -2.1707370  
C    -4.4913940   -1.0195780   -0.0457190  
H    -3.0235520   -0.7503310    2.6145770  
H    -4.7192740   -5.0477190   -0.5048750  
H    -6.1764580   -2.7679690   -2.9052610  
H    -2.4268710   -3.2337020    3.4548980  
