60


C     6.2186840   -0.4423840   -2.8880470  
C     5.1247470   -0.0259180   -2.1705600  
C     5.2584930   -0.5538430   -0.8361920  
C     6.4792590   -1.2791890   -0.8118770  
N     7.0288220   -1.2088710   -2.0769010  
C     6.9846520   -1.8903500    0.3406010  
C     6.2474710   -1.7350740    1.5025650  
O     6.6854300   -2.2754930    2.6703070  
C     5.0188060   -1.0175250    1.5143240  
O     4.4130900   -0.9892140    2.7458070  
C     4.4758650   -0.4516440    0.3557150  
H     4.3463370    0.6261510   -2.5403370  
H     7.9234660   -1.5913410   -2.3404510  
H     7.9228120   -2.4354330    0.3593700  
H     6.0359200   -1.9967300    3.3451770  
H     4.0580320   -0.0746570    2.8703560  
H     6.4939990   -0.2446290   -3.9143490  
C     1.1498500   -0.9523910   -2.4349420  
C     0.2726270   -0.0323450   -1.9565350  
C     0.8721990    0.5602820   -0.7774860  
C     2.1916680   -0.0897810   -0.6186260  
N     2.2796860   -1.0210280   -1.6291860  
C     3.1421380    0.1943370    0.3410480  
C     2.7151160    1.1556080    1.3497520  
O     3.3575460    1.4141470    2.3698170  
C     1.3361160    1.8993270    1.1972430  
O     1.0115300    2.6669450    2.0815910  
C     0.4442750    1.5582470    0.0608050  
H    -0.6882010    0.2207040   -2.3773420  
H     1.0706890   -1.5924670   -3.3037650  
H     3.1456480   -1.4809000   -1.8752690  
C    -3.8327740    0.2349540   -0.1156400  
C    -2.4518580    0.2966880   -0.0249790  
C    -2.0559910    1.6664620   -0.1324140  
C    -3.3085690    2.4439270   -0.2764190  
N    -4.3330110    1.5250900   -0.2875560  
C    -3.3741760    3.7987620   -0.3521040  
C    -2.1315070    4.5544100   -0.2913300  
O    -2.0854700    5.7748680   -0.3168140  
C    -0.7805940    3.7577580   -0.2060450  
O     0.2666640    4.3716820   -0.3128860  
C    -0.8230730    2.2791060   -0.0768370  
H    -1.7887630   -0.5272820    0.1775570  
H    -4.3084420    4.3452870   -0.4323070  
H    -5.3262960    1.7141220   -0.2292390  
C    -3.1816730   -4.1627020   -0.5405540  
C    -3.0356010   -2.8051620   -0.5713490  
C    -4.2883010   -2.2232460   -0.1690870  
C    -5.1965930   -3.3634680    0.0857250  
N    -4.4536030   -4.5096310   -0.1329430  
C    -6.4977480   -3.2679010    0.4639600  
C    -7.0695660   -1.9392070    0.5959020  
O    -8.2219490   -1.7296700    0.9379010  
C    -6.1568370   -0.7044900    0.2654000  
O    -6.6995920    0.3931770    0.2453360  
C    -4.7147400   -0.9102540   -0.0135750  
H    -2.1473310   -2.2831400   -0.8881150  
H    -7.1280790   -4.1273140    0.6688720  
H    -2.4619760   -4.9317060   -0.7879660  
H    -4.8132490   -5.4490960   -0.0652350  
