62


C     3.5227730    0.0381980   -0.4340540  
C     2.1588720    0.0470620   -0.2253150  
C     1.7670400    1.3933550    0.0733430  
C     2.9469910    2.1825040    0.0329240  
N     4.0009710    1.3322070   -0.2416370  
C     2.9450020    3.5637910    0.2431000  
C     1.7242950    4.1655380    0.5105880  
O     1.6675430    5.5110610    0.7328900  
C     0.5348270    3.3981810    0.5760740  
O    -0.5821730    4.1502480    0.8895890  
C     0.5240560    2.0184930    0.3612980  
H     1.5234850   -0.8266430   -0.2564330  
H     4.9177610    1.6317600   -0.5380240  
H     3.8448460    4.1692900    0.2064290  
H     0.7382700    5.7333530    0.9157420  
H    -1.3514390    3.5708640    0.9981370  
C    -0.9058400    0.0855300    1.1661790  
C    -0.7216250    1.2343750    0.4523060  
C    -1.9886690    1.4816840   -0.2387340  
C    -2.9102350    0.3864700    0.1538910  
N    -2.1861110   -0.4298420    0.9901610  
C    -4.1954570    0.2416890   -0.3007840  
C    -4.7096140    1.3026650   -1.1930790  
O    -5.8791280    1.3687210   -1.5283540  
C    -3.7217970    2.4175590   -1.6819680  
O    -4.1126070    3.2284840   -2.5047690  
C    -2.3685590    2.4458640   -1.1211960  
H    -1.6980880    3.2306930   -1.4560440  
H    -0.2009120   -0.4276960    1.8062540  
H    -2.5704030   -1.2192770    1.4882100  
C    -5.5419760   -1.7502190    3.5045080  
C    -4.9281200   -0.8884380    2.6529940  
C    -5.3297750   -1.3226720    1.3191550  
C    -6.2229140   -2.4928590    1.5802360  
N    -6.3361430   -2.7386480    2.8575390  
C    -6.8710850   -3.2095380    0.5143570  
C    -6.6392780   -2.7958590   -0.7525560  
O    -7.1682050   -3.3735750   -1.8411290  
C    -5.6987670   -1.6590260   -1.0599990  
O    -5.4306720   -1.4604760   -2.2386180  
C    -5.0729890   -0.8778940    0.0590200  
H    -4.3181520   -0.0318070    2.9027650  
H    -7.5207330   -4.0477550    0.7400100  
H    -6.7834010   -2.8958640   -2.6084670  
H    -5.5008720   -1.7509170    4.5877250  
C     4.1239770   -2.0982630   -1.6334930  
C     4.4227760   -1.0439670   -0.7960460  
C     5.7919420   -1.2398470   -0.3664700  
C     6.2573520   -2.4279410   -0.9846190  
N     5.2162280   -2.9313460   -1.7406890  
C     7.5490580   -2.9304280   -0.7851970  
C     8.3879190   -2.2227210    0.0611340  
O     9.6572330   -2.6676250    0.2890800  
C     7.9345080   -1.0399370    0.7038940  
O     8.8789930   -0.4573620    1.5275950  
C     6.6582870   -0.5465630    0.5036650  
H     5.2637710   -3.7528390   -2.3227730  
H     7.9067110   -3.8401320   -1.2566470  
H    10.0698850   -2.0518800    0.9190340  
H     8.4863910    0.2990520    1.9878350  
H     6.3278040    0.3471650    1.0286170  
H     3.2147400   -2.3004910   -2.1812110  
