60


C    -4.4848460   -0.0530470   -0.0033740  
C    -5.2239440    1.1355100    0.0791030  
C    -6.5875470    0.7892350    0.2221110  
C    -6.6561200   -0.6382050    0.2221270  
N    -5.3809820   -1.1119050    0.0850530  
C    -7.8657150   -1.3335130    0.3438630  
C    -9.0217160   -0.5805420    0.4630520  
O   -10.2237560   -1.1989240    0.5822550  
C    -8.9734490    0.8497920    0.4616220  
O   -10.2144680    1.4351190    0.5890960  
C    -7.7856290    1.5341900    0.3432490  
H    -4.8290510    2.1345540   -0.0253540  
H    -5.0786050   -2.0716220   -0.0281640  
H    -7.9253300   -2.4164330    0.3438250  
H   -10.9061760   -0.5077930    0.6478150  
H   -10.1274090    2.3997940    0.5679060  
H    -7.7697580    2.6218940    0.3447540  
C    -0.9151590    2.5515570    0.5556510  
C    -2.1562180    2.0156150    0.5889850  
C    -2.0933950    0.6873690    0.0208310  
C    -0.6901050    0.4646090   -0.3481650  
N     0.0019540    1.6389770   -0.0017810  
C    -0.2044940   -0.6546470   -0.9608040  
C    -1.1211360   -1.7499310   -1.1896100  
O    -0.8166990   -2.7903410   -1.7555340  
C    -2.5921680   -1.6025570   -0.6671470  
O    -3.2894940   -2.6068080   -0.6683080  
C    -3.0733060   -0.2691010   -0.1953220  
H    -3.0222910    2.4813870    1.0314260  
H     0.8108830   -0.7701590   -1.3174480  
H    -0.5514840    3.4974560    0.9292220  
C     1.3444500    1.9266810   -0.1610530  
C     1.9398010    3.1426800   -0.3606400  
C     3.3614160    2.9237920   -0.3920790  
C     3.5633050    1.4691210   -0.1937160  
N     2.3003550    0.9121700   -0.0925770  
C     4.7777000    0.8537680   -0.0886880  
C     5.9739750    1.7048530   -0.2914710  
O     7.0976860    1.2396310   -0.3525450  
C     5.7774430    3.2474410   -0.4968620  
O     6.7697960    3.9524900   -0.5995170  
C     4.4174060    3.7705420   -0.5499790  
H     1.4339210    4.0825350   -0.5235540  
H     4.2927680    4.8401510   -0.6869250  
H     2.1203520   -0.0214370    0.2478330  
C     3.2623360   -2.9921220   -1.8615610  
C     3.5025580   -1.6686920   -1.6780060  
C     4.3777510   -1.5980460   -0.5128850  
C     4.5840000   -3.0318090   -0.1346120  
N     3.9253960   -3.8365320   -0.9210090  
C     5.4311670   -3.4133980    0.9642590  
C     6.0301110   -2.4258120    1.6685890  
O     6.8366850   -2.6341390    2.7201590  
C     5.7910540   -0.9699050    1.3619090  
O     6.2556000   -0.1496690    2.1449390  
C     4.9525900   -0.5807300    0.1815730  
H     3.1580320   -0.8405070   -2.2807150  
H     5.5709140   -4.4617090    1.2032290  
H     7.0772830   -1.7406690    3.0500630  
H     2.6433620   -3.4534590   -2.6217870  
