60


C    -1.5347320   -4.1738130   -0.1618980  
C    -1.7644130   -2.7973160   -0.1822830  
C    -3.2080220   -2.6312040   -0.1199460  
C    -3.7742350   -3.9235020   -0.0494910  
N    -2.7225530   -4.8340120   -0.0821050  
C    -5.1513440   -4.1520210    0.0363710  
C    -5.9800760   -3.0381120    0.0572540  
O    -7.3283100   -3.1970910    0.1542810  
C    -5.4310860   -1.7307340   -0.0242340  
O    -6.3687770   -0.7215820    0.0049130  
C    -4.0682470   -1.5188350   -0.1293040  
H    -2.8229880   -5.8377330   -0.0436970  
H    -5.5846820   -5.1452350    0.0913950  
H    -7.7253930   -2.3084670    0.1500530  
H    -5.9207420    0.1386770    0.0619420  
H    -3.6654090   -0.5188750   -0.2336060  
H    -0.5995230   -4.7148640   -0.1830160  
C    -0.7662810   -1.7746080   -0.2184340  
C     0.6088590   -1.8621190   -0.3572610  
C     1.1107370   -0.5332810   -0.2969020  
C    -0.1120750    0.3152080   -0.1255630  
N    -1.1924200   -0.4198840   -0.0731990  
C    -0.0780520    1.7603450   -0.0194850  
C     1.1828500    2.2856070    0.0549830  
O     1.4317730    3.5695210    0.2843950  
C     2.4516410    1.4607240   -0.0961450  
O     3.4994450    2.1102430   -0.0236830  
C     2.3857400    0.0117110   -0.3241970  
H     1.1909720   -2.7645360   -0.4678760  
H     2.4139200    3.6556420    0.2379530  
C    -4.0393970    1.4647830    1.9679450  
C    -4.6203390    2.5967170    1.4834210  
C    -3.6408410    3.2505100    0.6383290  
C    -2.4361380    2.3838060    0.6693070  
N    -2.7225270    1.3446720    1.5418200  
C    -1.2819190    2.6128940   -0.0317700  
C    -1.3099560    3.7834870   -0.9470470  
O    -0.4512070    3.9881620   -1.7859010  
C    -2.5201290    4.7844120   -0.8736380  
O    -2.4520020    5.8266870   -1.5064590  
C    -3.6788800    4.4103210   -0.0707610  
H    -5.6054370    2.9716430    1.7229340  
H    -4.5351970    5.0777980   -0.0668830  
H    -4.4537560    0.7150260    2.6302630  
H    -2.2586240    0.4478730    1.3898740  
C     3.6470060   -1.8762540   -1.4041210  
C     3.5804740   -0.7603720   -0.6036520  
C     4.9712610   -0.6166510   -0.0957750  
C     5.6996230   -1.7601360   -0.7138030  
N     4.9149090   -2.4741990   -1.4825710  
C     7.0920920   -2.0084210   -0.4661830  
C     7.7444890   -1.1755150    0.3812070  
O     9.0406280   -1.2911870    0.7102540  
C     7.0388310   -0.0276900    1.0400060  
O     7.6887080    0.6822580    1.8064410  
C     5.6075750    0.2149940    0.7514450  
H     7.5833300   -2.8479260   -0.9454740  
H     9.2168760   -0.5532100    1.3348240  
H     5.1519920    1.0756730    1.2235460  
H     2.8406360   -2.2932350   -1.9940110  
