64


C    -1.5135280   -0.1654850    0.8399050  
C    -0.8188130   -1.2635610    0.3760720  
C    -1.8086120   -2.2591180    0.0027570  
C    -3.0807730   -1.7054570    0.2703770  
N    -2.8669180   -0.4249330    0.7795900  
C    -4.2823040   -2.3728860    0.0234260  
C    -4.1954510   -3.6449910   -0.5217450  
O    -5.3294580   -4.3485860   -0.7853800  
C    -2.9293610   -4.2179260   -0.8207380  
O    -3.0089920   -5.4777150   -1.3742240  
C    -1.7462460   -3.5456150   -0.5702280  
H    -5.2502360   -1.9302070    0.2288350  
H    -5.0631150   -5.1912900   -1.1925190  
H    -2.1291910   -5.7727860   -1.6527510  
H    -0.7945690   -3.9955390   -0.8418010  
H    -1.1593020    0.7748220    1.2356360  
C     0.6215610   -1.3669280    0.3093610  
C     1.5760280   -0.3959380    0.1479500  
C     2.8731680   -1.0233550    0.1825660  
C     2.6202250   -2.4691310    0.3810190  
N     1.2429480   -2.6249390    0.4001700  
C     3.5815060   -3.4192590    0.4949780  
C     4.9718050   -3.0012590    0.3823910  
O     5.9096860   -3.7836150    0.4286920  
C     5.2762360   -1.4692550    0.1909580  
O     6.4409870   -1.1117340    0.2136660  
C     4.1439720   -0.5208260    0.0506380  
H     1.3847320    0.6475680   -0.0535460  
H     3.3673260   -4.4752720    0.6296180  
H     0.7884570   -3.4223520    0.8211810  
C     3.1500360    2.9978160    2.5581640  
C     3.7485080    3.9542350    1.7804870  
C     4.3082030    3.2831470    0.6406160  
C     4.0082570    1.9034390    0.7820530  
N     3.2998140    1.7603320    1.9580420  
C     4.4273510    0.9172100   -0.1376950  
C     5.1619290    1.3753530   -1.2334620  
O     5.5588750    0.4955070   -2.1937520  
C     5.4641550    2.7522770   -1.3925790  
O     6.1860680    3.0326960   -2.5400260  
C     5.0522910    3.7035260   -0.4791680  
H     3.7908570    5.0134000    1.9949180  
H     2.9809170    0.8804050    2.3312180  
H     6.1337710    0.9822230   -2.8094440  
H     6.4879970    3.9523470   -2.5111410  
H     5.2989190    4.7531860   -0.6270450  
H     2.6225650    3.0906250    3.4971760  
C    -4.4005990    0.4733950    2.4699750  
C    -5.3659170    1.4381270    2.5040130  
C    -5.4319970    2.0366870    1.1961760  
C    -4.4704370    1.3899610    0.3835240  
N    -3.8469740    0.4394840    1.1885070  
C    -4.2534100    1.7130970   -0.9586480  
C    -5.0351950    2.7245880   -1.4967440  
O    -4.8727360    3.0857640   -2.8004810  
C    -6.0067910    3.3912490   -0.7019520  
O    -6.7005730    4.3726760   -1.3819170  
C    -6.2117350    3.0620340    0.6251350  
H    -5.9662590    1.6990560    3.3648640  
H    -3.5164250    1.2100990   -1.5747060  
H    -5.5058550    3.8010790   -2.9845420  
H    -7.3489980    4.7824620   -0.7905300  
H    -6.9617190    3.5863500    1.2139430  
H    -4.0371930   -0.2066570    3.2263690  
