60


C    -4.6602440    1.9222940   -2.7204220  
C    -5.7686000    2.1893530   -1.9614290  
C    -5.5901780    1.5218580   -0.7018010  
C    -4.3335240    0.8659710   -0.7542880  
N    -3.7805180    1.1408460   -1.9898020  
C    -3.8298700    0.0692810    0.2970940  
C    -4.6443040   -0.0454990    1.4260820  
O    -4.2074880   -0.7590280    2.4992520  
C    -5.8991170    0.6121670    1.4968070  
O    -6.5639310    0.4086550    2.6925920  
C    -6.3770390    1.3895220    0.4590720  
H    -6.6171950    2.7878250   -2.2634230  
H    -2.9515480    0.6979770   -2.3543890  
H    -4.9449380   -0.8080450    3.1323920  
H    -7.4755810    0.7256640    2.6125100  
H    -7.3431940    1.8835290    0.5405580  
H    -4.4129180    2.2283190   -3.7272550  
C     0.3129150    1.5265390   -0.3257080  
C    -1.0362340    1.4253750   -0.1417640  
C    -1.3430910    0.0201700    0.0054290  
C    -0.0576380   -0.6970150   -0.0955860  
N     0.9224550    0.2745920   -0.2707540  
C     0.1165860   -2.0483070   -0.0338070  
C    -1.1014190   -2.8431110    0.2317940  
O    -1.0667270   -4.0381510    0.4598060  
C    -2.4911900   -2.1109470    0.2842130  
O    -3.4936810   -2.7985580    0.3419870  
C    -2.5320020   -0.6298620    0.2171890  
H    -1.7365650    2.2402930   -0.0406430  
H     1.8277800    0.0692840   -0.6691070  
C     0.6068350    3.8268750   -1.1642480  
C     1.5564710    4.7870660   -1.2125860  
C     2.7474130    4.2623580   -0.5745770  
C     2.4099280    2.8879980   -0.1311300  
N     1.0871460    2.6595130   -0.5380940  
C     3.2560710    2.0882780    0.5649360  
C     4.5998060    2.5828880    0.8627440  
O     5.4167830    1.9203300    1.4850260  
C     4.9922780    4.0165750    0.3629310  
O     6.1160680    4.4370430    0.5814860  
C     3.9725040    4.8000230   -0.3449320  
H     1.4510380    5.7657190   -1.6580700  
H     2.9981580    1.1036300    0.9340070  
H     4.2378310    5.8054380   -0.6570420  
H    -0.4045030    3.8297760   -1.5461860  
C     4.0682200   -1.6047230    2.0027280  
C     2.7529260   -1.5181190    1.6625540  
C     2.5287090   -2.4291360    0.5589870  
C     3.8339890   -3.0877410    0.3042110  
N     4.7233000   -2.5300160    1.2048050  
C     4.0509230   -4.0517010   -0.6267870  
C     2.9277420   -4.4703200   -1.4553520  
O     3.0039460   -5.3601750   -2.2879150  
C     1.5614820   -3.7128440   -1.2867910  
O     0.6806380   -3.9143430   -2.1027610  
C     1.4168810   -2.7186010   -0.1902440  
H     2.0089830   -0.9028460    2.1451980  
H     5.0110770   -4.5363160   -0.7743010  
H     4.6164930   -1.0616240    2.7608670  
H     5.7001460   -2.7693360    1.2740940  
