64


C    -4.1664890    0.8937970   -2.0279580  
C    -5.4968140    1.2025080   -1.9696140  
C    -6.0131770    0.6321960   -0.7569950  
C    -4.9287800   -0.0159800   -0.1101060  
N    -3.7994690    0.1488540   -0.9078540  
C    -5.0644500   -0.6560330    1.1329100  
C    -6.3253710   -0.6628880    1.7156580  
O    -6.5088600   -1.2695370    2.9224810  
C    -7.4231960   -0.0351410    1.0723150  
O    -8.6088850   -0.1296850    1.7743830  
C    -7.2787250    0.6135430   -0.1413900  
H    -6.0495450    1.7661560   -2.7087280  
H    -4.2265730   -1.0901740    1.6687590  
H    -7.4430840   -1.1511180    3.1667500  
H    -9.3055450    0.3496450    1.3020980  
H    -8.1321710    1.1021460   -0.6076150  
H    -3.4258130    1.1112160   -2.7834300  
C     0.2246900    2.0175050   -0.7689210  
C    -1.1352260    1.8032920   -0.8477620  
C    -1.3601010    0.3997100   -0.6761280  
C    -0.0991310   -0.2112320   -0.4752380  
N     0.8416470    0.7945390   -0.5145310  
C     0.0871630   -1.6072340   -0.3003460  
C    -1.0938670   -2.3809610   -0.3141340  
O    -1.0537410   -3.7130690   -0.0954680  
C    -2.3664680   -1.7857800   -0.5117150  
O    -3.4003400   -2.6958810   -0.5511380  
C    -2.5162960   -0.4127400   -0.6890500  
H    -1.8868480    2.5701120   -0.9673280  
H     1.8332220    0.6292990   -0.6143150  
H    -1.9768420   -4.0275890   -0.1294820  
H    -4.2448220   -2.2639670   -0.3323980  
C     1.4063900   -2.1831160   -0.1279800  
C     2.5181570   -1.6052440    0.4448290  
C     3.5784460   -2.5692790    0.3198550  
C     2.9381290   -3.7195380   -0.4009070  
N     1.6824390   -3.4987260   -0.6508450  
C     3.6872350   -4.9012570   -0.7465460  
C     4.9871440   -4.9496680   -0.3739880  
O     5.8072670   -5.9825550   -0.6154000  
C     5.6550050   -3.8126890    0.3708730  
O     6.8447620   -3.9633590    0.6613160  
C     4.8817880   -2.6174530    0.6959210  
H     2.5708920   -0.6692140    0.9828780  
H     3.2046480   -5.7148850   -1.2763610  
H     6.6701460   -5.7139160   -0.2238230  
H     5.3977400   -1.8184720    1.2196350  
C     0.7411780    4.2646030   -1.7870530  
C     1.0050730    3.2364290   -0.9068210  
C     2.1909900    3.6225770   -0.1713110  
C     2.5911370    4.8909780   -0.6623610  
N     1.6840850    5.2575330   -1.6381300  
C     3.7059510    5.5785460   -0.1673300  
C     4.4283380    4.9775850    0.8512840  
O     5.5231620    5.6042350    1.3701310  
C     4.0320280    3.7161020    1.3705530  
O     4.8406820    3.2569390    2.3926930  
C     2.9318840    3.0394170    0.8768080  
H     1.7280350    6.1025700   -2.1857180  
H     4.0128780    6.5500300   -0.5411320  
H     5.8694130    5.0380190    2.0813820  
H     4.4636820    2.4473460    2.7674890  
H     2.6336610    2.0876710    1.3113800  
H    -0.0421820    4.3476810   -2.5266330  
