64


C     3.8530950   -0.3890390    0.0437770  
C     3.9097450   -1.6469050    0.5902270  
C     5.2255040   -2.1543730    0.3255280  
C     5.9314690   -1.1456810   -0.3807740  
N     5.0741000   -0.0700100   -0.5337590  
C     7.2588850   -1.2991860   -0.7958950  
C     7.8869670   -2.4978110   -0.4940850  
O     9.1776070   -2.7034190   -0.8813920  
C     7.1990090   -3.5174710    0.2178940  
O     7.9615970   -4.6461490    0.4450640  
C     5.8887440   -3.3603120    0.6288810  
H     3.1168860   -2.1306320    1.1434700  
H     5.2381760    0.7355780   -1.1181590  
H     7.8018660   -0.5299640   -1.3350950  
H     9.4347240   -3.5898300   -0.5739400  
H     7.4412560   -5.2968550    0.9389720  
H     5.3829470   -4.1547480    1.1737290  
C     1.4798650    0.1612530   -0.4114880  
C     0.6124660    1.2104810   -0.3297730  
C     1.3959730    2.3425870    0.1602500  
C     2.7821270    1.8511210    0.3531510  
N     2.7783750    0.5081340   -0.0206040  
C     3.8038340    2.6074350    0.8282800  
C     3.5395180    4.0067610    1.1602770  
O     4.4011110    4.7616850    1.5830770  
C     2.0793580    4.5506220    0.9639440  
O     1.8365070    5.7135460    1.2431480  
C     1.0582330    3.6283590    0.4547330  
H     4.8043570    2.2222770    0.9919970  
H     0.0447780    4.0048020    0.3561520  
H     1.2903230   -0.8492490   -0.7468530  
C    -2.6933290   -1.5175050    0.9690790  
C    -1.4847420   -0.8932020    0.8120010  
C    -1.6800480    0.1805910   -0.1213420  
C    -3.0480570    0.1599900   -0.4927920  
N    -3.6553860   -0.8928750    0.1816550  
C    -3.6131200    1.0996760   -1.3608980  
C    -2.7732050    2.0746730   -1.8717920  
O    -3.2669730    3.0120320   -2.7322280  
C    -1.3962130    2.1084710   -1.5286280  
O    -0.7027700    3.1200000   -2.1650880  
C    -0.8250310    1.1803910   -0.6583700  
H    -0.5638830   -1.1680260    1.3069140  
H    -4.6592120    1.0818370   -1.6424190  
H    -2.5278980    3.5965570   -2.9741450  
H     0.2189700    3.1341170   -1.8651120  
H    -2.9657520   -2.3824260    1.5574880  
C    -6.5905790   -0.7438040    3.3928980  
C    -7.6580600   -1.2242000    2.6797050  
C    -7.1956760   -1.4781430    1.3437220  
C    -5.8217510   -1.1282930    1.3158040  
N    -5.4763270   -0.6898630    2.5744970  
C    -5.0322480   -1.2394680    0.1567950  
C    -5.6507770   -1.7120980   -0.9987280  
O    -4.9345040   -1.8488830   -2.1486640  
C    -7.0298810   -2.0509760   -0.9828160  
O    -7.4955290   -2.4975190   -2.2056670  
C    -7.8000420   -1.9477360    0.1601700  
H    -8.6582500   -1.3789790    3.0602590  
H    -4.5667410   -0.3377190    2.8308580  
H    -5.5498930   -2.1703460   -2.8306650  
H    -8.4378070   -2.7098140   -2.1355230  
H    -8.8537240   -2.2183460    0.1390100  
H    -6.5250130   -0.4335190    4.4261200  
