62


C    -2.6935090   -1.9295270   -0.0534360  
C    -3.1412330   -3.2445060   -0.1753420  
C    -4.5558990   -3.2214740   -0.0974770  
C    -4.9456300   -1.8541350    0.0714910  
N    -3.8014940   -1.1057940    0.0996000  
C    -6.2862650   -1.4623390    0.1803960  
C    -7.2477490   -2.4568320    0.1221040  
O    -8.5642380   -2.1348700    0.2230470  
C    -6.8780100   -3.8277580   -0.0426660  
O    -7.9590090   -4.6832850   -0.0788790  
C    -5.5615250   -4.2158690   -0.1514540  
H    -2.5094430   -4.1136380   -0.2973150  
H    -3.7097040   -0.1029320    0.1779400  
H    -6.5893610   -0.4284540    0.3063150  
H    -9.0736400   -2.9619770    0.1619820  
H    -7.6510900   -5.5958640   -0.1833450  
H    -5.3019790   -5.2648770   -0.2767450  
C    -1.3881770   -1.3527660   -0.0643590  
C    -0.1506090   -1.9204600   -0.2528320  
C     0.7924250   -0.8459400   -0.1603100  
C    -0.0432360    0.3656400    0.1127530  
N    -1.3101890    0.0629090    0.1521230  
C     0.5263750    1.7007610    0.3025920  
C     1.8903140    1.7455010    0.2284130  
O     2.6113230    2.8690950    0.4274020  
C     2.7539070    0.5608710   -0.0674800  
O     3.9731750    0.7732980   -0.1225030  
C     2.1591750   -0.7735410   -0.2746590  
H     0.0703150   -2.9651880   -0.4151390  
H     3.5459970    2.5779880    0.3121360  
C     2.6592460   -2.8206570   -1.6215550  
C     3.0001190   -1.9046100   -0.6619370  
C     4.3005780   -2.3388490   -0.1330990  
C     4.6585880   -3.5751130   -0.8736360  
N     3.6203080   -3.8052370   -1.7565470  
C     5.7890240   -4.3012870   -0.6829440  
C     6.7306670   -3.8603550    0.3395520  
O     7.7745370   -4.4450950    0.5865500  
C     6.3631050   -2.5731740    1.1610270  
O     7.1220140   -2.1947590    2.0386240  
C     5.1144670   -1.8662400    0.8439640  
H     6.0217730   -5.2000350   -1.2459740  
H     4.9014310   -0.9610260    1.3984890  
H     1.7813280   -2.8292790   -2.2531800  
H     3.6038240   -4.5421960   -2.4444680  
C    -1.5105160    2.7909950    1.3044280  
C    -0.3338900    2.8510530    0.5755110  
C    -0.1827330    4.2389680    0.1723580  
C    -1.2941510    4.9469000    0.6950490  
N    -2.0751410    4.0365820    1.3854440  
C    -1.5051630    6.3135200    0.4827480  
C    -0.5720170    6.9908750   -0.2862180  
O    -0.7218590    8.3264200   -0.5250390  
C     0.5408390    6.3009650   -0.8310080  
O     1.3818210    7.1036060   -1.5810730  
C     0.7418400    4.9496230   -0.6190810  
H    -2.9257980    4.2571500    1.8793350  
H    -2.3583000    6.8473370    0.8890880  
H     0.0384540    8.6061960   -1.0636170  
H     2.1572400    6.5895230   -1.8504720  
H     1.6123240    4.4543210   -1.0350980  
H    -1.9719830    1.9369920    1.7733290  
