62


C    -3.3984110   -0.2585150    0.0164810  
C    -3.9136840    0.7496650   -0.7658900  
C    -5.2989760    0.9118770   -0.4309900  
C    -5.5942200   -0.0332670    0.5805490  
N    -4.4449930   -0.7915590    0.8037580  
C    -6.8537720   -0.1355150    1.1756820  
C    -7.8434470    0.7294370    0.7286100  
O    -9.0890690    0.6745760    1.2767890  
C    -7.5723690    1.6688200   -0.3024280  
O    -8.6601820    2.4461490   -0.6435620  
C    -6.3223940    1.7669960   -0.8855720  
H    -3.3731280    1.2719440   -1.5428740  
H    -4.2478950   -1.1807240    1.7186200  
H    -7.0834920   -0.8548460    1.9549950  
H    -9.6321050    1.3488190    0.8327110  
H    -8.4084310    3.0745020   -1.3364740  
H    -6.1356470    2.4968130   -1.6705440  
C     0.7039110    1.5237040   -0.4690360  
C    -0.6645880    1.3241020   -0.3572350  
C    -0.8899530   -0.0664480   -0.1478220  
C     0.3853800   -0.6941700   -0.1264500  
N     1.3289810    0.2902090   -0.3104050  
C     0.5673760   -2.0838130    0.0353190  
C    -0.6018160   -2.8292680    0.2298100  
O    -0.5153580   -4.1645840    0.4519430  
C    -1.8804220   -2.2203420    0.2437530  
O    -2.9073940   -3.1191290    0.4489440  
C    -2.0638650   -0.8485820    0.0504920  
H    -1.4080800    2.1071200   -0.3611510  
H     2.3093040    0.1150110   -0.4706640  
H    -1.4262480   -4.5097820    0.4792540  
H    -3.7541670   -2.6907310    0.2224060  
C     1.0247610    3.8934440   -1.2867640  
C     1.4449460    2.7381620   -0.6870710  
C     2.8360780    3.0396840   -0.2629090  
C     3.0587150    4.4363720   -0.7234680  
N     1.9937920    4.9206860   -1.3091150  
C     4.3055230    5.1146420   -0.4995390  
C     5.2792470    4.4559780    0.1772720  
O     6.4888220    4.9754870    0.4560940  
C     5.0726560    3.0656170    0.6879110  
O     5.9907030    2.5291360    1.3088630  
C     3.7825240    2.3823940    0.4341810  
H     4.4405500    6.1290590   -0.8584590  
H     6.9634240    4.2759260    0.9554840  
H     3.6829450    1.3810510    0.8440220  
H     0.0598840    4.0768700   -1.7435300  
C     4.5082400   -1.5076400    2.1030460  
C     3.2006420   -1.3716340    1.7640230  
C     2.9761910   -2.3574600    0.7095660  
C     4.3042180   -3.0213290    0.5550230  
N     5.1936280   -2.5194010    1.3674740  
C     4.5137070   -4.0959520   -0.3800820  
C     3.4602220   -4.4856150   -1.1326070  
O     3.5097390   -5.4673690   -2.0479850  
C     2.1174690   -3.8075070   -1.0399700  
O     1.2664780   -4.1481510   -1.8539400  
C     1.8913930   -2.7239610   -0.0253050  
H     2.4628710   -0.7117120    2.1977570  
H     5.4890960   -4.5623220   -0.4625970  
H     2.6194410   -5.4806800   -2.4631520  
H     5.0602310   -0.9540340    2.8535640  
