60


C     0.2920290    4.5153790    0.6768560  
C     1.2032520    5.5178590    0.7811330  
C     2.4875750    4.9847600    0.4013540  
C     2.2994590    3.6233110    0.0689450  
N     0.9333350    3.3359950    0.2571800  
C     3.3399240    2.8228300   -0.4171330  
C     4.6011840    3.3981660   -0.5158510  
O     5.6395940    2.6528520   -0.9782450  
C     4.8114630    4.7528730   -0.1529870  
O     6.1124920    5.1738510   -0.3056280  
C     3.7696830    5.5488600    0.2914470  
H     0.9940420    6.5277320    1.1062760  
H     3.2118460    1.8007140   -0.7526370  
H     6.4312820    3.2186960   -0.9824790  
H     6.1924940    6.1054880   -0.0518060  
H     3.9408310    6.5936050    0.5409760  
H    -0.7617200    4.4920700    0.9093460  
C     0.2832640    2.1344530    0.1017870  
C    -1.0375620    1.8982520   -0.2039930  
C    -1.2278150    0.4816170   -0.1948660  
C     0.0728440   -0.1220150    0.1525270  
N     0.9566040    0.9357860    0.2946670  
C     0.3285440   -1.4610020    0.3083160  
C    -0.8130300   -2.3609270    0.0260810  
O    -0.7380440   -3.5736890    0.1214080  
C    -2.1939470   -1.7541330   -0.4247170  
O    -3.0866720   -2.5268980   -0.7325790  
C    -2.3281360   -0.2992370   -0.4678810  
H    -1.7746250    2.6459830   -0.4517230  
H     1.8876220    0.8524840    0.6721810  
C    -3.7084200    1.0544680   -2.0436260  
C    -4.9993400    1.4275070   -2.2218420  
C    -5.7652820    0.8652060   -1.1302400  
C    -4.7979510    0.1184650   -0.2892260  
N    -3.5473920    0.2719030   -0.8924180  
C    -5.1258590   -0.5275830    0.8558990  
C    -6.5219100   -0.5070710    1.2902480  
O    -6.9051720   -1.0491420    2.3154060  
C    -7.5670660    0.2605390    0.4014490  
O    -8.7377660    0.2839910    0.7486440  
C    -7.0835810    0.9316050   -0.8069210  
H    -5.3879970    2.0220810   -3.0360810  
H    -4.4105620   -1.0704690    1.4627940  
H    -7.8074770    1.4748190   -1.4069260  
H    -2.8409270    1.2606930   -2.6564110  
C     2.4583090   -1.4390690    1.6855390  
C     1.6152090   -1.9825350    0.7519480  
C     2.3464640   -3.1853630    0.2828460  
C     3.6198630   -3.1601550    1.0563670  
N     3.6663260   -2.1426180    1.8767210  
C     4.6360430   -4.1632980    0.8877760  
C     4.4107700   -5.1465710   -0.0164840  
O     5.2702760   -6.1413070   -0.2825850  
C     3.1409430   -5.1961490   -0.8195990  
O     3.0108480   -6.1106240   -1.6297420  
C     2.1036710   -4.1588020   -0.6143010  
H     5.5476030   -4.1123220    1.4726410  
H     4.8333110   -6.6891500   -0.9714000  
H     1.1873590   -4.2580840   -1.1832670  
H     2.2667730   -0.5775010    2.3169170  
