62


C     5.6425940    1.9250100   -0.2590960  
C     4.8783250    0.7801880   -0.1610580  
C     5.8135540   -0.3295340   -0.1717160  
C     7.1172730    0.2216100   -0.2727640  
N     6.9774220    1.5940120   -0.3252390  
C     8.2727970   -0.5672100   -0.3289670  
C     8.1115000   -1.9429300   -0.2870750  
O     9.2034130   -2.7570190   -0.3352460  
C     6.8137200   -2.5160630   -0.2005640  
O     6.8176520   -3.8964080   -0.1790070  
C     5.6743400   -1.7352620   -0.1460710  
H     7.7363920    2.2545380   -0.3900230  
H     9.2699130   -0.1463730   -0.4081770  
H     8.8820080   -3.6749750   -0.3112430  
H     5.9065210   -4.2247600   -0.1578240  
H     4.6925390   -2.1990020   -0.0920880  
H     5.3261990    2.9582330   -0.2627190  
C     1.5904800    2.7137250   -2.5386670  
C     2.8067920    2.3010890   -2.0650710  
C     2.5599560    1.4658850   -0.9219570  
C     1.1509130    1.4076680   -0.7600220  
N     0.5845350    2.1652870   -1.7621130  
C     0.5423330    0.6466060    0.2562760  
C     1.3854040   -0.0680170    1.1061170  
O     0.8522900   -0.8174480    2.1145490  
C     2.7892980   -0.0228470    0.9410730  
O     3.4686610   -0.7694610    1.8835520  
C     3.4097740    0.7321810   -0.0536860  
H     3.7704420    2.5429350   -2.4886300  
H    -0.3962940    2.3869660   -1.8362950  
H     1.6034400   -1.1751730    2.6215880  
H     4.4206360   -0.5853600    1.8061170  
H     1.3459480    3.3521790   -3.3755620  
C    -1.5997520   -0.6147130    0.4429450  
C    -2.9403540   -0.3963160    0.5910380  
C    -3.1065800    1.0520760    0.6794970  
C    -1.7464360    1.6362410    0.5703180  
N    -0.8675910    0.5709480    0.4129980  
C    -1.4768840    2.9671870    0.6406970  
C    -2.5890460    3.8959190    0.8258210  
O    -2.4412130    5.1069730    0.8900460  
C    -4.0355560    3.2987190    0.9526000  
O    -4.9801190    4.0554830    1.1106060  
C    -4.1933880    1.8420910    0.8791970  
H    -0.4714010    3.3711730    0.6023450  
H    -5.1944320    1.4426340    1.0044870  
H    -1.0783000   -1.5549820    0.3358030  
C    -3.8933540   -2.6097740    1.3650510  
C    -3.9587250   -1.4312270    0.6835090  
C    -5.2606600   -1.4952360   -0.0165870  
C    -5.8321820   -2.8113550    0.3956660  
N    -5.0256440   -3.4527450    1.1951170  
C    -7.1148100   -3.2593700   -0.0796340  
C    -7.7852400   -2.4629710   -0.9466920  
O    -8.9849670   -2.7605420   -1.4735720  
C    -7.2196850   -1.1503780   -1.4081890  
O    -7.8794900   -0.4868450   -2.2058430  
C    -5.9059910   -0.7032110   -0.8932300  
H    -7.5094210   -4.2144930    0.2489200  
H    -9.2082460   -2.0043590   -2.0592940  
H    -5.5378140    0.2533750   -1.2502410  
H    -3.0914490   -2.9416350    2.0142680  
