60


C     0.0420140    3.4204220   -0.3859720  
C    -0.6929520    4.3419150   -1.1119230  
C    -1.9089670    4.5761460   -0.4076500  
C    -1.8752680    3.7682220    0.7629380  
N    -0.7016960    3.0407990    0.7349720  
C    -2.9040430    3.7703510    1.7113950  
C    -3.9932520    4.5918860    1.4670060  
O    -5.0210410    4.6341240    2.3546050  
C    -4.0541980    5.3942110    0.2892710  
O    -5.2075340    6.1431590    0.1963310  
C    -3.0375970    5.3928090   -0.6424970  
H    -0.4005130    4.7608600   -2.0650870  
H    -0.2851240    2.6202620    1.5540020  
H    -2.8814040    3.1632210    2.6102250  
H    -5.6797040    5.2638320    2.0126970  
H    -5.1795500    6.6937650   -0.6002920  
H    -3.1012030    6.0155410   -1.5321170  
C     1.3259190    2.8385210   -0.6598630  
C     2.3578210    3.2951380   -1.4412460  
C     3.4277640    2.3392470   -1.3764460  
C     2.9521040    1.2495480   -0.4938480  
N     1.6960190    1.6315540   -0.0367580  
C     3.6536410    0.1189830   -0.1961480  
C     4.9918230   -0.0171170   -0.8196420  
O     5.6557290   -1.0332790   -0.7185900  
C     5.5466230    1.1702580   -1.6848550  
O     6.6774140    1.0786000   -2.1420680  
C     4.6766650    2.3125520   -1.9266960  
H     2.3849950    4.2454890   -1.9547820  
H     5.0567400    3.1149830   -2.5514820  
H     1.0097870    0.9454130    0.2483150  
C     0.0768230   -2.5516960   -0.3630210  
C     1.0486460   -1.6183160   -0.6208560  
C     2.0040970   -1.6508150    0.4588390  
C     1.5206660   -2.6892270    1.3961620  
N     0.3169100   -3.1530170    0.8797180  
C     2.1748670   -3.0919160    2.5126500  
C     3.4385140   -2.4386930    2.8402760  
O     4.1188570   -2.7515120    3.8040150  
C     3.9243060   -1.2599860    1.9219880  
O     4.8898150   -0.6080590    2.2756770  
C     3.1575500   -0.9462620    0.6900430  
H     1.0860800   -0.9722960   -1.4861750  
H     1.8137930   -3.8772840    3.1695520  
H    -0.0755400   -4.0478790    1.1358270  
C    -1.1043320   -2.9070260   -2.5414220  
C    -1.0551440   -2.9503790   -1.1715630  
C    -2.3454200   -3.4766440   -0.7264520  
C    -3.1303720   -3.7339840   -1.9587750  
N    -2.3171880   -3.3521530   -3.0158050  
C    -4.3886650   -4.2345630   -1.9845370  
C    -5.0384870   -4.5431330   -0.7096360  
O    -6.1644990   -5.0051930   -0.6341290  
C    -4.2407070   -4.2519310    0.6113160  
O    -4.7662210   -4.4839100    1.6867630  
C    -2.8807710   -3.7066720    0.5008720  
H    -4.9443580   -4.4112040   -2.9002440  
H    -2.3584510   -3.4893890    1.4267870  
H    -0.3285010   -2.5999280   -3.2303440  
H    -2.5535360   -3.4581870   -3.9908300  
