64


C    -2.2598780   -1.7914730   -1.7338440  
C    -3.3958470   -2.5422800   -1.5951470  
C    -3.1469620   -3.4988840   -0.5533900  
C    -1.8234110   -3.2785220   -0.0933430  
N    -1.2913530   -2.2233480   -0.8289980  
C    -1.2495650   -4.0242190    0.9429030  
C    -2.0241470   -5.0189500    1.5178210  
O    -1.5124300   -5.7819700    2.5296900  
C    -3.3491160   -5.2589070    1.0668910  
O    -3.9929780   -6.2836770    1.7385160  
C    -3.9147510   -4.5159090    0.0477740  
H    -4.2990460   -2.4425230   -2.1824310  
H    -0.2362530   -3.8595960    1.2893120  
H    -2.2009580   -6.4206510    2.7819280  
H    -4.8735480   -6.4127500    1.3568310  
H    -4.9343600   -4.7140160   -0.2781390  
H    -2.0193560   -0.9989510   -2.4285050  
C    -0.3387420    1.8782630    0.2245270  
C     1.0338120    1.7558140    0.1489700  
C     1.3443820    0.3974880   -0.1773690  
C     0.1004630   -0.2706830   -0.3192320  
N    -0.9024420    0.6448820   -0.0898950  
C    -0.0171910   -1.6227720   -0.6715020  
C     1.1694230   -2.3183970   -0.9033600  
O     1.1377370   -3.6274830   -1.2641150  
C     2.4238120   -1.6714850   -0.7824180  
O     3.4951650   -2.5087280   -1.0235890  
C     2.5510180   -0.3258100   -0.4049200  
H     1.7360080    2.5613790    0.2991630  
H    -1.8639650    0.3949080    0.0870870  
H     2.0735120   -3.8841120   -1.3781650  
H     4.0886090   -2.0643510   -1.6656350  
C    -0.8103350    4.0600120    1.3906970  
C    -1.1716090    3.0182680    0.5614940  
C    -2.5208220    3.3019290    0.1156770  
C    -2.9086870    4.5275900    0.7145700  
N    -1.8429780    4.9676000    1.4757680  
C    -4.1617850    5.1145480    0.5012970  
C    -5.0448420    4.4527650   -0.3370300  
O    -6.2819810    4.9776970   -0.5749270  
C    -4.6709790    3.2321180   -0.9583730  
O    -5.6494080    2.7013160   -1.7776170  
C    -3.4307200    2.6576900   -0.7480610  
H    -1.8392130    5.7984430    2.0461940  
H    -4.4587070    6.0519340    0.9606260  
H    -6.7398150    4.3702080   -1.1812010  
H    -5.3455130    1.8553460   -2.1384190  
H    -3.1664620    1.7354020   -1.2604640  
H     0.1054270    4.2057700    1.9452170  
C     4.3491330    2.0129260    2.8956980  
C     5.5770680    2.2981430    2.4092770  
C     5.6168870    1.6719580    1.0903890  
C     4.2616930    1.0514330    0.9357080  
N     3.5368210    1.2475750    1.9954150  
C     3.8823960    0.2948600   -0.2639040  
C     4.8772680    0.1633540   -1.1888640  
O     4.7252230   -0.5333660   -2.3530010  
C     6.2285040    0.7669570   -1.0628170  
O     7.0260670    0.5944770   -1.9900580  
C     6.5626430    1.5475900    0.1418900  
H     6.3789450    2.8461710    2.8843770  
H     5.5904200   -0.4311060   -2.8151030  
H     7.5621800    1.9671990    0.2043110  
H     3.9279080    2.2857480    3.8557450  
