60


C    -5.6200900   -2.1799920    3.0949860  
C    -5.0882390   -1.1890680    2.3079160  
C    -5.7464590   -1.2559720    1.0280650  
C    -6.6864430   -2.3173260    1.1150310  
N    -6.5738370   -2.8688710    2.3756530  
C    -7.5610480   -2.6526000    0.0763550  
C    -7.4996710   -1.8744710   -1.0675820  
O    -8.3341800   -2.1237960   -2.1101410  
C    -6.5710520   -0.8030820   -1.1904590  
O    -6.6338330   -0.1641300   -2.4032630  
C    -5.6558010   -0.4932630   -0.1782940  
H    -4.3446100   -0.4718190    2.6244110  
H    -7.1490500   -3.6151770    2.7339150  
H    -8.2843680   -3.4583500    0.1478830  
H    -8.1383980   -1.4339420   -2.7738040  
H    -6.5420700    0.8030720   -2.2279240  
H    -5.4010050   -2.4481010    4.1188400  
C    -1.3766920   -0.7212740    0.5826380  
C    -0.9761780    0.5736200    0.3547300  
C    -2.1787520    1.2976740   -0.0659640  
C    -3.2918310    0.3178430   -0.0190180  
N    -2.7259210   -0.8739250    0.3758630  
C    -4.6113670    0.5464010   -0.3375890  
C    -4.8809230    1.8749690   -0.8906830  
O    -5.9531220    2.2007980   -1.4013670  
C    -3.7455390    2.9600740   -0.8900660  
O    -4.0330330    4.0933010   -1.2386990  
C    -2.3949680    2.5677060   -0.4983280  
H    -1.6242520    3.3253490   -0.5277980  
H    -0.7690130   -1.5666240    0.8666300  
H    -3.2636910   -1.7048900    0.5805900  
C     2.7310830   -1.5572230   -0.4367620  
C     3.6942820   -0.6168670   -0.1952400  
C     2.9354560    0.5808690    0.2114940  
C     1.5090470    0.1519370    0.1485560  
N     1.4152470   -1.0947180   -0.2385590  
C     0.4010300    1.0491780    0.4609350  
C     0.7659420    2.3116050    0.8561940  
O    -0.1147030    3.2466140    1.2625650  
C     2.1776600    2.7745500    0.8953970  
O     2.4038620    3.9295610    1.2623130  
C     3.2684040    1.8437180    0.5289850  
H     0.4276640    4.0400210    1.4720710  
H     4.2796580    2.2378550    0.5406740  
H     2.8837080   -2.5879980   -0.7334110  
C     5.1224670   -0.7615410   -0.3193010  
C     5.8448850   -1.6027680   -1.1282960  
C     7.2427750   -1.3897330   -0.8678110  
C     7.3094210   -0.3428790    0.1804880  
N     5.9984000    0.0467920    0.4296510  
C     8.4561580    0.1022010    0.7465450  
C     9.7248580   -0.4565930    0.2770220  
O    10.8058350   -0.1145010    0.7289890  
C     9.6816610   -1.5357690   -0.8657140  
O    10.7334320   -2.0029650   -1.2761530  
C     8.3758820   -1.9448430   -1.3826310  
H     5.4307830   -2.2627500   -1.8772150  
H     8.4873110    0.8628790    1.5207820  
H     8.3561420   -2.7042180   -2.1583820  
H     5.7241610    0.4582080    1.3109240  
