60


C     7.0654830   -2.8562850   -0.0627710  
C     8.0884230   -1.9562550   -0.1990960  
C     7.4946020   -0.6485410   -0.2036850  
C     6.0912520   -0.8309570   -0.0871360  
N     5.8529710   -2.1898130   -0.0376280  
C     5.1687160    0.2434640   -0.0810340  
C     5.7360630    1.5269900   -0.0896390  
O     4.9450730    2.6294900    0.0340110  
C     7.1366470    1.7166540   -0.2006810  
O     7.5145710    3.0498810   -0.2220330  
C     8.0157950    0.6561500   -0.2822370  
H     9.1406010   -2.1899400   -0.2896490  
H     5.0150690   -2.5389030    0.4174450  
H     5.5309980    3.4043140   -0.0231280  
H     8.4808450    3.1078840   -0.2407690  
H     9.0858130    0.8300580   -0.3802910  
H     7.0939310   -3.9348240    0.0093400  
C     2.3931340   -2.3282050    2.2529420  
C     1.1862480   -1.8594980    1.8683040  
C     1.4720180   -0.8503750    0.8572630  
C     2.9721360   -0.8141170    0.7796100  
N     3.4904680   -1.7036900    1.5819030  
C     3.6966370    0.0821870   -0.1092910  
C     2.9068190    0.7741610   -0.9879050  
O     3.3874490    1.5692040   -1.9517700  
C     1.4071540    0.7470140   -0.9525420  
O     0.8122190    1.4841660   -1.7362750  
C     0.6921670   -0.1354130    0.0134980  
H     0.2090780   -2.1509710    2.2221040  
H     2.5953350    1.9618140   -2.3814960  
H     2.6107390   -3.0964460    2.9852760  
C    -2.2661390    0.7659120    3.1375200  
C    -3.4401480    0.6259240    2.4789870  
C    -3.0707050    0.2441220    1.1209170  
C    -1.5716790    0.1965880    1.1525420  
N    -1.1138300    0.5022790    2.3302760  
C    -0.7830010   -0.1550470   -0.0159980  
C    -1.4838100   -0.4702900   -1.1412850  
O    -0.9095330   -0.8583910   -2.2845170  
C    -2.9853810   -0.4180340   -1.2080820  
O    -3.5058280   -0.6412590   -2.2962580  
C    -3.7761630   -0.0640740    0.0052710  
H    -4.4418240    0.7647380    2.8587880  
H    -1.6433630   -0.9718530   -2.9286120  
H    -2.1120580    1.0426570    4.1735430  
C    -7.0286130    2.9588290    0.6332190  
C    -5.8007080    2.3896770    0.5771790  
C    -6.0413480    1.0127600    0.1620620  
C    -7.5320700    0.9379390    0.0026380  
N    -8.0992890    2.0758230    0.2800900  
C    -8.1904500   -0.2685660   -0.4231090  
C    -7.4196860   -1.3508010   -0.6797950  
O    -7.9000670   -2.5405500   -1.0703850  
C    -5.9240800   -1.3199710   -0.5138330  
O    -5.3126490   -2.3692070   -0.6877600  
C    -5.2460710   -0.0535730   -0.1031820  
H    -4.8434600    2.8433820    0.7887180  
H    -9.2694710   -0.2899710   -0.5269760  
H    -7.1191310   -3.1300910   -1.1535880  
H    -7.2746730    3.9790820    0.9028110  
