62


C     1.1355090   -0.5411380    1.6450380  
C     1.9059700   -0.9308920    0.5729000  
C     1.0029120   -1.5866530   -0.3483740  
C    -0.2928380   -1.5419800    0.2198650  
N    -0.1766480   -0.9291330    1.4510590  
C    -1.4366030   -2.0702210   -0.4186940  
C    -1.2182880   -2.6986750   -1.6470790  
O    -2.2707560   -3.2004930   -2.3532070  
C     0.0836260   -2.7831960   -2.2066170  
O     0.1175260   -3.4363050   -3.4268900  
C     1.1854470   -2.2313470   -1.5862200  
H    -0.9572780   -0.5911650    1.9907010  
H    -1.9063670   -3.5597870   -3.1814410  
H     1.0044340   -3.3537710   -3.8076720  
H     2.1685030   -2.2769100   -2.0463120  
H     1.4281160   -0.0116080    2.5406870  
C    -3.4690770    1.6198530    0.5090300  
C    -4.7371460    1.2171360    0.8680960  
C    -4.7000610   -0.2138060    0.7765240  
C    -3.2941950   -0.5299680    0.3383840  
N    -2.5922760    0.5630560    0.1965900  
C    -2.8062810   -1.8684650    0.1043660  
C    -3.7203730   -2.8598880    0.3257050  
O    -3.4597360   -4.1556340    0.1827740  
C    -5.1474430   -2.5848820    0.7748580  
O    -5.8630650   -3.5745490    0.9459390  
C    -5.5946840   -1.2143630    0.9855050  
H    -5.5902350    1.8178280    1.1457430  
H    -4.3050340   -4.6125980    0.4064670  
H    -6.6218990   -1.0628340    1.3004440  
C    -3.7095660    4.0520870    0.7233790  
C    -2.9836860    5.1780150    0.5564550  
C    -1.6615970    4.7880410    0.1131010  
C    -1.6641700    3.3064800    0.0292060  
N    -2.9602460    2.8990200    0.4211610  
C    -0.5882930    2.5749880   -0.3597860  
C     0.6384660    3.2861070   -0.7103780  
O     1.6612900    2.7135990   -1.0684530  
C     0.6603520    4.8507800   -0.6305750  
O     1.6792410    5.4503710   -0.9287290  
C    -0.5660270    5.5252620   -0.1963820  
H    -3.3268110    6.1891440    0.7231420  
H    -0.6061130    1.4963040   -0.4226610  
H    -0.5541840    6.6093330   -0.1408720  
H    -4.7348170    3.9411750    1.0440430  
C     5.3817600   -2.0025770    3.2066830  
C     4.1264810   -1.8273870    2.6875550  
C     4.2765390   -1.1605610    1.4223850  
C     5.6694450   -0.9625670    1.2241540  
N     6.3165160   -1.4811720    2.3277480  
C     6.1999200   -0.3589090    0.0776600  
C     5.2920820    0.0634340   -0.8815390  
O     5.7247880    0.6835020   -2.0152640  
C     3.8945250   -0.1196920   -0.7064580  
O     3.1246800    0.3458450   -1.7643110  
C     3.3605790   -0.7375960    0.4235430  
H     3.1996810   -2.1458150    3.1428880  
H     7.3142910   -1.4828970    2.4673950  
H     7.2635620   -0.2034580   -0.0724830  
H     4.9083880    0.9284710   -2.4936190  
H     2.4555850    0.9806900   -1.4350910  
H     5.6973260   -2.4596790    4.1341300  
