62


C     2.7243900   -1.1196510   -0.1237200  
C     3.3818880    0.0328060   -0.5455140  
C     4.7823790   -0.2084820   -0.4587150  
C     4.9445720   -1.5376310    0.0230190  
N     3.6903170   -2.0583980    0.2202210  
C     6.2038310   -2.1167060    0.2275150  
C     7.3162280   -1.3414660   -0.0575710  
O     8.5678490   -1.8522460    0.1246300  
C     7.1724540   -0.0089340   -0.5390520  
O     8.3771870    0.6282060   -0.7734500  
C     5.9322470    0.5603320   -0.7418560  
H     2.9223570    0.9298220   -0.9329570  
H     3.4612380   -3.0060550    0.4814020  
H     6.3340990   -3.1286560    0.5966110  
H     9.2003150   -1.1526130   -0.1141620  
H     8.2100110    1.5462690   -1.0330240  
H     5.8453960    1.5814790   -1.1075710  
C    -0.7358600    1.6073740    0.1284760  
C    -1.7242730    0.6202020    0.1272130  
C    -1.0867140   -0.6434560    0.0405260  
C     0.3150670   -0.3895350   -0.0006440  
N     0.4910280    0.9674020    0.0364040  
C     1.3018940   -1.4063700   -0.0206340  
C     0.7798540   -2.7032200    0.1052620  
O     1.6155470   -3.7820310    0.1592550  
C    -0.6108620   -2.9854670    0.1613340  
O    -0.8751840   -4.3300260    0.2244590  
C    -1.5859950   -1.9877660    0.0741230  
H    -2.7816140    0.7883090    0.2453330  
H     1.3561310    1.4663480    0.2050330  
H     1.0264240   -4.5565580    0.2734510  
H    -1.6369030   -4.4435900    0.8468660  
C    -4.8210390   -0.4661310   -2.5692100  
C    -3.6229220   -0.7795610   -2.0061660  
C    -3.8834940   -1.6371720   -0.8721530  
C    -5.3523710   -1.8028040   -0.8205390  
N    -5.8644500   -1.0446370   -1.8555620  
C    -6.0281680   -2.5508480    0.0936000  
C    -5.2447640   -3.2764690    1.0698210  
O    -5.7221150   -3.9603650    1.9631110  
C    -3.6747250   -3.2154970    0.9510500  
O    -3.0520790   -4.0096550    1.6563620  
C    -3.0336580   -2.2618280    0.0252450  
H    -2.6527870   -0.4614990   -2.3531320  
H    -7.1103670   -2.6169360    0.1373100  
H    -5.0323100    0.1308330   -3.4464620  
H    -6.8337440   -1.0383760   -2.1318550  
C    -4.1080680    4.4878200   -0.4147440  
C    -3.3244110    3.3757500   -0.4264590  
C    -2.0106300    3.7599860    0.0403850  
C    -2.0874100    5.2078380    0.3111890  
N    -3.3890250    5.5822130    0.0457730  
C    -1.0610460    5.9978840    0.7401190  
C     0.2314720    5.3821530    0.9145650  
O     1.2359650    5.9710500    1.2904530  
C     0.3680900    3.8471930    0.5840770  
O     1.4980630    3.3769280    0.6142340  
C    -0.8400250    3.0447600    0.2398170  
H    -3.6266500    2.4007480   -0.7732270  
H    -1.1702900    7.0567950    0.9508050  
H    -5.1432390    4.6039930   -0.7062330  
H    -3.7326150    6.5281110    0.0993540  
