62


C    -5.9142610    1.0293880   -1.9468440  
C    -7.2466320    0.7217660   -1.9121230  
C    -7.4592870   -0.1116470   -0.7628270  
C    -6.1988030   -0.2692290   -0.1278390  
N    -5.2580190    0.4346420   -0.8722620  
C    -6.0371010   -1.0057680    1.0574570  
C    -7.1655790   -1.6116320    1.5942900  
O    -7.0626020   -2.3361800    2.7458010  
C    -8.4286830   -1.4770410    0.9625440  
O    -9.4524490   -2.1394100    1.6140690  
C    -8.5865620   -0.7339400   -0.1938570  
H    -7.9913910    1.0471750   -2.6255650  
H    -5.0913840   -1.0725720    1.5855440  
H    -7.9547040   -2.6562210    2.9648600  
H   -10.2893350   -1.9696900    1.1570960  
H    -9.5688860   -0.6337030   -0.6518630  
H    -5.3446380    1.6121350   -2.6560240  
C    -2.4988760    3.8323850   -0.2065140  
C    -3.6178540    3.0732820   -0.4210530  
C    -3.1817690    1.7064840   -0.4813040  
C    -1.7728100    1.7074910   -0.3120660  
N    -1.3771940    3.0225640   -0.1815140  
C    -0.9861290    0.5298360   -0.3116960  
C    -1.7076030   -0.6715170   -0.3903990  
O    -1.0676750   -1.8658560   -0.2835840  
C    -3.1130310   -0.6947630   -0.5799090  
O    -3.6329420   -1.9634670   -0.7310120  
C    -3.8557020    0.4782170   -0.6473330  
H    -4.6316710    3.4336070   -0.5206010  
H    -0.5217730    3.2431870    0.3199630  
H    -1.7524400   -2.5543170   -0.3699050  
H    -4.5801640   -1.9687580   -0.5074250  
H    -2.4010070    4.9009170   -0.0738760  
C     1.9724940    2.6433550    2.2238170  
C     3.1334570    2.0429780    1.8624550  
C     2.7769390    1.1395990    0.7846160  
C     1.2866650    1.2892960    0.6539950  
N     0.8422470    2.1950090    1.4877480  
C     0.4928440    0.5063780   -0.2742630  
C     1.2266160   -0.2642060   -1.1404820  
O     0.6910360   -0.9463780   -2.1549150  
C     2.7238550   -0.4025280   -1.0764690  
O     3.2559340   -1.0666450   -1.9602290  
C     3.4997810    0.3109510   -0.0191950  
H     4.1166050    2.1896830    2.2834560  
H     1.4497640   -1.3851490   -2.6029650  
H     1.8226500    3.3925980    2.9924040  
C     4.9419870    0.1307780    0.0561250  
C     5.8914230    1.0798450    0.3184050  
C     7.1606200    0.3814470    0.2832330  
C     6.7872800   -1.0391260   -0.0095530  
N     5.5031760   -1.1821870   -0.1476190  
C     7.7856970   -2.0740430   -0.1082700  
C     9.0812940   -1.7172650    0.0546590  
O    10.1136070   -2.5701540   -0.0172130  
C     9.4877320   -0.2911690    0.3374980  
O    10.6881710   -0.0592700    0.4722160  
C     8.4507050    0.7485210    0.4455230  
H     5.7432640    2.1407640    0.4607020  
H     7.4891290   -3.0960210   -0.3157250  
H    10.9155820   -2.0241080    0.1406840  
H     8.7820390    1.7604400    0.6579940  
