64


C    -4.8406650    1.4576040   -1.2410110  
C    -5.7880670    2.1578850   -0.5511210  
C    -6.3086080    1.2854800    0.4656480  
C    -5.6370270    0.0445310    0.3378400  
N    -4.7275910    0.1656320   -0.7155390  
C    -5.8762870   -1.0333770    1.1972990  
C    -6.8249920   -0.8585620    2.1927240  
O    -7.1015790   -1.8808010    3.0532870  
C    -7.5143290    0.3751860    2.3303350  
O    -8.4251050    0.3945230    3.3698890  
C    -7.2672530    1.4409300    1.4853900  
H    -6.0956530    3.1749560   -0.7536720  
H    -5.3783940   -1.9901830    1.0970470  
H    -7.8101720   -1.5751270    3.6452190  
H    -8.9169680    1.2286350    3.3522600  
H    -7.7998090    2.3814170    1.6128500  
H    -4.2526190    1.7342810   -2.1042710  
C    -0.3997590    0.3041780   -1.0436040  
C    -0.2237340   -0.9273990   -1.6148650  
C    -1.5089250   -1.5490450   -1.7962920  
C    -2.4941840   -0.5851380   -1.2754910  
N    -1.7948740    0.5702420   -0.9046300  
C    -3.8316660   -0.8148960   -1.1843450  
C    -4.3358220   -2.1101790   -1.7014330  
O    -5.5187590   -2.3933800   -1.7151550  
C    -3.2911420   -3.1375510   -2.2783330  
O    -3.7084500   -4.2182470   -2.6684650  
C    -1.8857990   -2.7599230   -2.2988430  
H     0.7221860   -1.3366200   -1.9382230  
H    -1.1731570   -3.4784250   -2.6909120  
H    -2.1230890    1.0784530   -0.0874000  
C     3.7840060    0.0374770    0.5454490  
C     2.5246640   -0.2709090    0.0820320  
C     1.8679330    0.9708620   -0.1973970  
C     2.7849080    2.0072470    0.1163550  
N     3.9537070    1.4099900    0.5520750  
C     2.4793310    3.3632220   -0.0117310  
C     1.2092660    3.6948360   -0.4627010  
O     0.8676110    5.0052370   -0.6111360  
C     0.2675770    2.6893640   -0.7858450  
O    -0.9255660    3.1907310   -1.2507810  
C     0.5686760    1.3201030   -0.6678100  
H     2.1388280   -1.2694880   -0.0520790  
H     4.7320900    1.8827490    0.9864240  
H     3.1872770    4.1516590    0.2218480  
H    -0.0373220    5.0285350   -0.9686520  
H    -1.4862950    2.4609220   -1.5748990  
C     4.5832540   -1.9324580    1.8008040  
C     5.7747010   -2.5429390    2.0647550  
C     6.8022050   -1.7812910    1.4082320  
C     6.1654640   -0.7038250    0.7437400  
N     4.7948450   -0.8051760    1.0026780  
C     6.8706180    0.2219120   -0.0365110  
C     8.2472600    0.0711130   -0.1214340  
O     8.9784570    0.9497690   -0.8659220  
C     8.9035110   -0.9900770    0.5545360  
O    10.2729300   -1.0023570    0.3767790  
C     8.2001300   -1.9131110    1.3068270  
H     5.9105350   -3.4293120    2.6691370  
H     6.3903730    1.0222640   -0.5878290  
H     9.9078820    0.6668100   -0.8163070  
H    10.6525440   -1.7711540    0.8273840  
H     8.7204320   -2.7280920    1.8060500  
H     3.5809330   -2.1683970    2.1267800  
