60


C     4.7334330   -3.8714490   -1.8634510  
C     4.0235190   -2.7801400   -1.4333970  
C     4.8381760   -2.0968170   -0.4672380  
C     6.0490350   -2.8297050   -0.3593780  
N     5.9531910   -3.9075330   -1.2157940  
C     7.1012910   -2.4419970    0.4779430  
C     6.9253850   -1.2894770    1.2254300  
O     7.9140610   -0.8700510    2.0662650  
C     5.7212780   -0.5420230    1.1427770  
O     5.7057390    0.5504030    1.9876160  
C     4.6682430   -0.9173490    0.3080610  
H     3.0412170   -2.4920390   -1.7797590  
H     6.6716970   -4.5989540   -1.3620450  
H     8.0290260   -2.9989470    0.5595710  
H     7.6006910   -0.0547070    2.4948940  
H     4.8763060    1.0421530    1.8870350  
H     4.4715460   -4.6327980   -2.5845090  
C     2.1513440   -0.6468490    0.3611660  
C     3.4145160   -0.1431360    0.2545200  
C     3.2561990    1.2920450    0.0273000  
C     1.7987970    1.5665400    0.0387850  
N     1.1655180    0.3354350    0.2169290  
C     1.2538380    2.8028300   -0.0774690  
C     2.1480130    3.9437780   -0.2801040  
O     1.7429570    5.0900590   -0.3874400  
C     3.6909100    3.6676400   -0.3654900  
O     4.4504860    4.5994610   -0.5735780  
C     4.1593360    2.2896070   -0.1787690  
H     0.1876610    2.9935750   -0.0266400  
H     5.2292020    2.1118460   -0.2230940  
H     1.8455710   -1.6720750    0.5198590  
C    -0.8393270   -0.6273160    1.3140760  
C    -0.2108350    0.1072260    0.3589130  
C    -1.2649420    0.4716970   -0.6050700  
C    -2.4983650   -0.1121640   -0.0029790  
N    -2.2344930   -0.7629600    1.0953290  
C    -3.7970030    0.0288860   -0.6335000  
C    -3.8182480    0.6314750   -1.8554000  
O    -4.9359840    0.8236780   -2.5695040  
C    -2.5796500    1.1705280   -2.5088690  
O    -2.6961570    1.7053700   -3.6092470  
C    -1.2794840    1.0644490   -1.8115400  
H    -4.6489900    1.2830030   -3.3894000  
H    -0.4106520    1.4808430   -2.3111640  
H    -0.3931100   -1.1015800    2.1801570  
C    -5.6940620    1.1789280    3.1480600  
C    -6.7408050    0.3263550    3.2244320  
C    -6.6649530   -0.4763800    2.0073730  
C    -5.4487810    0.0458120    1.3036660  
N    -4.8967720    1.0175100    1.9653620  
C    -5.0142940   -0.4890680    0.0235730  
C    -5.7921180   -1.4607720   -0.5252900  
O    -5.5292870   -2.0550660   -1.6972340  
C    -7.0244480   -1.9932350    0.1590960  
O    -7.6490380   -2.8823540   -0.4166130  
C    -7.4263140   -1.4468680    1.4669330  
H    -7.4890570    0.2488640    4.0008110  
H    -6.2534460   -2.7085450   -1.8235240  
H    -8.3248320   -1.8536890    1.9208410  
H    -5.4052760    1.9455780    3.8571080  
