64


C     4.9478520    2.0682920   -0.0733040  
C     6.2120700    1.7447670   -0.4715540  
C     6.3226440    0.3124370   -0.4183170  
C     5.0786080   -0.1877200    0.0405680  
N     4.2357240    0.9085540    0.2490240  
C     4.8233630   -1.5578550    0.1656690  
C     5.8486520   -2.4339060   -0.1549380  
O     5.6505800   -3.7812660   -0.0426690  
C     7.1046550   -1.9488840   -0.6016810  
O     8.0238480   -2.9431680   -0.8840360  
C     7.3500910   -0.5948590   -0.7372870  
H     6.9855610    2.4456750   -0.7552970  
H     3.8813040   -1.9520390    0.5254090  
H     6.4894650   -4.2138380   -0.2767500  
H     8.8758380   -2.5387720   -1.1041710  
H     8.3159310   -0.2419680   -1.0940510  
H     4.4778220    3.0318840    0.0581380  
C     0.6825840    2.7967680   -1.4553090  
C     1.9400650    2.3321030   -1.2479520  
C     1.9181440    1.5743600   -0.0175200  
C     0.5277330    1.6399700    0.4859460  
N    -0.1893210    2.3902140   -0.4398410  
C     0.0840160    1.0511820    1.6299870  
C     1.0341960    0.2871830    2.4192060  
O     0.7370450   -0.3192050    3.4380700  
C     2.5333320    0.2263900    1.9388300  
O     3.3502770   -0.3401480    2.6416810  
C     2.8918520    0.8907940    0.6621480  
H     2.7949040    2.4859860   -1.8885070  
H    -0.9398950    1.1236560    1.9771960  
H     0.2932490    3.3983310   -2.2642320  
C    -3.7499000   -0.1877250   -0.3658400  
C    -4.6761140    0.8439490   -0.3112840  
C    -3.9556390    2.0788360   -0.3003200  
C    -2.5757360    1.7431470   -0.3510740  
N    -2.4808970    0.3756720   -0.3834940  
C    -1.5680680    2.7255700   -0.3708870  
C    -1.9674940    4.0618830   -0.3483750  
O    -1.0268150    5.0496780   -0.3745350  
C    -3.3433770    4.4005700   -0.3131080  
O    -3.5707460    5.7640620   -0.3064540  
C    -4.3332540    3.4360610   -0.2843080  
H    -5.7499540    0.7375170   -0.3677730  
H    -1.6409320   -0.1721310   -0.5048300  
H    -1.5044740    5.8966350   -0.3275190  
H    -4.5161550    5.9351730   -0.1843370  
H    -5.3818590    3.7251150   -0.2616570  
C    -7.1054100   -2.6443290    1.1108090  
C    -6.6348170   -3.8642130    0.7059650  
C    -5.3643790   -3.6377050    0.0757200  
C    -5.1239830   -2.2401600    0.1143120  
N    -6.2120420   -1.6570260    0.7324080  
C    -3.9472420   -1.6357680   -0.3908890  
C    -2.9912490   -2.5248860   -0.8994290  
O    -1.7904980   -2.0530140   -1.3716600  
C    -3.2231950   -3.9197330   -0.9544600  
O    -2.1787280   -4.6281380   -1.5220770  
C    -4.3945680   -4.4862380   -0.4906710  
H    -7.1299760   -4.8159540    0.8407590  
H    -6.2178810   -0.7073990    1.0721470  
H    -1.2672220   -2.8301350   -1.6387210  
H    -2.3053050   -5.5755560   -1.3667320  
H    -4.5503840   -5.5612670   -0.5474630  
H    -8.0165870   -2.3849170    1.6312390  
