62


C     3.5638880   -2.5760830    2.7418800  
C     4.3020180   -3.5663130    2.1504940  
C     3.5762710   -3.9995380    0.9886540  
C     2.3943340   -3.2179160    0.9213310  
N     2.4227110   -2.3421360    1.9905310  
C     1.4072070   -3.3877550   -0.0770290  
C     1.6578870   -4.3853860   -1.0244290  
O     0.7822920   -4.5735610   -2.0457760  
C     2.8386160   -5.1705310   -0.9712970  
O     2.9332240   -6.0949530   -1.9943420  
C     3.7938430   -4.9895620    0.0105820  
H     5.2503480   -3.9491200    2.5020040  
H     1.6415270   -1.7743990    2.2808760  
H     1.0682880   -5.3660140   -2.5330570  
H     3.6594810   -6.7087790   -1.8103400  
H     4.6916120   -5.6041500    0.0258800  
H     3.7539510   -2.0038400    3.6391240  
C     0.8715160    0.9414290   -0.2171290  
C    -0.5088630    0.9947160   -0.2136280  
C    -1.0146360   -0.3404980   -0.1912380  
C     0.1672860   -1.2194310   -0.1578100  
N     1.2841990   -0.3899950   -0.1373640  
C     0.1705750   -2.5839060   -0.1308180  
C    -1.1613640   -3.2247690   -0.0588970  
O    -1.3097180   -4.4145960    0.1487970  
C    -2.4400040   -2.3307310   -0.2230410  
O    -3.4903530   -2.9014140   -0.4542690  
C    -2.3055840   -0.8556430   -0.1667740  
H    -1.0944520    1.8990510   -0.1610210  
H     2.1809140   -0.7178400   -0.4715680  
C    -3.4887480   -0.0273270   -0.1628540  
C    -3.6816800    1.2124400   -0.7289300  
C    -5.0300700    1.5936730   -0.4024790  
C    -5.5430100    0.4495600    0.4207230  
N    -4.6573590   -0.4901610    0.5528960  
C    -6.8746720    0.4615370    0.9747330  
C    -7.6578700    1.5305310    0.7024310  
O    -8.9186780    1.6781340    1.1386400  
C    -7.1736370    2.6894720   -0.1399840  
O    -7.9679930    3.6163500   -0.3225570  
C    -5.8149420    2.6662030   -0.6778940  
H    -3.0031350    1.7560630   -1.3702660  
H    -7.2207200   -0.3737900    1.5731620  
H    -9.2091200    2.5454520    0.7745340  
H    -5.4977890    3.5210020   -1.2675640  
C     1.8359330    1.9997230   -0.2289550  
C     1.6991950    3.3282430   -0.6027240  
C     2.9658510    3.9541030   -0.4427060  
C     3.8645670    2.9617180    0.0428890  
N     3.1674340    1.7752570    0.1290170  
C     5.2030510    3.2379290    0.3429880  
C     5.6462460    4.5344830    0.1355370  
O     6.9359980    4.8598690    0.4085130  
C     4.7653240    5.5387970   -0.3679030  
O     5.3698420    6.7671990   -0.5212850  
C     3.4462890    5.2658300   -0.6588480  
H     0.7944610    3.7766310   -0.9896030  
H     3.4753720    0.9760990    0.6648840  
H     5.8922310    2.4885270    0.7175520  
H     7.0532510    5.8025700    0.1959990  
H     4.7297360    7.4104190   -0.8607810  
H     2.7893570    6.0451420   -1.0383800  
