60


C    -2.0169000   -1.9916100    0.0759490  
C    -3.1234070   -1.1907910   -0.2428590  
C    -4.2857200   -1.9899810   -0.1202290  
C    -3.8547880   -3.2904080    0.2825970  
N    -2.4900260   -3.2572120    0.3922900  
C    -4.7497470   -4.3449470    0.4991970  
C    -6.0961360   -4.0852620    0.3015180  
O    -7.0104280   -5.0688290    0.4943140  
C    -6.5453700   -2.7894130   -0.1065880  
O    -7.9119220   -2.7102930   -0.2556620  
C    -5.6663440   -1.7514530   -0.3177130  
H    -3.0937610   -0.1815810   -0.6264530  
H    -1.8572220   -4.0244970    0.5839110  
H    -4.4310470   -5.3355460    0.8047180  
H    -7.8892750   -4.6970780    0.3010560  
H    -8.1618850   -1.8198800   -0.5451930  
H    -6.0258200   -0.7727530   -0.6276370  
C     0.1167560    1.8356030    0.2057330  
C     1.4056760    1.3459460    0.1009060  
C     1.3503600   -0.0777200    0.0543910  
C    -0.0694070   -0.4204680    0.0958270  
N    -0.7754860    0.7733690    0.1586610  
C    -0.6084340   -1.6914540    0.0831860  
C     0.3989280   -2.7739210    0.1035660  
O     0.1225830   -3.9480730    0.3059600  
C     1.9071620   -2.4341780   -0.1606700  
O     2.6251640   -3.3969680   -0.4250050  
C     2.3570160   -1.0501990   -0.0534380  
H     2.2860090    1.9552220   -0.0224480  
H    -1.7108310    0.8134550    0.5412720  
C     0.4129580    4.2362430    0.8391180  
C    -0.3380250    3.1970610    0.3435410  
C    -1.6514630    3.7552040    0.0216200  
C    -1.5892040    5.1913560    0.3874820  
N    -0.3032910    5.4078530    0.8625010  
C    -2.6105160    6.0702580    0.2536280  
C    -3.8787240    5.5821490   -0.2930580  
O    -4.8571870    6.2950150   -0.4363860  
C    -3.9630930    4.0726170   -0.7152190  
O    -5.0048030    3.6398740   -1.1789790  
C    -2.7759950    3.2286290   -0.5289420  
H    -2.5373740    7.1193540    0.5228170  
H    -2.8475540    2.2011650   -0.8679050  
H     1.4303090    4.2126300    1.2065880  
H     0.0381570    6.2877850    1.2196190  
C     3.7712280   -0.7479220   -0.0552370  
C     4.4524680    0.3919830    0.3450460  
C     5.8547170    0.1575740    0.1855130  
C     5.9823040   -1.2236130   -0.3435600  
N     4.7005560   -1.7033000   -0.4744150  
C     7.1666180   -1.8274810   -0.6211120  
C     8.3996620   -1.0817000   -0.3902250  
O     9.5095880   -1.5445610   -0.6114640  
C     8.2883700    0.3848130    0.1690850  
O     9.3153750    1.0221190    0.3648290  
C     6.9591130    0.9241930    0.4302080  
H     4.0206620    1.2760930    0.7841970  
H     7.2422250   -2.8397610   -1.0059090  
H     6.8940840    1.9364160    0.8187260  
H     4.4137190   -2.6488990   -0.6970290  
