62


C     2.0915450   -0.6851250    0.5008600  
C     3.3574690   -0.1862690    0.3060860  
C     3.1886190    1.2191460   -0.0155590  
C     1.8005110    1.4988070    0.0119050  
N     1.1386390    0.3141090    0.3264550  
C     1.2781190    2.7716080   -0.2458010  
C     2.1769430    3.7806200   -0.5571900  
O     1.7214970    5.0393290   -0.8150410  
C     3.5712920    3.5154340   -0.6125730  
O     4.3346120    4.6165100   -0.9449010  
C     4.0835270    2.2586190   -0.3484350  
H     0.2160330    2.9876110   -0.2197960  
H     2.4940660    5.5851370   -1.0426810  
H     5.2629220    4.3535320   -1.0328110  
H     5.1539440    2.0762730   -0.3999180  
H     1.7771630   -1.6884480    0.7494150  
C    -0.9068090   -0.2146320    1.6053520  
C    -0.2499770    0.1458860    0.4673120  
C    -1.2426740    0.2586630   -0.5933250  
C    -2.5414980   -0.0606970    0.0383250  
N    -2.2662600   -0.3379030    1.3664860  
C    -3.7420310   -0.0962330   -0.6118570  
C    -3.7240910    0.2517530   -2.0520420  
O    -4.7425510    0.3740880   -2.7076050  
C    -2.3423460    0.5340490   -2.7458590  
O    -2.3229690    0.7445000   -3.9471050  
C    -1.1347820    0.5417690   -1.9174860  
H    -0.1852480    0.7593160   -2.3953420  
H    -0.4996140   -0.4006300    2.5900570  
H    -2.9550180   -0.6406200    2.0374210  
C    -6.0156450    1.5993610    2.8358740  
C    -5.0836550    1.3527640    1.8775330  
C    -5.5437360    0.2117850    1.1102210  
C    -6.8416680   -0.1855060    1.7086570  
N    -7.0551350    0.6815280    2.7657070  
C    -7.6352750   -1.1889990    1.2549160  
C    -7.1845670   -1.9508710    0.0975800  
O    -7.8381560   -2.8487130   -0.4093760  
C    -5.7766390   -1.6094710   -0.5094870  
O    -5.3159580   -2.3450830   -1.3621570  
C    -5.0204160   -0.4443950    0.0268300  
H    -4.1835680    1.9223530    1.7021820  
H    -8.5948890   -1.4394130    1.6965040  
H    -6.0336860    2.3759050    3.5892920  
H    -7.8993140    0.7158780    3.3156720  
C     4.6929620   -4.0922680   -1.4843400  
C     3.9734960   -2.9771740   -1.1425300  
C     4.7951130   -2.1942490   -0.2610410  
C     6.0208770   -2.8952380   -0.1097580  
N     5.9273620   -4.0492600   -0.8615740  
C     7.0812800   -2.4166470    0.6694880  
C     6.8944990   -1.2033240    1.3113380  
O     7.8866100   -0.6884770    2.0988370  
C     5.6784200   -0.4869560    1.1761620  
O     5.6479640    0.6915420    1.9027720  
C     4.6163100   -0.9507220    0.4011100  
H     2.9798370   -2.7330640   -1.4896950  
H     6.6525170   -4.7426560   -0.9544610  
H     8.0182270   -2.9513140    0.7881020  
H     7.5395180    0.1345490    2.4844550  
H     4.7543370    1.0692650    1.8515040  
H     4.4311120   -4.9214750   -2.1264160  
