62


C     2.8200930    1.0545070   -1.1548090  
C     3.5286350    0.0562400   -0.5217080  
C     2.5584350   -0.6849620    0.2610730  
C     1.2948480   -0.0769580    0.0455130  
N     1.4822250    0.9705000   -0.8273470  
C     0.1221670   -0.5437650    0.6702660  
C     0.2391980   -1.6449630    1.5180520  
O    -0.8669270   -2.1432030    2.1459710  
C     1.4985300   -2.2592980    1.7303300  
O     1.4408050   -3.3370380    2.5915510  
C     2.6506510   -1.7962630    1.1237740  
H     0.7711330    1.6308870   -1.1034770  
H    -0.5592240   -2.8655130    2.7225210  
H     2.3385650   -3.6320170    2.8056880  
H     3.6049830   -2.2842360    1.3007180  
H     3.1738200    1.8188280   -1.8316020  
C    -2.2747240   -0.6350320    0.0117560  
C    -3.3675460    0.1744260   -0.1063740  
C    -2.9224530    1.5151590    0.2871220  
C    -1.4919890    1.3847990    0.6589360  
N    -1.1440510    0.0542210    0.4419850  
C    -0.7196510    2.3985720    1.1318320  
C    -1.3229290    3.7193480    1.2829050  
O    -0.7071800    4.6893650    1.6988510  
C    -2.8339170    3.8829970    0.8932660  
O    -3.3631850    4.9753710    1.0188410  
C    -3.5610170    2.7065320    0.3988150  
H     0.3128030    2.2669990    1.4361800  
H    -4.5993130    2.8433120    0.1222430  
H    -2.1896840   -1.6895630   -0.2064380  
C    -5.7352110   -3.3939430    1.0265810  
C    -4.7885630   -2.4231880    0.9418580  
C    -5.2481050   -1.4537950   -0.0325350  
C    -6.5622870   -1.9453430   -0.5082780  
N    -6.7877810   -3.1350210    0.1554400  
C    -7.3586110   -1.3098650   -1.4087740  
C    -6.8953110   -0.0467120   -1.9533040  
O    -7.5381070    0.6277880   -2.7439650  
C    -5.4847360    0.4868270   -1.4990380  
O    -5.0714500    1.5165470   -2.0053360  
C    -4.7004980   -0.2818970   -0.5000010  
H    -3.8705670   -2.3772710    1.5085150  
H    -8.3223670   -1.6920390   -1.7302190  
H    -5.7582680   -4.2775420    1.6504730  
H    -7.6339980   -3.6779690    0.0851030  
C     7.0846520    2.7601620    0.0022310  
C     5.8127030    2.2556570   -0.0705700  
C     5.9262120    0.8653370   -0.4151280  
C     7.3131750    0.5816350   -0.5330620  
N     7.9930010    1.7551360   -0.2769570  
C     7.8074230   -0.6912300   -0.8423360  
C     6.8769070   -1.6984660   -1.0409910  
O     7.2947170   -2.9593910   -1.3633290  
C     5.4883850   -1.4379840   -0.9272190  
O     4.6915380   -2.5460030   -1.1713830  
C     4.9833620   -0.1768990   -0.6154050  
H     4.9014990    2.8064380    0.1135020  
H     8.9950340    1.8608850   -0.2888500  
H     8.8663890   -0.9084100   -0.9381210  
H     6.4936050   -3.4870390   -1.5262130  
H     3.7771980   -2.2461980   -1.3037440  
H     7.4259850    3.7593100    0.2335980  
