62


C     3.2723980    0.8009400    2.0540320  
C     4.5731530    1.1913370    2.2034400  
C     5.3233230    0.5965840    1.1327530  
C     4.4070600   -0.1516080    0.3494050  
N     3.1468580   -0.0192100    0.9310790  
C     4.7939830   -0.8451770   -0.8089980  
C     6.1356400   -0.7986020   -1.1647730  
O     6.5609500   -1.4544240   -2.2805610  
C     7.0674460   -0.0675130   -0.3823890  
O     8.3595350   -0.1212450   -0.8637720  
C     6.6766330    0.6300190    0.7466680  
H     4.9572360    1.8252140    2.9908760  
H     4.0906300   -1.3654670   -1.4505800  
H     7.5148170   -1.2849320   -2.3711430  
H     8.9359750    0.4332260   -0.3172810  
H     7.4059720    1.1957450    1.3229180  
H     2.4025220    1.0047380    2.6613600  
C    -0.8741290    1.5894310   -0.1043730  
C     0.4683170    1.4525580    0.2513500  
C     0.7720720    0.0685800    0.2677630  
C    -0.4187980   -0.6214870   -0.0998070  
N    -1.3891920    0.3138530   -0.3153690  
C    -0.4697280   -2.0233220   -0.2272340  
C     0.7107750   -2.7226460    0.0180490  
O     0.7296120   -4.0734810   -0.0984680  
C     1.9080380   -2.0504180    0.3978650  
O     2.9502920   -2.9056840    0.6532770  
C     1.9546560   -0.6696150    0.5294600  
H     1.1641540    2.2579940    0.4221520  
H    -2.3348930    0.1589940   -0.6400210  
H     1.6378220   -4.3648760    0.1055180  
H     3.7957890   -2.4221290    0.6571180  
C    -1.7567940   -3.5573660   -1.7272610  
C    -3.0019510   -4.0798010   -1.8346340  
C    -3.7842560   -3.5657710   -0.7312400  
C    -2.8732020   -2.6876180    0.0455870  
N    -1.6492440   -2.7021440   -0.6203650  
C    -3.2262060   -2.0364940    1.1836430  
C    -4.5949170   -2.1874670    1.6742980  
O    -4.9993030   -1.6411110    2.6891950  
C    -5.5826290   -3.0943980    0.8536340  
O    -6.7333930   -3.2195910    1.2425800  
C    -5.0738400   -3.7586940   -0.3485870  
H    -3.3478630   -4.7578250   -2.6013150  
H    -2.5420990   -1.4206630    1.7567620  
H    -5.7575330   -4.3991220   -0.8976770  
H    -0.8882920   -3.7077510   -2.3527320  
C    -0.4276920    5.9264130    0.9805310  
C    -0.2137400    4.5861770    0.9409420  
C    -1.3123780    4.0419410    0.1527770  
C    -2.1170520    5.2382070   -0.1957890  
N    -1.5926890    6.3384950    0.2755890  
C    -3.3347650    5.1529760   -0.9612620  
C    -3.7576680    3.9270220   -1.3398270  
O    -4.8946320    3.7021320   -2.0266060  
C    -2.9838850    2.6934160   -1.0004890  
O    -3.4851200    1.6184760   -1.3461150  
C    -1.6663700    2.7872450   -0.2774120  
H     0.5740190    4.0378960    1.4343950  
H    -3.8921830    6.0533030   -1.1944580  
H    -4.9582480    2.7298390   -2.1308700  
H     0.1675590    6.6791830    1.4834700  
