62


C    -3.7761280    0.0609150   -1.8942800  
C    -5.1361370   -0.0638260   -1.8860360  
C    -5.4743890   -0.9865530   -0.8382170  
C    -4.2565930   -1.3899230   -0.2325130  
N    -3.2177580   -0.7430030   -0.8983600  
C    -4.2138920   -2.2635350    0.8670290  
C    -5.4231050   -2.7610700    1.3380390  
O    -5.4336940   -3.6097520    2.4034230  
C    -6.6472200   -2.3840450    0.7281030  
O    -7.7583590   -2.9635920    1.3063830  
C    -6.6843020   -1.5018340   -0.3375970  
H    -5.8217810    0.4410020   -2.5525970  
H    -3.2975410   -2.5084670    1.3945450  
H    -6.3633790   -3.8236450    2.5951420  
H    -8.5611500   -2.6291790    0.8797500  
H    -7.6366690   -1.2117650   -0.7769990  
H    -3.1261160    0.6365150   -2.5366110  
C     0.0608750    2.1418400   -0.1177940  
C    -1.1760800    1.5544330   -0.3505500  
C    -0.9600240    0.1566200   -0.4890070  
C     0.4356340   -0.0783770   -0.3405260  
N     1.0257370    1.1352040   -0.1256680  
C     1.0199420   -1.3714090   -0.3743390  
C     0.1067820   -2.4278210   -0.5226920  
O     0.5415710   -3.7208770   -0.5486010  
C    -1.2843380   -2.2169370   -0.7050320  
O    -1.9840850   -3.3774150   -0.9466880  
C    -1.8318190   -0.9394570   -0.6970170  
H    -2.1105690    2.0885500   -0.4008440  
H     1.9871190    1.2899310    0.1419420  
H    -0.2517660   -4.2796510   -0.6612810  
H    -2.9222200   -3.2718550   -0.7029460  
C    -2.4487310    5.7576100   -0.0134910  
C    -1.5376360    6.7199740    0.2465120  
C    -0.2593880    6.0210860    0.3381060  
C    -0.6059980    4.5847250    0.0982890  
N    -1.8808490    4.4440310   -0.1065900  
C     0.4144820    3.5281070    0.1059810  
C     1.6954600    3.9605720    0.3405530  
O     2.7672740    3.1283770    0.3825060  
C     2.0589240    5.3771320    0.5804730  
O     3.2478170    5.6409870    0.7859310  
C     1.0064390    6.4118650    0.5682450  
H    -1.6975310    7.7826210    0.3645230  
H     3.5340930    3.7152730    0.5779960  
H     1.3142870    7.4376790    0.7468540  
H    -3.5174150    5.8630520   -0.1536880  
C     2.4578880   -1.5754540   -0.2609500  
C     3.4905340   -0.6980900   -0.5123210  
C     4.7305120   -1.3788760   -0.2567030  
C     4.3623960   -2.7508730    0.1731460  
N     2.9864360   -2.7969070    0.1697050  
C     5.2585190   -3.7196910    0.4927460  
C     6.6808180   -3.4023340    0.4170570  
O     7.5588560   -4.2098970    0.6845300  
C     7.0945700   -1.9509090   -0.0293280  
O     8.2834190   -1.6701560   -0.0925800  
C     6.0357320   -0.9971440   -0.3500440  
H     3.4039790    0.3013930   -0.9105760  
H     4.9705040   -4.7192990    0.8035510  
H     6.3334630   -0.0001810   -0.6610830  
H     2.4229680   -3.6289460    0.2644190  
