62


C     0.8948730   -0.6475200    2.0613930  
C    -0.4225750   -0.7480110    1.7129940  
C    -0.5049940   -1.5907050    0.5471700  
C     0.8183980   -1.9868870    0.2320550  
N     1.6582060   -1.3810390    1.1590500  
C     1.1485030   -2.8522210   -0.8124590  
C     0.0928580   -3.3536970   -1.5561670  
O     0.3246940   -4.2160750   -2.5822690  
C    -1.2491200   -2.9927080   -1.2635910  
O    -2.1799910   -3.5621280   -2.1129000  
C    -1.5773000   -2.0965860   -0.2390680  
H    -1.2432980   -0.2642060    2.2208190  
H     2.1699240   -3.1389860   -1.0349680  
H    -0.5550070   -4.4341500   -2.9446940  
H    -2.8682020   -3.9907110   -1.5645540  
H     1.3848580   -0.1149130    2.8630920  
C    -3.5524780    1.8226520    0.1354200  
C    -4.8670290    1.4733340    0.3433410  
C    -4.8711900    0.0441720    0.3300530  
C    -3.4289180   -0.3409020    0.1102200  
N    -2.6765000    0.7142080   -0.0047760  
C    -2.9889210   -1.7290290    0.0154010  
C    -4.0003280   -2.6368160    0.1123300  
O    -3.8123890   -3.9728030    0.0089330  
C    -5.4502290   -2.2902290    0.3432970  
O    -6.2306370   -3.2457310    0.4258630  
C    -5.8423000   -0.8980940    0.4534020  
H    -5.7268110    2.1102830    0.4854160  
H    -4.7173420   -4.3538550    0.1387050  
H    -6.8922140   -0.6754100    0.6117250  
C    -3.8051380    4.2505490    0.0657300  
C    -3.0515260    5.3671100   -0.0243590  
C    -1.6656080    4.9601470   -0.1109260  
C    -1.6579850    3.4782450   -0.0692140  
N    -3.0164420    3.0849430    0.0413400  
C    -0.5290490    2.7336690   -0.1174340  
C     0.7589880    3.4356490   -0.2152320  
O     1.8231880    2.8408500   -0.2529340  
C     0.7676740    5.0016040   -0.2653550  
O     1.8306600    5.5943950   -0.3442430  
C    -0.5252500    5.6883360   -0.2072460  
H    -3.4183470    6.3837350   -0.0338940  
H    -0.5301670    1.6527640   -0.0807750  
H    -0.5254060    6.7736470   -0.2367160  
H    -4.8782670    4.1571060    0.1378920  
C     3.5055470   -2.7516510    1.9878040  
C     4.8591970   -2.7916630    1.8155870  
C     5.2218530   -1.6845820    0.9704150  
C     4.0329610   -0.9838970    0.6499160  
N     2.9947800   -1.6503990    1.2991570  
C     4.0034760    0.1554080   -0.1599470  
C     5.2180500    0.5909820   -0.6711300  
O     5.2616220    1.6884200   -1.4782030  
C     6.4246450   -0.0942760   -0.3647400  
O     7.5487670    0.4647740   -0.9457140  
C     6.4414920   -1.2130950    0.4467070  
H     5.5297350   -3.5241580    2.2443850  
H     3.0950030    0.7071650   -0.3754210  
H     6.1942580    1.8425370   -1.7060460  
H     8.3313370   -0.0405300   -0.6811230  
H     7.3786690   -1.7198680    0.6696800  
H     2.8322100   -3.3937850    2.5366120  
