60


C     1.2421480    5.1103500   -0.4749580  
C     1.2439620    3.8036280   -0.0074960  
C    -0.1350580    3.4781730    0.3095840  
C    -0.9093810    4.6166120   -0.0148080  
N    -0.0354580    5.5905990   -0.4776200  
C    -2.2998530    4.6616760    0.1275000  
C    -2.9383530    3.5332210    0.6253880  
O    -4.2857780    3.5394960    0.7532910  
C    -2.1692980    2.4017640    1.0204290  
O    -2.9089050    1.3810740    1.5615420  
C    -0.7941660    2.3616670    0.8640240  
H    -0.3078300    6.5062170   -0.8027790  
H    -2.8908340    5.5306760   -0.1423670  
H    -4.6132330    2.6499010    0.9852880  
H    -2.3326510    0.6515380    1.8370840  
H    -0.2488570    1.4893000    1.2170790  
H     2.0637980    5.7058500   -0.8461250  
C     2.3985450    2.9459030    0.0399990  
C     3.7451690    3.2119920    0.1071220  
C     4.4512840    1.9633370    0.0765480  
C     3.4238310    0.9033180   -0.0327500  
N     2.2261850    1.5505120   -0.0386430  
C     3.6721790   -0.4596840   -0.0773170  
C     5.1034860   -0.8630230   -0.0629720  
O     5.4787970   -1.9996700   -0.2715560  
C     6.1920450    0.2462210    0.1552240  
O     7.3570420   -0.0967190    0.2883420  
C     5.7762780    1.6450120    0.1631210  
H     4.1928920    4.1889520    0.2170830  
H     6.5513520    2.3989830    0.2632230  
H     1.3324750    1.0898580   -0.1107050  
C     2.6136250   -1.4337260   -0.1270130  
C     1.3365810   -1.2943510   -0.6535460  
C     0.6498610   -2.5059260   -0.3374570  
C     1.6618680   -3.3249140    0.4073570  
N     2.7986150   -2.7026090    0.5204380  
C     1.3352210   -4.6199390    0.9426300  
C     0.0787260   -5.0836420    0.7436040  
O    -0.3654800   -6.2652880    1.1887860  
C    -0.9713980   -4.2946200   -0.0094990  
O    -2.0824080   -4.8112920   -0.1346630  
C    -0.6202250   -2.9701680   -0.5353510  
H     0.9638350   -0.5035280   -1.2896010  
H     2.0826070   -5.1879850    1.4845690  
H    -1.3007650   -6.3244110    0.8891020  
C    -1.4155150   -1.7437630   -2.5505470  
C    -2.3932920   -0.8716470   -2.8999210  
C    -3.2734080   -0.7322390   -1.7612310  
C    -2.7339850   -1.6329030   -0.7107450  
N    -1.5952650   -2.2331160   -1.2499090  
C    -3.2788860   -1.7715900    0.5240980  
C    -4.4799270   -0.9960440    0.8415110  
O    -5.0964920   -1.1259760    1.8866120  
C    -4.9676380    0.0658550   -0.2045930  
O    -5.8010940    0.8954790    0.1370950  
C    -4.3593120    0.0547630   -1.5327940  
H    -2.4977670   -0.3745910   -3.8534840  
H    -2.9134310   -2.4748900    1.2638910  
H    -4.7449370    0.7488700   -2.2732950  
H    -0.5713360   -2.1011480   -3.1252670  
