66


C     3.4726130   -0.1986800    0.3989380  
C     4.2030210    0.7948130    1.0085490  
C     3.4263900    2.0032690    0.9814960  
C     2.2041040    1.6937290    0.3423720  
N     2.2154590    0.3334260    0.0387180  
C     1.1888220    2.6342120    0.0920290  
C     1.4433540    3.9386630    0.5255040  
O     0.5056300    4.9086730    0.3468690  
C     2.6584390    4.2641720    1.1820540  
O     2.7431210    5.5910050    1.5616670  
C     3.6435560    3.3224030    1.4211590  
H     5.1685880    0.6596930    1.4754380  
H     1.7102000   -0.0162440   -0.7676400  
H     0.8834730    5.7381980    0.6869920  
H     3.6162150    5.7621720    1.9442440  
H     4.5648950    3.6036120    1.9272130  
C     7.2825250   -2.3589930   -0.5795410  
C     6.3465720   -1.3925950   -0.3157700  
C     5.0934430   -2.0611000   -0.1011830  
C     5.3369790   -3.4502850   -0.2588100  
N     6.6793440   -3.6020150   -0.5419200  
C     4.3328210   -4.4197320   -0.1503240  
C     3.0506790   -3.9731150    0.1241400  
O     2.0308360   -4.8714960    0.2537570  
C     2.7761250   -2.5913370    0.2867590  
O     1.4486490   -2.3299630    0.5709190  
C     3.7728110   -1.6142570    0.1835970  
H     6.5249800   -0.3277190   -0.2975840  
H     7.1405150   -4.4812220   -0.7138030  
H     4.5195870   -5.4820550   -0.2697240  
H     1.2327280   -4.3603590    0.4758020  
H     1.3491270   -1.3945400    0.8262130  
H     8.3376960   -2.2669830   -0.7952110  
C    -1.9448860   -0.1256450    1.4652750  
C    -2.7976190   -0.0432300    0.3852370  
C    -2.1735390    0.8788760   -0.5465320  
C    -0.9522180    1.3026860    0.0328740  
N    -0.8306470    0.6611180    1.2495280  
C    -0.0837900    2.2402060   -0.5637690  
C    -0.4909880    2.7537600   -1.7951520  
O     0.3006820    3.6405530   -2.4575520  
C    -1.7174770    2.3480760   -2.3869630  
O    -1.9683070    2.9529170   -3.6045010  
C    -2.5567790    1.4281090   -1.7888050  
H    -0.1165690    0.8713720    1.9306620  
H    -0.1762050    3.9016440   -3.2645270  
H    -2.8386790    2.6770820   -3.9281540  
H    -3.4920420    1.1413830   -2.2627220  
H    -2.0399510   -0.7159150    2.3653750  
C    -6.3567200   -0.5163850    3.0975740  
C    -5.1496160   -0.1561220    2.5581580  
C    -5.0623500   -0.7686480    1.2609850  
C    -6.2682080   -1.4925830    1.0661650  
N    -7.0347110   -1.3243420    2.2022650  
C    -6.5484850   -2.2058220   -0.1059340  
C    -5.5836610   -2.1868520   -1.0997490  
O    -5.7882430   -2.8757110   -2.2629870  
C    -4.3717850   -1.4716020   -0.9259240  
O    -3.5089340   -1.5757360   -2.0038850  
C    -4.0810800   -0.7552650    0.2341680  
H    -4.4127050    0.4837460    3.0218440  
H    -7.9482780   -1.7224440    2.3507090  
H    -7.4678850   -2.7625960   -0.2560080  
H    -4.9764830   -2.7790280   -2.7908100  
H    -2.6522640   -1.1902410   -1.7551380  
H    -6.7988460   -0.2631450    4.0509560  
