62


C    -4.7745190   -3.8858570    0.9472270  
C    -6.0532730   -4.0061210    0.4699720  
C    -6.4677110   -2.6997770    0.0457280  
C    -5.3780020   -1.8183170    0.2836620  
N    -4.3641310   -2.5717140    0.8374410  
C    -5.4243600   -0.4304270    0.0124870  
C    -6.6433800    0.0313320   -0.4815830  
O    -6.8109950    1.3820420   -0.7325520  
C    -7.7396190   -0.8271740   -0.7297890  
O    -8.8495340   -0.1718070   -1.2304700  
C    -7.6660900   -2.1838280   -0.4834700  
H    -6.6371780   -4.9152410    0.4334210  
H    -3.4664610   -2.2098590    1.1193970  
H    -7.7145050    1.4963810   -1.0810640  
H    -9.5689470   -0.8048680   -1.3709820  
H    -8.5194370   -2.8300080   -0.6770740  
H    -4.1119790   -4.6319070    1.3628580  
C    -1.1214250   -0.7490880   -1.1640830  
C    -2.4627760   -0.9189460   -1.0330200  
C    -2.9661640    0.1449340   -0.1940930  
C    -1.8625190    0.9601750    0.1503110  
N    -0.7213580    0.4004260   -0.4604530  
C    -1.9826990    2.0808580    0.9784960  
C    -3.2654850    2.4170220    1.3914310  
O    -3.4567930    3.5125360    2.1673610  
C    -4.3928940    1.6341310    1.0308580  
O    -5.5783730    2.1004070    1.5415130  
C    -4.2673860    0.4636820    0.2764470  
H    -3.0460710   -1.6961010   -1.5049030  
H    -1.1453780    2.6752030    1.3213880  
H    -4.4198770    3.5672220    2.3210010  
H    -6.2609700    2.0245580    0.8378360  
H    -0.3946160   -1.2979180   -1.7429400  
C     0.5724100    0.8629800   -0.4480260  
C     1.7401090    0.1571350   -0.6282500  
C     2.8168890    1.0971210   -0.5826350  
C     2.2068370    2.4281220   -0.3651010  
N     0.8360330    2.2154690   -0.2439680  
C     2.8903430    3.5926630   -0.2912620  
C     4.3482990    3.5461530   -0.4126360  
O     5.0500940    4.5394330   -0.3285020  
C     5.0358420    2.1532250   -0.6523600  
O     6.2435570    2.1126690   -0.8184670  
C     4.1782290    0.9593550   -0.6937160  
H     1.8274110   -0.9160200   -0.6999330  
H     2.4188130    4.5562520   -0.1262360  
H     0.1486700    2.9359090   -0.4153290  
C     4.5768460   -1.0392180   -2.1360560  
C     5.3228860   -2.1714570   -2.1428900  
C     6.0718470   -2.2003260   -0.9049570  
C     5.6958630   -0.9691700   -0.1671810  
N     4.7679080   -0.2977270   -0.9638840  
C     6.1687450   -0.6418110    1.0600370  
C     7.1203070   -1.5467500    1.7016950  
O     7.5877640   -1.3411420    2.8113950  
C     7.5453780   -2.8493320    0.9296440  
O     8.3407680   -3.6153330    1.4520030  
C     6.9539040   -3.0953430   -0.3867790  
H     5.3622260   -2.9089590   -2.9316100  
H     5.8854670    0.2617830    1.5878260  
H     7.2415020   -4.0036770   -0.9077300  
H     3.9016540   -0.6540370   -2.8887800  
