64


C    -5.5554880   -0.1467050   -2.9581260  
C    -5.0170420    0.1074940   -1.7187670  
C    -6.1070480    0.3923160   -0.8213010  
C    -7.2945810    0.2941740   -1.5892330  
N    -6.9272630   -0.0212370   -2.8834890  
C    -8.5654150    0.5092120   -1.0400040  
C    -8.6340990    0.8273330    0.3068230  
O    -9.8463230    1.0391690    0.8951820  
C    -7.4510840    0.9336750    1.0884600  
O    -7.6856770    1.2635790    2.4097340  
C    -6.1983220    0.7253910    0.5448150  
H    -7.5650390   -0.1742730   -3.6485570  
H    -9.4790280    0.4300140   -1.6203070  
H    -9.6803520    1.2164820    1.8373600  
H    -6.8633000    1.1789690    2.9147200  
H    -5.3051760    0.8067900    1.1591510  
H    -5.0617980   -0.4106730   -3.8819620  
C    -2.6928620    0.9181020   -2.0553500  
C    -1.4492860    0.6738510   -1.5327260  
C    -1.6060010   -0.3144430   -0.4959630  
C    -2.9866220   -0.6426650   -0.4604320  
N    -3.6389820    0.1339220   -1.4137590  
C    -3.5144010   -1.6356930    0.3730770  
C    -2.6152090   -2.3106160    1.1814750  
O    -3.0444140   -3.3039250    2.0071450  
C    -1.2285090   -1.9931060    1.1838930  
O    -0.4940810   -2.7439390    2.0697120  
C    -0.6962360   -0.9782250    0.3829350  
H    -0.5266310    1.1177950   -1.8787210  
H    -4.5648400   -1.9024540    0.3757760  
H    -2.2352650   -3.6525040    2.4301260  
H     0.3484090   -2.9849570    1.6100090  
H    -3.0056300    1.5957300   -2.8368980  
C     1.1065380    2.9992140    0.7058530  
C     2.4254720    2.6844230    0.6893410  
C     2.5269670    1.2390660    0.6087980  
C     1.1381920    0.7370270    0.5589230  
N     0.3321350    1.8423070    0.6636960  
C     0.7327410   -0.5833390    0.4487210  
C     1.8159340   -1.5387610    0.4653450  
O     1.6720610   -2.7652820    0.5434870  
C     3.3075210   -1.0395800    0.3813390  
O     4.1594760   -1.8888430    0.1881460  
C     3.6193250    0.4012680    0.5607620  
H     3.2494970    3.3802680    0.7046800  
H     0.6257030    3.9671920    0.7468450  
H    -0.6656500    1.8096610    0.5053720  
C     5.3646090    1.8647660    1.6021950  
C     4.9947980    0.8582380    0.7195120  
C     6.2225250    0.4333990    0.0641470  
C     7.2692450    1.2336440    0.5857650  
N     6.7125770    2.0876520    1.5232200  
C     8.5999350    1.1333810    0.1640300  
C     8.8869730    0.1971980   -0.8161930  
O    10.1659080    0.0435720   -1.2623080  
C     7.8534090   -0.6100920   -1.3595230  
O     8.2894330   -1.4965250   -2.3258920  
C     6.5417230   -0.5021190   -0.9400670  
H     7.2308350    2.7240840    2.1090640  
H     9.3950550    1.7486020    0.5725950  
H    10.1540400   -0.6746180   -1.9189470  
H     7.5696350   -2.1050680   -2.5505940  
H     5.7796550   -1.1547080   -1.3507360  
H     4.7573220    2.3957740    2.3205360  
