62


C     4.3938040   -3.3220230   -2.8373340  
C     3.8091070   -2.1993800   -2.3117490  
C     4.2865520   -2.0745070   -0.9633230  
C     5.1716630   -3.1604220   -0.7265180  
N     5.2107510   -3.9051510   -1.8864890  
C     5.8516250   -3.3429680    0.4833550  
C     5.6320620   -2.4093410    1.4849360  
O     6.2662000   -2.5304490    2.6825580  
C     4.7337490   -1.3255570    1.2941330  
O     4.5501140   -0.5280730    2.4051260  
C     4.0620780   -1.1561430    0.0853710  
H     3.1321680   -1.5350080   -2.8296580  
H     5.7752520   -4.7279690   -2.0290680  
H     6.5384860   -4.1649920    0.6556490  
H     5.9861490   -1.7686450    3.2226720  
H     4.4727160    0.4081960    2.1411250  
H     4.2995690   -3.7584570   -3.8215110  
C     1.7813690   -0.2454820   -0.3620140  
C     1.1103100    0.9424470   -0.3875460  
C     2.1087980    1.9746480   -0.0871020  
C     3.3956180    1.2628080    0.1064610  
N     3.1391440   -0.0836930   -0.0770000  
C     4.5817670    1.8690300    0.4041520  
C     4.6002400    3.3195170    0.5647490  
O     5.6155580    3.9541540    0.8063470  
C     3.2385950    4.0856220    0.4193640  
O     3.2101070    5.2892750    0.6146180  
C     2.0366180    3.3208310    0.0529670  
H     5.5269450    1.3346400    0.4391350  
H     1.1228910    3.8796270   -0.1095640  
H     1.4049530   -1.2426010   -0.5440420  
C    -2.4173330   -1.2557980    1.1456190  
C    -1.1659800   -0.7806970    0.9246040  
C    -1.2697200    0.2806380   -0.0514060  
C    -2.7111220    0.3848140   -0.3839610  
N    -3.3671750   -0.5723780    0.3802690  
C    -3.2404450    1.2676560   -1.2749780  
C    -2.3383040    2.1986710   -1.9317420  
O    -2.7089060    3.0484620   -2.7278460  
C    -0.8034180    2.1161470   -1.5961020  
O    -0.0498800    2.8901170   -2.1629170  
C    -0.3271510    1.0967110   -0.6301730  
H    -0.2641270   -1.1205890    1.4103160  
H    -4.2937100    1.2980700   -1.5298450  
H    -2.7502790   -2.0445780    1.8047950  
C    -6.7767990    2.0533260    1.2833570  
C    -7.7555220    1.1104960    1.1158990  
C    -7.1041780   -0.1165790    0.7524910  
C    -5.7105900    0.1550520    0.7180280  
N    -5.5376230    1.4784370    1.0588410  
C    -4.7634900   -0.8360270    0.3958800  
C    -5.2392440   -2.1165060    0.1156810  
O    -4.3593420   -3.1119710   -0.1947350  
C    -6.6277730   -2.3956960    0.1670790  
O    -6.9302720   -3.7124000   -0.1220660  
C    -7.5575750   -1.4209420    0.4764100  
H    -8.8179120    1.2669640    1.2404350  
H    -4.6617130    1.9767200    1.0220870  
H    -4.8872970   -3.9095690   -0.3767800  
H    -7.8911240   -3.8224160   -0.1753620  
H    -8.6175250   -1.6628190    0.5122070  
H    -6.8516370    3.0979250    1.5498710  
