62


C     2.1150110    3.0995720    0.0284440  
C     3.4495760    3.4424130    0.1330290  
C     4.2107990    2.2315420    0.0979710  
C     3.2945020    1.1575590   -0.0332610  
N     2.0401360    1.7141030   -0.0639520  
C     3.6798950   -0.2121850   -0.0516800  
C     5.0728830   -0.4553240    0.0511080  
O     5.5648030   -1.7089960   -0.0376570  
C     5.9909150    0.6178400    0.1759500  
O     7.3079540    0.2046870    0.2483320  
C     5.5847800    1.9388310    0.2008950  
H     3.8346900    4.4455050    0.2535300  
H     1.1791600    1.2001960   -0.1540030  
H     6.5323770   -1.6449750    0.0619550  
H     7.8887890    0.9733150    0.3460850  
H     6.3192380    2.7363930    0.2950910  
C     2.7007670   -1.2693810   -0.1379490  
C     1.4282680   -1.2055630   -0.6837760  
C     0.8087340   -2.4560400   -0.3856140  
C     1.8623380   -3.2270720    0.3517980  
N     2.9572880   -2.5386280    0.4886320  
C     1.6108930   -4.5499650    0.8600850  
C     0.3827860   -5.0793410    0.6510030  
O     0.0046590   -6.2935300    1.0704520  
C    -0.7119150   -4.3345010   -0.0848500  
O    -1.7899270   -4.9155930   -0.2213830  
C    -0.4383620   -2.9820670   -0.5814140  
H     1.0078780   -0.4200100   -1.2944020  
H     2.3875530   -5.0841930    1.3952860  
H    -0.9272300   -6.3931430    0.7691270  
C    -1.3275310   -1.7404290   -2.5500270  
C    -2.3663170   -0.9276790   -2.8638210  
C    -3.2443340   -0.8864380   -1.7150930  
C    -2.6323830   -1.7766420   -0.6970830  
N    -1.4612030   -2.2826050   -1.2648450  
C    -3.1492740   -1.9834460    0.5396880  
C    -4.3981310   -1.3061370    0.8925920  
O    -4.9768380   -1.4949680    1.9508960  
C    -4.9974320   -0.2809420   -0.1326830  
O    -5.9272750    0.4336410    0.2175360  
C    -4.3854720   -0.1929720   -1.4574540  
H    -2.5128130   -0.4073360   -3.7992520  
H    -2.7187080   -2.6679190    1.2617140  
H    -4.8303970    0.4890930   -2.1755190  
H    -0.4658790   -2.0194140   -3.1418860  
C     0.8097150    5.1719330   -0.5793570  
C     0.9050260    3.8982160   -0.0564640  
C    -0.4438490    3.4986770    0.2931460  
C    -1.3014330    4.5674840   -0.0672780  
N    -0.5055840    5.5770580   -0.5766950  
C    -2.6917180    4.5111980    0.0864200  
C    -3.2404360    3.3564810    0.6270640  
O    -4.5881750    3.2637840    0.7659260  
C    -2.3903890    2.2968540    1.0487630  
O    -3.0542610    1.2325890    1.6171720  
C    -1.0174070    2.3539200    0.8855330  
H    -0.8413840    6.4578900   -0.9336060  
H    -3.3485730    5.3230210   -0.2090530  
H    -4.8324180    2.3647690    1.0527060  
H    -2.4184960    0.5857530    1.9586600  
H    -0.4033500    1.5346770    1.2536950  
H     1.5845560    5.8055870   -0.9864160  
