62


C    -5.1190100    0.8484510    2.0985330  
C    -4.4527780    0.3943550    0.9762960  
C    -5.4616590   -0.1831980    0.1150780  
C    -6.7077630   -0.0463160    0.7760600  
N    -6.4671790    0.5832970    1.9821550  
C    -7.9119210   -0.5140680    0.2337500  
C    -7.8543910   -1.1333890   -1.0040130  
O    -8.9957910   -1.6038570   -1.5855810  
C    -6.6130710   -1.2839560   -1.6791660  
O    -6.7191030   -1.9227660   -2.9014340  
C    -5.4281810   -0.8248480   -1.1386940  
H    -7.1745840    0.8715260    2.6396330  
H    -8.8669180   -0.4073000    0.7380970  
H    -8.7435020   -1.9789700   -2.4470520  
H    -5.8561240   -1.9172020   -3.3412320  
H    -4.4935810   -0.9328460   -1.6811740  
H    -4.7355050    1.3908570    2.9518370  
C    -1.1728630   -0.6862200    3.6859620  
C    -0.1179220   -0.3269790    2.8863250  
C    -0.6759590    0.1570200    1.6556380  
C    -2.0874120    0.0783030    1.7729090  
N    -2.3571860   -0.4338080    3.0244850  
C    -2.9969050    0.4693290    0.7662790  
C    -2.4114930    0.9436580   -0.4106660  
O    -3.1940420    1.3575270   -1.4485840  
C    -1.0031170    1.0126700   -0.5745300  
O    -0.5979760    1.4426520   -1.8229130  
C    -0.1327470    0.6315700    0.4427890  
H     0.9287210   -0.3900930    3.1482020  
H    -3.2852890   -0.6653800    3.3451580  
H    -2.5836750    1.6943850   -2.1307470  
H     0.2037400    1.9920440   -1.7483830  
H    -1.1782650   -1.0956170    4.6862430  
C     2.1228220   -0.4177270    0.2998540  
C     3.4252720   -0.0884540    0.0280850  
C     3.4230910    1.3453440   -0.2741020  
C     2.0202750    1.7996710   -0.1009660  
N     1.2777120    0.6843400    0.2467170  
C     1.5882080    3.0813570   -0.2734680  
C     2.5561250    4.0932330   -0.6860030  
O     2.2703300    5.2710750   -0.8373960  
C     4.0275300    3.6220730   -0.9514530  
O     4.8468040    4.4319580   -1.3551270  
C     4.3741160    2.2173340   -0.6971720  
H     0.5728710    3.3969840   -0.0513320  
H     5.4078480    1.9320940   -0.8398310  
H     1.7080540   -1.3907260    0.5116780  
C     3.4187140   -4.3361720   -1.0263140  
C     4.7234940   -4.6688280   -0.9153660  
C     5.3933980   -3.4442780   -0.4888100  
C     4.2927250   -2.4325720   -0.3987690  
N     3.1480010   -2.9633870   -0.7142830  
C     4.5340060   -1.0415020   -0.0063890  
C     5.8285220   -0.7479600    0.3273610  
O     6.2296450    0.4543220    0.7859920  
C     6.9416920   -1.7407950    0.2436500  
O     8.0697280   -1.3657790    0.5696250  
C     6.6652270   -3.1222690   -0.1947070  
H     5.1907160   -5.6265710   -1.0974570  
H     7.1977940    0.3596960    0.9351750  
H     7.5056380   -3.8081350   -0.2413110  
H     2.5877030   -4.9679240   -1.3155780  
