62


C    -6.6259890   -1.9671760    2.0098660  
C    -5.4555680   -1.3677620    1.6208280  
C    -5.7923210   -0.3462600    0.6666830  
C    -7.2066180   -0.3713620    0.5303930  
N    -7.6832670   -1.3782190    1.3454760  
C    -7.9127890    0.5225080   -0.2798230  
C    -7.1712470    1.4850490   -0.9467310  
O    -7.7922610    2.4009310   -1.7366480  
C    -5.7570900    1.5475230   -0.8256100  
O    -5.1848090    2.5506120   -1.5730960  
C    -5.0362990    0.6237690   -0.0601160  
H    -4.4708410   -1.6234250    1.9833620  
H    -8.6569070   -1.5969180    1.4865980  
H    -8.9934370    0.5053800   -0.3782840  
H    -7.0830510    2.9899000   -2.0599820  
H    -4.5013160    2.9752910   -1.0050200  
H    -6.7960600   -2.7718720    2.7111420  
C    -2.0814940   -2.5963300   -0.6509850  
C    -3.1932170   -1.8294020   -0.6017120  
C    -2.8013570   -0.5051780   -0.1754190  
C    -1.3344870   -0.5550010    0.0288690  
N    -0.9355050   -1.8713450   -0.2791270  
C    -0.5965980    0.4885530    0.4821910  
C    -1.2788130    1.7603660    0.6749380  
O    -0.7178320    2.7667880    1.0789790  
C    -2.7990770    1.8607260    0.3025840  
O    -3.2822500    2.9894170    0.2517490  
C    -3.5573260    0.6293810    0.0124550  
H    -4.1944940   -2.1401300   -0.8554920  
H     0.4596210    0.4221230    0.6971640  
H    -1.9736300   -3.6253070   -0.9603480  
C     0.3293520   -2.4273730   -0.2580180  
C     0.6690260   -3.7521920   -0.3388780  
C     2.1052830   -3.7644880   -0.3064940  
C     2.4986740   -2.3176900   -0.2115790  
N     1.4457900   -1.5529960   -0.1763410  
C     3.8986120   -1.8869450   -0.1620880  
C     4.8091540   -2.9164830   -0.1573490  
O     6.1492790   -2.7215970   -0.0933940  
C     4.4477020   -4.3540330   -0.2373340  
O     5.3788780   -5.1728260   -0.2370760  
C     3.0403200   -4.7431110   -0.3184950  
H     0.0244900   -4.6175210   -0.3766510  
H     6.5252840   -3.6341900   -0.1165710  
H     2.8143830   -5.8028000   -0.3804600  
C     4.2550710   -0.4859600   -0.1018990  
C     3.4595480    0.6542810   -0.2004760  
C     4.3056130    1.7847270   -0.0689580  
C     5.6339420    1.2961690    0.1026920  
N     5.5739380   -0.0735600    0.0782100  
C     6.7330480    2.1490150    0.2632600  
C     6.4860110    3.5128370    0.2544790  
O     7.5146580    4.3901810    0.4095060  
C     5.1616530    4.0191230    0.0886520  
O     5.0947130    5.3981670    0.1087940  
C     4.0809650    3.1806130   -0.0726670  
H     2.3957240    0.6520360   -0.3666790  
H     6.3496240   -0.7150610    0.1515190  
H     7.7474630    1.7876000    0.3950180  
H     7.1354790    5.2863940    0.3878180  
H     4.1691480    5.6785150    0.0494410  
H     3.0767290    3.5820920   -0.1901550  
