62


C     3.7269960    1.6187030   -2.4305760  
C     4.4181110    2.6407860   -1.8385390  
C     3.5927180    3.1455680   -0.7766420  
C     2.3936720    2.3858590   -0.7871210  
N     2.4863170    1.4839870   -1.8291180  
C     1.3268130    2.6151430    0.1107710  
C     1.5424620    3.6040430    1.0768900  
O     0.5995600    3.8423120    2.0335230  
C     2.7378060    4.3658670    1.0979240  
O     2.7740440    5.3106260    2.1100170  
C     3.7504140    4.1643790    0.1812010  
H     5.3981790    2.9987460   -2.1228060  
H     1.9300650    0.6405240   -1.8559870  
H     0.9292660    4.5779210    2.5783660  
H     3.6204630    5.7799030    2.0801220  
H     4.6535320    4.7709850    0.2127710  
H     4.0076490    0.9701810   -3.2486580  
C     0.3066270   -1.6519970   -0.0446580  
C    -1.0812160   -1.6216900   -0.0151520  
C    -1.4226320   -0.2497280    0.0147570  
C    -0.0931980    0.4745740    0.0114360  
N     0.9052910   -0.3763240   -0.0358850  
C     0.0264390    1.9078350    0.0384200  
C    -1.1711260    2.5744390   -0.0164060  
O    -1.2765440    3.8931490   -0.0694980  
C    -2.5321690    1.8887500   -0.0026930  
O    -3.5022410    2.6500520    0.0422380  
C    -2.6188560    0.4353690   -0.0068420  
H    -1.7667820   -2.4536820    0.0010210  
H    -2.2510090    4.0662040   -0.0600340  
C    -4.7902380   -2.6286210    2.4565800  
C    -3.8192370   -1.7960950    2.0076690  
C    -4.3858850   -1.1515200    0.8280620  
C    -5.7555700   -1.7381370    0.7236300  
N    -5.9863480   -2.5987500    1.6762010  
C    -6.6784130   -1.3407170   -0.3082380  
C    -6.2635510   -0.4098830   -1.1967850  
O    -7.0104710    0.0471430   -2.2159840  
C    -4.8789110    0.1784180   -1.1448200  
O    -4.5529180    0.9184630   -2.0676000  
C    -3.9425100   -0.1988540   -0.0361190  
H    -2.8365570   -1.6288380    2.4239480  
H    -7.6667170   -1.7845910   -0.3535120  
H    -6.4289110    0.6698130   -2.7049790  
H    -4.7565180   -3.2830680    3.3198430  
C     0.6151410   -4.0648830   -0.2333890  
C     1.6431640   -4.9493890   -0.2519950  
C     2.8693620   -4.2014110   -0.1117320  
C     2.5263570   -2.8332360   -0.0130150  
N     1.1114540   -2.7549120   -0.0936380  
C     3.4897440   -1.8359410    0.1584820  
C     4.8215580   -2.2360980    0.2158630  
O     5.7934840   -1.2975340    0.3815810  
C     5.1785680   -3.6015480    0.1081520  
O     6.5337330   -3.8391210    0.1815800  
C     4.2160120   -4.5860210   -0.0526810  
H     1.5500550   -6.0219420   -0.3573650  
H     3.2330300   -0.7900870    0.2487790  
H     6.6481110   -1.7613170    0.4049110  
H     6.7039890   -4.7908660    0.1209660  
H     4.5016510   -5.6331440   -0.1265370  
H    -0.4463890   -4.2292410   -0.3252120  
