62


C    -4.0285570   -1.5085110    2.5462270  
C    -3.9521400   -1.0053460    1.2689420  
C    -4.8478770   -1.7714510    0.4420950  
C    -5.4462070   -2.7360410    1.2907520  
N    -4.9224920   -2.5573320    2.5576660  
C    -6.3813130   -3.6698740    0.8256610  
C    -6.7133870   -3.6260170   -0.5187490  
O    -7.6218310   -4.5086090   -1.0239330  
C    -6.1158800   -2.6676630   -1.3832680  
O    -6.5457530   -2.7579780   -2.6923260  
C    -5.1928410   -1.7484270   -0.9239160  
H    -5.1715330   -3.0967180    3.3717610  
H    -6.8459450   -4.4093610    1.4697840  
H    -7.7232100   -4.3071870   -1.9703610  
H    -6.1497620   -2.0438450   -3.2136150  
H    -4.7469160   -1.0225370   -1.5991650  
H    -3.5167010   -1.1908790    3.4428430  
C    -1.7376050    0.0443400    0.9496940  
C    -1.2083190    1.2406970    0.4857230  
C    -2.3452080    2.0339510    0.0479490  
C    -3.5067180    1.2605040    0.2912130  
N    -3.1052370    0.0464210    0.8527460  
C    -4.7999320    1.6977320   -0.0106110  
C    -4.9292460    2.9446290   -0.6045750  
O    -6.1663870    3.4234530   -0.9262220  
C    -3.7801360    3.7245300   -0.8844760  
O    -4.0595790    4.9371870   -1.4880180  
C    -2.5047410    3.2887550   -0.5728750  
H    -5.6801050    1.1009930    0.1991170  
H    -6.0389860    4.3106930   -1.3044640  
H    -3.2411060    5.4482980   -1.5724350  
H    -1.6473970    3.9189430   -0.7799970  
H    -1.2242040   -0.8270200    1.3211230  
C     2.1782670   -1.4467590    0.0092490  
C     3.2660250   -0.6027960    0.0402070  
C     2.6666530    0.7320970    0.2290380  
C     1.2036140    0.4815680    0.2855280  
N     0.9475580   -0.8023770    0.1468060  
C     0.2182600    1.5467360    0.4573000  
C     0.7582250    2.8043350    0.5938790  
O     0.0203070    3.9141040    0.8255270  
C     2.2120460    3.0818770    0.5372020  
O     2.5883970    4.2505220    0.6880110  
C     3.1704140    1.9731800    0.3348140  
H     0.6865270    4.6352230    0.8996710  
H     4.2306140    2.1931000    0.2906570  
H     2.1892770   -2.5241590   -0.1102420  
C     4.6526610   -0.9257130   -0.0845520  
C     5.2502940   -2.1553810   -0.2650410  
C     6.6582110   -1.9059350   -0.3219740  
C     6.7783710   -0.4148080   -0.1554770  
N     5.6141020    0.1477740   -0.0187540  
C     8.0577340    0.2437810   -0.1569840  
C     9.1565890   -0.5310890   -0.3146160  
O    10.4107090   -0.0681370   -0.3373380  
C     9.0692950   -2.0383650   -0.4850680  
O    10.1399430   -2.6363490   -0.6203100  
C     7.7637870   -2.6832230   -0.4804580  
H     4.7652090   -3.1179130   -0.3488920  
H     8.1200580    1.3194050   -0.0352630  
H    10.9719150   -0.8686970   -0.4651250  
H     7.7362380   -3.7611520   -0.6047730  
