64


C    -3.3092610    1.1325550   -1.8750120  
C    -4.6037670    1.5719730   -1.8204000  
C    -5.2206140    0.9343480   -0.6916750  
C    -4.2311660    0.1140890   -0.0886150  
N    -3.0603920    0.2467310   -0.8293460  
C    -4.4808850   -0.6499340    1.0631630  
C    -5.7588890   -0.5945000    1.6027120  
O    -6.0531490   -1.3160130    2.7213140  
C    -6.7627360    0.2123080    1.0052580  
O    -7.9800900    0.1587680    1.6559720  
C    -6.5071430    0.9746330   -0.1203460  
H    -5.0695800    2.2620410   -2.5107740  
H    -3.7135260   -1.2337880    1.5608650  
H    -6.9807530   -1.1315260    2.9491270  
H    -8.6079830    0.7538510    1.2204010  
H    -7.2906090    1.5932810   -0.5539430  
H    -2.5231590    1.3442430   -2.5853160  
C     1.1252340    1.6440330   -0.2053210  
C    -0.2589380    1.5835440   -0.3747960  
C    -0.6190470    0.2089690   -0.4377250  
C     0.5774830   -0.5484330   -0.2923800  
N     1.6090810    0.3479920   -0.1679460  
C     0.6177170   -1.9634500   -0.3005870  
C    -0.6200420   -2.5755300   -0.4912490  
O    -0.7017120   -3.9500820   -0.5485100  
C    -1.8280500   -1.8523110   -0.6613690  
O    -2.9302840   -2.6475390   -0.8832620  
C    -1.8469040   -0.4649410   -0.6308850  
H    -0.9508390    2.4120850   -0.3448040  
H     2.5751780    0.1372890    0.0573450  
H    -1.6476290   -4.1712300   -0.6429020  
H    -3.7453210   -2.1578510   -0.6747750  
C     3.9312780   -1.7274340    2.7329590  
C     2.7458540   -1.5746330    2.0630390  
C     2.7931640   -2.4338950    0.9096820  
C     4.0459090   -3.1039070    0.9519970  
N     4.7167470   -2.6487260    2.0679780  
C     4.4329440   -4.0627700    0.0092760  
C     3.5197100   -4.3648670   -0.9873370  
O     3.8139770   -5.3058090   -1.9284870  
C     2.2626730   -3.7073470   -1.0608070  
O     1.4862890   -4.1008320   -2.1350390  
C     1.8856870   -2.7192290   -0.1486760  
H     1.9317120   -0.9319410    2.3644620  
H     5.6436930   -2.9319570    2.3435510  
H     5.3879170   -4.5770320    0.0464740  
H     3.0233790   -5.3546770   -2.4991220  
H     0.5786220   -4.2592110   -1.8009670  
H     4.2866510   -1.2516230    3.6357490  
C     0.5822240    5.8671440   -1.2978710  
C     1.7395240    6.3765100   -0.8028310  
C     2.4896360    5.2749450   -0.2389930  
C     1.6568310    4.0714350   -0.4318970  
N     0.4948150    4.5012080   -1.0459980  
C     2.0035730    2.7910710   -0.0646350  
C     3.3760690    2.6429970    0.4688440  
O     3.9008380    1.5568960    0.6747580  
C     4.2305490    3.9294380    0.7831400  
O     5.3017860    3.7765330    1.3513940  
C     3.7108450    5.2201130    0.3665830  
H     2.0497610    7.4110190   -0.8260720  
H     4.3191000    6.1005110    0.5472110  
H    -0.2277240    6.3698080   -1.8098130  
H    -0.1386690    3.8693510   -1.5141260  
