60


C    -7.6108380   -1.7775390    2.0728450  
C    -7.3762240   -3.1100230    1.8582390  
C    -6.2219680   -3.2001510    1.0114600  
C    -5.8023170   -1.8769440    0.7314660  
N    -6.6727330   -1.0316610    1.3817540  
C    -4.6499500   -1.5671100   -0.0399270  
C    -3.9299270   -2.6751040   -0.5363560  
O    -2.8550520   -2.5041380   -1.3435120  
C    -4.3551280   -4.0020020   -0.2668900  
O    -3.5468650   -4.9597000   -0.8463530  
C    -5.4792280   -4.2760630    0.4870080  
H    -7.9531970   -3.9319910    2.2584550  
H    -6.5397930   -0.0351760    1.4657860  
H    -2.5280990   -3.3945830   -1.5690480  
H    -3.8784820   -5.8454300   -0.6377210  
H    -5.7795870   -5.3050900    0.6730840  
H    -8.3783320   -1.2869990    2.6542700  
C    -4.2564090   -0.1983700   -0.2962530  
C    -5.0500060    0.9190840   -0.4189670  
C    -4.1599310    2.0260610   -0.6483670  
C    -2.8002740    1.4042660   -0.6020760  
N    -2.8536810    0.1252060   -0.4080300  
C    -1.5917940    2.1939110   -0.7784470  
C    -1.7570330    3.5142090   -1.0691490  
O    -0.7534680    4.3626820   -1.3201680  
C    -3.1221190    4.1585100   -1.1175860  
O    -3.1416180    5.3649220   -1.3723650  
C    -4.3171430    3.3513310   -0.8906900  
H    -6.1297230    0.9576210   -0.4607070  
H    -1.1949810    5.2314690   -1.4786870  
H    -5.2769000    3.8554970   -0.9382090  
C    -0.0253330    0.3225170   -1.2299190  
C     1.2539310   -0.0471920   -0.9379480  
C     1.8336310    0.9756070   -0.1183060  
C     0.7716550    1.9918230    0.0662870  
N    -0.3317640    1.5633950   -0.6806030  
C     0.8802040    3.0860790    0.8583540  
C     2.1273890    3.2830720    1.5837820  
O     2.3311090    4.2416440    2.3103580  
C     3.2571960    2.2057870    1.4390980  
O     4.2367160    2.3307750    2.1654650  
C     3.0828060    1.1007680    0.4734130  
H     1.7111770   -0.9790250   -1.2274380  
H     0.1007080    3.8268490    0.9739000  
H    -0.7852030   -0.2171240   -1.7747960  
C     4.1835430    0.1908140    0.2072690  
C     4.3935840   -0.6579010   -0.8632870  
C     5.6589280   -1.3066730   -0.6771630  
C     6.2086200   -0.7765910    0.5962900  
N     5.2692870    0.1025600    1.0824830  
C     7.4100630   -1.1366550    1.1174010  
C     8.2190280   -2.1106120    0.3922700  
O     9.3108890   -2.4960140    0.7847210  
C     7.6524670   -2.6908620   -0.9566330  
O     8.3177000   -3.5120100   -1.5729180  
C     6.3482910   -2.2219810   -1.4180800  
H     3.7597870   -0.7649530   -1.7289910  
H     7.7983320   -0.7367480    2.0488970  
H     5.9689820   -2.6251930   -2.3524220  
H     5.3779800    0.7566720    1.8477470  
