60


C    -5.2109190   -2.3049200    3.1390850  
C    -4.3705140   -1.5480380    2.3627570  
C    -4.8310260   -1.6505860    1.0073460  
C    -5.9803160   -2.4876700    1.0333310  
N    -6.1763370   -2.8824500    2.3404380  
C    -6.7365470   -2.7819270   -0.1025250  
C    -6.3432100   -2.1898250   -1.2942110  
O    -7.0453120   -2.4265630   -2.4334200  
C    -5.2190530   -1.3272880   -1.3569190  
O    -4.9659100   -0.8550160   -2.6233350  
C    -4.4181850   -1.0674330   -0.2332770  
H    -3.5197620   -0.9893380    2.7229150  
H    -6.9399670   -3.4542560    2.6656150  
H    -7.6129260   -3.4217380   -0.0807010  
H    -6.6170870   -1.8853470   -3.1244310  
H    -4.7430370    0.0981710   -2.5376330  
H    -5.1976880   -2.4843880    4.2047580  
C    -0.2269160   -1.6516190    1.1622560  
C    -1.5272000   -1.8655990    0.8629520  
C    -2.0093110   -0.6123310    0.2921240  
C    -0.8330440    0.2959500    0.3556290  
N     0.2010080   -0.3257200    0.8567530  
C    -0.8783310    1.6831780   -0.1007830  
C    -2.0100240    2.0033260   -0.8081850  
O    -2.1550600    3.1621420   -1.4679290  
C    -3.1645950    1.0782250   -0.9656100  
O    -4.0900870    1.4815300   -1.6897510  
C    -3.1930600   -0.2517620   -0.2838870  
H    -2.1004130   -2.7725610    0.9806940  
H    -3.0544090    3.1415800   -1.8585020  
H     0.4955270   -2.3431620    1.5767300  
C     3.6030740    1.6006440    0.0173670  
C     3.8166360    2.9555130    0.1427520  
C     2.5332340    3.5859820    0.2443960  
C     1.5269980    2.4936350    0.1372360  
N     2.2384100    1.3327180   -0.0204750  
C     0.1626210    2.6893690    0.1457880  
C    -0.2703170    4.0623130    0.5290370  
O    -1.3976020    4.3159260    0.9130950  
C     0.7709560    5.2344210    0.5098820  
O     0.3621530    6.3820760    0.6099750  
C     2.1808870    4.8962120    0.3912860  
H     4.7742710    3.4547410    0.1764280  
H     2.9083310    5.7017840    0.4172110  
H     1.8156220    0.4203610    0.1858540  
C     4.5511970    0.5195630   -0.0635540  
C     5.9190010    0.5705670   -0.0889920  
C     6.3538670   -0.8037160   -0.1683610  
C     5.0784630   -1.5964050   -0.1798570  
N     4.0352650   -0.8229280   -0.1181140  
C     5.0849390   -3.0345190   -0.2513430  
C     6.2871990   -3.6542570   -0.3090480  
O     6.4483350   -4.9809900   -0.3790980  
C     7.5899350   -2.8825820   -0.2994500  
O     8.6296310   -3.5374870   -0.3546490  
C     7.5596610   -1.4165270   -0.2254640  
H     6.5523930    1.4460050   -0.0607750  
H     4.1505940   -3.5843360   -0.2601050  
H     7.4211020   -5.1253810   -0.4084820  
H     8.5132450   -0.8977810   -0.2194500  
