60


C    -4.5675800    0.3352020   -2.5295260  
C    -5.6985780   -0.1281880   -1.9113490  
C    -5.2725640   -0.8643960   -0.7554960  
C    -3.8540920   -0.8109460   -0.7257910  
N    -3.4542330   -0.0849840   -1.8255260  
C    -3.0800480   -1.4779460    0.2562810  
C    -3.7968540   -2.1573590    1.2516330  
O    -3.1304880   -2.7303100    2.2881500  
C    -5.2125110   -2.2016160    1.2379210  
O    -5.7529310   -2.9055600    2.2974430  
C    -5.9513700   -1.5782290    0.2505970  
H    -6.7162130    0.0287280   -2.2411720  
H    -2.5043600    0.1909800   -2.0226580  
H    -3.7849300   -3.2152420    2.8211390  
H    -6.7115960   -2.9810590    2.1825950  
H    -7.0382590   -1.6312860    0.2603560  
H    -4.4530940    0.9347020   -3.4213260  
C     0.1164040    1.6567760    0.1353940  
C    -1.0997800    1.0227730    0.1275060  
C    -0.8137610   -0.3910780    0.1203210  
C     0.6741780   -0.4731870    0.0846410  
N     1.2009540    0.7207390    0.1190070  
C     1.3965470   -1.7372370    0.0419360  
C     0.6062830   -2.8431340    0.2246190  
O     1.0940100   -4.0787600    0.3559270  
C    -0.8962330   -2.8023720    0.2544230  
O    -1.4744090   -3.8852790    0.2468770  
C    -1.6133690   -1.4923980    0.2326580  
H    -2.0700050    1.4910200    0.1481960  
H     0.3092100   -4.6724170    0.3526350  
C    -2.5059300    5.0284880   -0.8614950  
C    -1.6959840    6.0914820   -0.6634340  
C    -0.4255470    5.5238270   -0.2288620  
C    -0.6611570    4.0431890   -0.2196710  
N    -1.8741970    3.7690440   -0.5978950  
C     0.3840060    3.0829530    0.1567080  
C     1.5887930    3.6427710    0.5129330  
O     2.6634570    2.9625540    0.9439590  
C     1.8365700    5.1228220    0.5027850  
O     2.9559530    5.5097040    0.8467590  
C     0.7668150    6.0491580    0.1049500  
H    -1.9187730    7.1410950   -0.7947500  
H     3.3407930    3.6620280    1.1071700  
H     0.9974920    7.1100740    0.1076670  
H    -3.5393200    5.0228330   -1.1860700  
C     5.0192690    0.5372190    1.3395270  
C     5.9797570   -0.2844300    0.8384760  
C     5.3003610   -1.3445570    0.1307250  
C     3.8449350   -1.0771780    0.2974640  
N     3.7451070    0.0627460    1.0674420  
C     2.8430850   -1.8748190   -0.2007420  
C     3.2948880   -2.9264520   -1.1522930  
O     2.5386680   -3.4844200   -1.9275460  
C     4.8176680   -3.3008550   -1.2202500  
O     5.1419730   -4.3055970   -1.8365410  
C     5.7686550   -2.4196650   -0.5607320  
H     7.0492730   -0.1695630    0.9392710  
H     6.8261250   -2.6525420   -0.6413730  
H     5.1329420    1.4523520    1.9060840  
H     2.9102900    0.6531400    0.9896480  
