62


C    -1.8172130   -2.5480660    1.8954660  
C    -0.7402350   -1.8093950    1.4756150  
C    -1.2570910   -0.7703080    0.6323970  
C    -2.6693170   -0.9262430    0.5863510  
N    -2.9725480   -2.0304580    1.3518930  
C    -3.5397910   -0.0837550   -0.1438980  
C    -2.8993820    0.9302440   -0.8565620  
O    -3.6390380    1.8025390   -1.6259570  
C    -1.4948490    1.1027860   -0.8617070  
O    -1.0444930    2.1089340   -1.6945550  
C    -0.6659220    0.2642660   -0.1227760  
H     0.2926170   -1.9814570    1.7427170  
H    -3.9143900   -2.3173400    1.5764810  
H    -3.0008860    2.4347800   -2.0107750  
H    -0.3042110    2.5891830   -1.2776240  
H    -1.8559630   -3.4106000    2.5456170  
C     1.6434520   -0.5563050   -0.6146350  
C     2.9267300   -0.1024330   -0.6474200  
C     2.8789360    1.2867080   -0.1930010  
C     1.4568460    1.5756860    0.1133040  
N     0.7470410    0.4237890   -0.1685640  
C     0.9994030    2.7736430    0.5806250  
C     1.9597840    3.8560820    0.7826050  
O     1.6481570    4.9520820    1.2210470  
C     3.4614360    3.5844950    0.4115100  
O     4.2736980    4.4876480    0.5159300  
C     3.8343360    2.2392740   -0.0520490  
H    -0.0289850    2.9346740    0.8919850  
H     4.8814540    2.0582700   -0.2727050  
H     1.2585020   -1.5326740   -0.8758650  
C     4.2192930   -1.5102030   -2.2931630  
C     4.0998510   -0.8462430   -1.1066440  
C     5.3506350   -1.0701930   -0.3830010  
C     6.1955770   -1.9166350   -1.2615730  
N     5.4423010   -2.1568760   -2.3956960  
C     7.4460440   -2.3413100   -0.9509620  
C     8.0067530   -1.9607730    0.3431260  
O     9.1226820   -2.2939340    0.7097560  
C     7.1178520   -1.0901010    1.3044840  
O     7.5565920   -0.7817120    2.4001930  
C     5.7840690   -0.6827970    0.8444660  
H     8.0490690   -2.9574620   -1.6108870  
H     5.1842670   -0.0784500    1.5173390  
H     3.5057990   -1.5689050   -3.1048340  
H     5.7666290   -2.6609010   -3.2061970  
C    -6.5676820   -0.7030980    3.1370380  
C    -5.4210310   -0.4285880    2.4363300  
C    -5.7478010   -0.5010350    1.0346490  
C    -7.1310070   -0.8160420    0.9569280  
N    -7.5972090   -0.9462910    2.2494450  
C    -7.8252340   -0.9265510   -0.2531920  
C    -7.1043280   -0.6864260   -1.4106730  
O    -7.7140900   -0.7519190   -2.6254320  
C    -5.7181960   -0.3717800   -1.3672040  
O    -5.1482950   -0.1984690   -2.6120380  
C    -5.0078220   -0.3017810   -0.1667420  
H    -4.4661930   -0.1686290    2.8701310  
H    -8.5540860   -1.1355110    2.5034180  
H    -8.8830260   -1.1621640   -0.3095270  
H    -7.0224040   -0.5252770   -3.2762980  
H    -4.5909090    0.6082640   -2.5756210  
H    -6.7406680   -0.7370350    4.2034170  
