64


C    -2.6620130   -1.3473290   -1.7176710  
C    -3.9119680   -1.8779180   -1.5695330  
C    -3.8291110   -2.8898220   -0.5529030  
C    -2.4817310   -2.9371290   -0.1160360  
N    -1.7720060   -1.9767100   -0.8395030  
C    -2.0489250   -3.7964550    0.9001350  
C    -2.9925130   -4.6348660    1.4727120  
O    -2.6218120   -5.4978640    2.4629230  
C    -4.3452620   -4.6078290    1.0415200  
O    -5.1637680   -5.4997670    1.7093990  
C    -4.7704920   -3.7506450    0.0441890  
H    -4.7899560   -1.5935790   -2.1336430  
H    -1.0178040   -3.8505020    1.2275180  
H    -3.4089430   -6.0168340    2.7016400  
H    -6.0442500   -5.4926790    1.3060920  
H    -5.8134930   -3.7391630   -0.2663830  
H    -2.2919980   -0.6023190   -2.4077020  
C     0.0098950    1.8229210    0.1095590  
C     1.3335080    1.4632070    0.0481120  
C     1.3949410    0.0715830   -0.2803400  
C    -0.0069370   -0.3653360   -0.4300330  
N    -0.8119590    0.7484220   -0.2299000  
C    -0.4121310   -1.6357720   -0.7024700  
C     0.6503410   -2.6257220   -0.9361090  
O     0.4262740   -3.7927860   -1.1983300  
C     2.1466500   -2.1367640   -0.8983110  
O     2.9840100   -2.9669710   -1.2607480  
C     2.4701040   -0.7828490   -0.4602920  
H     2.1782620    2.1197420    0.1767100  
H    -1.7762540    0.6664580    0.0642720  
C     4.4235070    1.3028670    3.0144950  
C     3.5353690    0.6597680    2.1909330  
C     4.2332430    0.3306660    0.9762880  
C     5.5649980    0.7974770    1.1381820  
N     5.6451670    1.4025330    2.3772580  
C     6.5664950    0.6044020    0.1809930  
C     6.2137890   -0.1049240   -0.9554350  
O     7.1375170   -0.3582430   -1.9217040  
C     4.8907220   -0.5873200   -1.1489790  
O     4.7152720   -1.2514100   -2.3419140  
C     3.8690980   -0.3528000   -0.2236260  
H     2.5072490    0.4334290    2.4316800  
H     6.4890610    1.7708150    2.7867450  
H     7.5857050    0.9540240    0.3107120  
H     6.6698840   -0.8997150   -2.5874450  
H     4.1858800   -2.0586940   -2.1385210  
H     4.2892360    1.6980490    4.0116880  
C     0.1247940    3.9701380    1.2730120  
C    -0.6649290    5.0614580    1.4530740  
C    -1.8859290    4.8438830    0.7191230  
C    -1.7870100    3.5763410    0.0980950  
N    -0.5368790    3.0368200    0.4570540  
C    -2.7879930    3.0787740   -0.7446450  
C    -3.9226590    3.8600880   -0.9257010  
O    -4.9222820    3.4101890   -1.7328470  
C    -4.0464670    5.1201930   -0.2887230  
O    -5.2278780    5.7724490   -0.5656010  
C    -3.0405680    5.6192050    0.5208810  
H    -0.4179240    5.9263520    2.0533450  
H    -2.7158200    2.1387530   -1.2772740  
H    -5.6163100    4.0919110   -1.7473900  
H    -5.2390140    6.6354200   -0.1254710  
H    -3.1408860    6.5970360    0.9868890  
H     1.0935540    3.7223230    1.6797840  
