60


C    -5.5009910   -1.5103590   -1.7049660  
C    -6.8354570   -1.2589390   -1.7747340  
C    -7.1209150   -0.1784080   -0.8664740  
C    -5.9044770    0.1818250   -0.2397160  
N    -4.9009520   -0.6577200   -0.7624360  
C    -5.8190450    1.2569110    0.6499400  
C    -6.9867260    1.9470850    0.9422450  
O    -6.9481140    2.9937920    1.8152830  
C    -8.2176230    1.5784690    0.3434750  
O    -9.2870680    2.3563660    0.7339360  
C    -8.2942250    0.5301890   -0.5568300  
H    -7.5477880   -1.7948150   -2.3872800  
H    -4.8998650    1.5556920    1.1358050  
H    -7.8546350    3.3360310    1.8995890  
H   -10.0966240    2.0354870    0.3096510  
H    -9.2413910    0.2717810   -1.0255960  
H    -4.8998330   -2.2634860   -2.1912040  
C    -1.3306280   -0.8781220   -3.3382090  
C    -2.6258240   -0.7802040   -2.9499940  
C    -2.5846220   -0.7581160   -1.4921330  
C    -1.1406960   -0.8605660   -1.1676390  
N    -0.4139440   -0.9272180   -2.2507230  
C    -0.6392120   -0.8666880    0.2009820  
C    -1.5759250   -0.7323980    1.1808420  
O    -1.2723210   -0.6504860    2.4847980  
C    -3.0446920   -0.6409700    0.9005950  
O    -3.8016880   -0.6045090    1.8651450  
C    -3.5302000   -0.6409300   -0.5190390  
H    -3.5055510   -0.7050000   -3.5723520  
H    -2.1298840   -0.6498990    2.9623560  
H    -0.9383360   -0.9122920   -4.3474210  
C     3.0866990    1.2561780   -0.9800260  
C     1.8070330    0.8464350   -0.8364800  
C     1.8078450   -0.3177470    0.0205000  
C     3.2251390   -0.5665160    0.3756740  
N     3.9810270    0.4161040   -0.2905900  
C     3.6362780   -1.5058960    1.2587620  
C     2.6310440   -2.3833150    1.8511420  
O     2.9063200   -3.2414510    2.6738880  
C     1.1383950   -2.2157320    1.4069430  
O     0.3237750   -3.0346540    1.7900910  
C     0.7849680   -1.0780080    0.5170410  
H     0.9431180    1.2789640   -1.3150500  
H     4.6681660   -1.6553630    1.5496650  
H     3.4890550    2.0742580   -1.5604700  
C     6.4606970    4.0228790    0.3121160  
C     5.3693550    3.2214100    0.2243870  
C     5.9005370    1.8907580   -0.0500500  
C     7.3728070    2.0923390   -0.1024920  
N     7.6947690    3.3389710    0.1117470  
C     8.2901110    1.0054140   -0.3373700  
C     7.7745070   -0.2312900   -0.5152970  
O     8.5139430   -1.3330190   -0.7328300  
C     6.2947470   -0.4837530   -0.4981590  
O     5.9053300   -1.6172400   -0.7559760  
C     5.3565100    0.6543580   -0.2151900  
H     4.3332090    3.4939050    0.3651870  
H     9.3573470    1.1946630   -0.3618550  
H     7.8755400   -2.0644220   -0.8729250  
H     6.4872900    5.0854020    0.5221640  
