62


C    -4.5351250    2.2473950   -2.6884230  
C    -5.3124990    3.1029330   -1.9534130  
C    -5.6826710    2.4111060   -0.7503220  
C    -5.0878170    1.1243350   -0.8115550  
N    -4.3835620    1.0572700   -1.9982430  
C    -5.2530610    0.1415570    0.1888470  
C    -6.0443260    0.5059340    1.2807760  
O    -6.2112470   -0.3659380    2.3123070  
C    -6.6434810    1.7896500    1.3577310  
O    -7.3824420    1.9882220    2.5110700  
C    -6.4737650    2.7387740    0.3679280  
H    -5.5900210    4.1098480   -2.2338610  
H    -3.9397100    0.2259120   -2.3556950  
H    -6.8625820    0.0269470    2.9188850  
H    -7.8817520    2.8143170    2.4333020  
H    -6.9435790    3.7165410    0.4554750  
H    -4.0611060    2.3854980   -3.6499530  
C    -1.0497440   -1.1106790   -0.1598000  
C    -1.2316010   -2.4760870   -0.2079300  
C    -2.6402840   -2.7347360   -0.1252740  
C    -3.2998400   -1.4081270   -0.0272530  
N    -2.2851320   -0.4746980   -0.0725880  
C    -4.6450370   -1.2027540    0.0944530  
C    -5.4990610   -2.4120790    0.0783140  
O    -6.7163770   -2.3619120    0.0721100  
C    -4.8128300   -3.8280350    0.0207540  
O    -5.5231550   -4.8230510    0.0767000  
C    -3.3637820   -3.8931700   -0.1038640  
H    -0.4514680   -3.2194810   -0.2876680  
H    -2.9008940   -4.8739400   -0.1566020  
H    -2.3772170    0.5251050    0.0426590  
C     0.1459550   -0.3118770   -0.1851740  
C     1.4618620   -0.7002740   -0.2460910  
C     2.2306560    0.5202460   -0.2227490  
C     1.2109060    1.5879760   -0.1242150  
N    -0.0032780    1.1051170   -0.1141240  
C     1.5632370    2.9834660   -0.0358800  
C     2.8775240    3.2927700   -0.0138040  
O     3.3549280    4.5445070    0.0997200  
C     3.9486950    2.2379030   -0.1006330  
O     5.1114470    2.6378240   -0.0503520  
C     3.5807570    0.7956960   -0.2681590  
H     1.8467800   -1.7095700   -0.2518340  
H     0.7889030    3.7394770    0.0306330  
H     4.3323680    4.4530180    0.0793460  
C     4.3721400   -1.2659930   -1.4124190  
C     4.6012920   -0.1932250   -0.5497030  
C     5.9716830   -0.3461940   -0.0801500  
C     6.4816620   -1.5234390   -0.6793580  
N     5.4831800   -2.0460420   -1.4905830  
C     7.7629680   -2.0248610   -0.4340750  
C     8.5621340   -1.3182660    0.4514770  
O     9.8213990   -1.7519590    0.7264290  
C     8.0704480   -0.1411970    1.0747630  
O     8.9760070    0.4511910    1.9291430  
C     6.8008720    0.3453540    0.8247880  
H     5.5874740   -2.8473000   -2.0953390  
H     8.1413780   -2.9290600   -0.8992540  
H    10.2138410   -1.1245770    1.3585850  
H     8.6009670    1.2701360    2.2861860  
H     6.4653560    1.2620170    1.2960950  
H     3.5011180   -1.4721090   -2.0167380  
