62


C     3.1758910   -1.7614610    0.6685490  
C     1.8683450   -1.3539960    0.6647280  
C     1.8618500    0.0508060    0.3770170  
C     3.2169800    0.4395970    0.1997860  
N     4.0121420   -0.6866840    0.3954270  
C     3.5980860    1.7424960   -0.1449970  
C     2.5844220    2.6797070   -0.2940300  
O     2.8988380    3.9695950   -0.6007110  
C     1.2282350    2.3165180   -0.1176680  
O     0.3453870    3.3719630   -0.2866820  
C     0.8309610    1.0151560    0.2027580  
H     1.0107730   -1.9865700    0.8419340  
H     4.6307530    2.0313500   -0.3061050  
H     2.0649780    4.4716480   -0.6118720  
H    -0.4737630    3.1846070    0.1975990  
H     3.6069140   -2.7336280    0.8590020  
C    -1.1542250   -0.1231440    1.3265440  
C    -0.5835520    0.6579700    0.3653200  
C    -1.7091970    0.9647210   -0.5503250  
C    -2.8833560    0.2758340    0.0619190  
N    -2.5465930   -0.3499470    1.1536480  
C    -4.2037070    0.3172080   -0.5429510  
C    -4.3122140    1.0066850   -1.7150830  
O    -5.4663470    1.1710830   -2.3742010  
C    -3.1404720    1.6841550   -2.3640770  
O    -3.3416520    2.2820320   -3.4196110  
C    -1.8134280    1.6244510   -1.7196680  
H    -5.2384090    1.6868800   -3.1796450  
H    -0.9929190    2.1317670   -2.2158670  
H    -0.6624020   -0.5665060    2.1835560  
C    -6.3514820    0.4158670    3.3969940  
C    -5.4498510    0.6742640    2.4224350  
C    -5.8198620   -0.2036450    1.3169350  
C    -7.0167770   -0.9435230    1.8322160  
N    -7.3245400   -0.5750730    3.0418370  
C    -7.7134470   -1.9154920    1.0303350  
C    -7.2488980   -2.1462750   -0.2180190  
O    -7.7876620   -3.0317120   -1.0725590  
C    -6.0433790   -1.4288470   -0.7662880  
O    -5.6599100   -1.7554370   -1.8855260  
C    -5.3519020   -0.3908400    0.0582930  
H    -4.6160750    1.3593430    2.4466130  
H    -8.5755610   -2.4351190    1.4332840  
H    -7.2248140   -2.9922150   -1.8767800  
H    -6.4131560    0.8629940    4.3821070  
C     6.7488150   -3.0354020   -2.2052610  
C     5.6294080   -2.4881310   -1.6338260  
C     6.0808050   -1.5949110   -0.6049690  
C     7.4999190   -1.6401770   -0.6004890  
N     7.8768740   -2.5296640   -1.5859630  
C     8.2852590   -0.8705690    0.2666490  
C     7.6251690   -0.0403700    1.1583980  
O     8.3392160    0.7292920    2.0293260  
C     6.2070480    0.0131410    1.1941610  
O     5.6975560    0.8542350    2.1572560  
C     5.4338160   -0.7488350    0.3233900  
H     4.6060390   -2.6907390   -1.9150330  
H     8.8276700   -2.7631910   -1.8248200  
H     9.3699910   -0.8968690    0.2609770  
H     7.6982800    1.2428960    2.5511740  
H     4.7376850    0.9462110    2.0397610  
H     6.8398610   -3.7494150   -3.0115270  
