60


C    -0.1194570    4.2510240    2.9853110  
C     0.2749780    3.2361260    2.1483260  
C     0.9345440    3.8368230    1.0259750  
C     0.9194950    5.2400580    1.2549960  
N     0.2563560    5.4609360    2.4443970  
C     1.5256660    6.1606850    0.3996900  
C     2.2004880    5.6524330   -0.7023100  
O     2.8172210    6.4991560   -1.5652130  
C     2.2712610    4.2583550   -0.9498980  
O     2.9563480    3.9490400   -2.0966020  
C     1.6113500    3.3218570   -0.1309140  
H     0.1024470    2.1843670    2.3199490  
H     0.1255250    6.3619430    2.8772780  
H     1.5106560    7.2314390    0.5759430  
H     3.2536210    5.9317900   -2.2297190  
H     3.5078860    3.1563510   -1.9027730  
H    -0.6459230    4.2070210    3.9280950  
C    -1.6251040    0.2140460   -0.2291340  
C    -0.9547560    1.4159260   -0.1796300  
C     0.4409200    1.1106900   -0.3365090  
C     0.4657570   -0.3629380   -0.4679300  
N    -0.7212490   -0.8859950   -0.3996490  
C     1.7146180   -1.0969900   -0.6522580  
C     2.8366210   -0.3408600   -0.8522830  
O     4.0361070   -0.8710970   -1.1676250  
C     2.8136260    1.1358480   -0.7933000  
O     3.8900280    1.6982240   -1.0788980  
C     1.5774970    1.8835910   -0.4203850  
H    -1.3798930    2.4021690   -0.0692710  
H     4.6372430   -0.1012670   -1.2733660  
C    -3.0393170   -0.0226230   -0.1548540  
C    -4.0379060    0.8972380    0.0734140  
C    -5.2688170    0.1546430    0.0444940  
C    -4.8379100   -1.2586680   -0.2223310  
N    -3.5476660   -1.3589320   -0.3367490  
C    -5.7976090   -2.3286680   -0.3281970  
C    -7.1059820   -2.0169760   -0.1764690  
O    -8.1068610   -2.9048110   -0.2476260  
C    -7.5695530   -0.6021460    0.0943780  
O    -8.7823120   -0.4241310    0.2160670  
C    -6.5786320    0.4722360    0.1969120  
H    -3.9317510    1.9590650    0.2472570  
H    -5.4631750   -3.3418200   -0.5210410  
H    -8.9265060   -2.3813480   -0.0976750  
H    -6.9480110    1.4747800    0.3895610  
C     0.7058630   -3.2924130   -1.2299960  
C     0.9773450   -4.6105280   -1.0833760  
C     2.2047670   -4.7317060   -0.3334330  
C     2.6515940   -3.3473380   -0.0456720  
N     1.7116000   -2.4947810   -0.6478700  
C     3.7230840   -3.0498800    0.7278790  
C     4.5274140   -4.1534060    1.2616990  
O     5.5091150   -3.9662320    1.9624720  
C     4.1034930   -5.6234270    0.9164170  
O     4.7780700   -6.5505710    1.3360940  
C     2.8948740   -5.8133460    0.1137010  
H     0.3717730   -5.4261260   -1.4516380  
H     4.0366390   -2.0427620    0.9648050  
H     2.5730330   -6.8315480   -0.0825670  
H    -0.1398540   -2.8072740   -1.6909870  
