62


C    -2.3764220    5.4376860   -1.6843940  
C    -1.6498730    6.4759080   -1.1683250  
C    -0.5686730    5.8991750   -0.4217840  
C    -0.7025100    4.4885270   -0.5102690  
N    -1.8194810    4.2385430   -1.2757360  
C     0.2101410    3.5829060    0.0921320  
C     1.2975130    4.1765120    0.7555290  
O     2.2605900    3.4015340    1.3512100  
C     1.4333300    5.5806110    0.8545330  
O     2.5523980    5.9725430    1.5643540  
C     0.5158340    6.4445630    0.2886660  
H    -1.8540970    7.5286890   -1.3041070  
H    -2.0783970    3.3302410   -1.6282340  
H     2.9099080    4.0141690    1.7425160  
H     2.6100660    6.9391250    1.5844080  
H     0.6414710    7.5212470    0.3792600  
H    -3.2591590    5.4430900   -2.3077570  
C     0.0232940    2.1411730    0.0211940  
C    -1.1198180    1.4092520   -0.2254630  
C    -0.7747070    0.0163740   -0.1914560  
C     0.6687810   -0.0461010    0.1075360  
N     1.0868690    1.2589680    0.2119220  
C     1.4104290   -1.1898830    0.2673460  
C     0.6817600   -2.4547700    0.1124890  
O     1.1914200   -3.5492590    0.2955370  
C    -0.8412260   -2.4247550   -0.2930700  
O    -1.3907410   -3.4844700   -0.5379920  
C    -1.5217160   -1.1211500   -0.3809310  
H    -2.1252180    1.7903870   -0.3078460  
H     2.0229660    1.5595070    0.4379390  
C     3.3874180   -0.4337350    1.6471780  
C     2.8272240   -1.1816320    0.6499360  
C     3.9287270   -1.9387130    0.0436760  
C     5.1579250   -1.5527000    0.7789290  
N     4.7609230   -0.6287860    1.7258180  
C     6.3999270   -2.0391000    0.5252160  
C     6.5591070   -2.9967150   -0.5624240  
O     7.6350110   -3.4866060   -0.8720740  
C     5.2761070   -3.3999790   -1.3763690  
O     5.3888650   -4.1759920   -2.3111070  
C     3.9832910   -2.8203550   -0.9852220  
H     7.2817650   -1.7442430    1.0859440  
H     3.1046230   -3.1422240   -1.5317670  
H     2.8999690    0.2370650    2.3432630  
H     5.3576700   -0.2559640    2.4475410  
C    -3.3442380   -0.3076010   -1.8532960  
C    -4.6974940   -0.4486550   -1.9628720  
C    -5.1213080   -1.3256160   -0.9054960  
C    -3.9618010   -1.7017800   -0.1828640  
N    -2.8698050   -1.0624120   -0.7760260  
C    -4.0167060   -2.5255910    0.9468220  
C    -5.2610270   -2.9944710    1.3381820  
O    -5.3669390   -3.8078110    2.4294000  
C    -6.4308970   -2.6375470    0.6180290  
O    -7.5939720   -3.1802550    1.1317420  
C    -6.3748660   -1.8123690   -0.4900030  
H    -5.3226830    0.0000710   -2.7232460  
H    -3.1361770   -2.8288450    1.4993410  
H    -6.3036100   -4.0555110    2.5136190  
H    -8.3327600   -2.9776350    0.5392100  
H    -7.2845100   -1.5403220   -1.0220630  
H    -2.6395720    0.2226740   -2.4773500  
