62


C    -5.1073560   -0.3163790    2.2672420  
C    -4.9458280    0.1106880    0.9635130  
C    -6.1763950   -0.2153620    0.2776120  
C    -7.0334290   -0.8357520    1.2204340  
N    -6.3543300   -0.8868970    2.4224050  
C    -8.3147580   -1.2985040    0.8928610  
C    -8.7374810   -1.1291540   -0.4154620  
O    -9.9781660   -1.5552640   -0.7922170  
C    -7.8896250   -0.5125960   -1.3750380  
O    -8.4534880   -0.4166620   -2.6344450  
C    -6.6261770   -0.0612430   -1.0484270  
H    -6.7367820   -1.2193500    3.2935380  
H    -8.9730750   -1.7728140    1.6136040  
H   -10.0817390   -1.3354330   -1.7342110  
H    -7.8436070    0.0519560   -3.2231530  
H    -6.0009550    0.4239750   -1.7925010  
H    -4.4427150   -0.2056890    3.1133010  
C    -0.8172560   -1.2749270    1.1870840  
C    -0.1834350   -0.2304020    0.5210320  
C    -1.2361630    0.7030410    0.1506710  
C    -2.4548850    0.1546810    0.6157440  
N    -2.1570140   -1.0392560    1.2523460  
C    -3.7266690    0.7310730    0.4147050  
C    -3.7305210    1.9160140   -0.3235180  
O    -4.9049920    2.5670680   -0.5713800  
C    -2.5235380    2.4761420   -0.8150830  
O    -2.7088230    3.6524390   -1.5193610  
C    -1.2890120    1.8996950   -0.5888530  
H    -2.8528190   -1.6400140    1.6697480  
H    -4.6760040    3.3916880   -1.0355600  
H    -1.8474940    4.0594510   -1.6953430  
H    -0.3845890    2.3726840   -0.9547890  
H    -0.3773040   -2.1388120    1.6632570  
C     2.9033570   -3.3488760   -0.2684550  
C     1.7022890   -2.7268410   -0.1674010  
C     2.0151200   -1.3167360    0.0488610  
C     3.4932280   -1.2766740    0.0153340  
N     4.0111510   -2.4647310   -0.1450820  
C     4.2425650   -0.0399280    0.1712710  
C     3.5119010    1.0856290    0.3748710  
O     4.0518570    2.3114470    0.5139920  
C     2.0135140    1.0792900    0.4138680  
O     1.4665400    2.1726050    0.5657470  
C     1.2522200   -0.2066420    0.2908950  
H     0.7184350   -3.1623850   -0.2649400  
H     3.2849640    2.9119180    0.6397670  
H     3.0974930   -4.4010010   -0.4402730  
C     6.9694360   -0.9677360   -3.1438510  
C     8.1863370   -0.8422510   -2.5676400  
C     7.9117060   -0.4428270   -1.1904190  
C     6.4144080   -0.3999380   -1.1153940  
N     5.8738840   -0.6891610   -2.2607710  
C     5.7185310   -0.0322630    0.1071670  
C     6.4963130    0.3252490    1.1643410  
O     6.0093360    0.6970510    2.3583070  
C     7.9995020    0.3024930    1.1079750  
O     8.6107920    0.6274590    2.1253610  
C     8.6771010   -0.1047640   -0.1357620  
H     9.1602950   -0.9874840   -3.0138770  
H     6.8006690    0.8803230    2.9118900  
H     9.7629240   -0.0986240   -0.1352280  
H     6.7420230   -1.2444290   -4.1666100  
