62


C     5.4779810   -0.1259320    2.3441120  
C     5.0466690   -0.0914930    1.0214250  
C     6.2169150   -0.3946040    0.2107650  
C     7.2997450   -0.5765490    1.1056160  
N     6.8090010   -0.4147760    2.3931120  
C     8.6075300   -0.8476220    0.6910460  
C     8.8362070   -0.9351220   -0.6730420  
O    10.0870490   -1.2034520   -1.1390880  
C     7.7694270   -0.7461680   -1.5904980  
O     8.1485660   -0.8619570   -2.9124340  
C     6.4803640   -0.4773900   -1.1707260  
H     7.3399610   -0.5589140    3.2388340  
H     9.4292060   -0.9858330    1.3860820  
H    10.0333240   -1.2328180   -2.1102900  
H     7.3679470   -0.7879190   -3.4814890  
H     5.6821170   -0.3650310   -1.8958280  
H     4.8964290   -0.0146710    3.2474170  
C     1.9191670    2.6025210    2.7024530  
C     3.1243280    2.0440840    2.4282330  
C     2.8740000    1.0916480    1.3500540  
C     1.4245960    1.2295260    1.0887950  
N     0.8672650    2.1002530    1.8879340  
C     0.7414890    0.4595830    0.0577310  
C     1.5255940   -0.3607800   -0.6923860  
O     1.0699390   -1.0677470   -1.7395800  
C     2.9992940   -0.5156810   -0.4573980  
O     3.5953730   -1.2767000   -1.2194720  
C     3.6712070    0.2127790    0.6663640  
H     4.0811930    2.2792400    2.8712570  
H     1.8427370   -1.5814020   -2.0614340  
H     1.6869170    3.3671580    3.4339430  
C    -2.1314370    3.7377270   -0.9482960  
C    -0.9949260    3.0845470   -0.6249540  
C    -1.3959720    1.6962750   -0.4253280  
C    -2.8715950    1.6970260   -0.6751160  
N    -3.2855470    2.8928940   -0.9815780  
C    -3.6960930    0.4845170   -0.5885500  
C    -2.9922500   -0.6564300   -0.3092300  
O    -3.5557940   -1.8871420   -0.2307180  
C    -1.5307190   -0.6887270   -0.0544820  
O    -1.0289340   -1.7759790    0.2452230  
C    -0.7138060    0.5597150   -0.1566370  
H     0.0002570    3.4840680   -0.5033240  
H    -2.8015040   -2.4813250   -0.0157720  
H    -2.2599470    4.7900460   -1.1718480  
C    -5.7503050    1.4959270   -1.6214130  
C    -5.1380770    0.5524600   -0.8080150  
C    -6.2152920   -0.2629910   -0.2632200  
C    -7.4275320    0.2415650   -0.7988430  
N    -7.1029850    1.2995890   -1.6301750  
C    -8.6882160   -0.2702420   -0.4751790  
C    -8.7381020   -1.3199950    0.4284140  
O    -9.9400670   -1.8630330    0.7837270  
C    -7.5423290   -1.8308640    0.9909710  
O    -7.7432320   -2.8712130    1.8820410  
C    -6.2992280   -1.3194810    0.6658560  
H    -7.7657280    1.8683760   -2.1338020  
H    -9.6080090    0.1254000   -0.8940750  
H    -9.7517170   -2.5777850    1.4160960  
H    -6.8839780   -3.1902130    2.1951300  
H    -5.4026930   -1.7447060    1.1020960  
H    -5.2956370    2.2994490   -2.1767920  
