64


C    -1.3765800   -0.7197320    1.0773720  
C    -0.9248330    0.4707650    0.5392400  
C    -2.0740860    1.0897170   -0.0811690  
C    -3.1790330    0.2254110    0.1214620  
N    -2.7172330   -0.8742950    0.8162960  
C    -4.4789900    0.4742090   -0.3808530  
C    -4.5978390    1.6487890   -1.1205310  
O    -5.8151140    1.9860870   -1.6818950  
C    -3.5076250    2.5261940   -1.3379150  
O    -3.8370030    3.6371120   -2.0939140  
C    -2.2513400    2.2678750   -0.8304530  
H    -3.3178560   -1.5851350    1.2085060  
H    -5.6940480    2.8442710   -2.1281720  
H    -3.0733860    4.2304410   -2.1476250  
H    -1.4284080    2.9567870   -0.9944230  
H    -0.8441740   -1.4498240    1.6719620  
C     2.7389190   -1.6455710   -0.5596140  
C     3.6627720   -0.6596820   -0.2484660  
C     2.9019110    0.4769710    0.2340130  
C     1.5388650    0.1012700    0.2021970  
N     1.4803570   -1.1947530   -0.2829410  
C     0.4691930    0.9451400    0.5694650  
C     0.8372900    2.2342640    0.9609660  
O    -0.1192890    3.1313560    1.3414870  
C     2.1972660    2.6413620    0.9752950  
O     2.3734480    3.9513630    1.3751110  
C     3.2296120    1.7903180    0.6258040  
H     0.6174780   -1.6932000   -0.4462660  
H     0.3431220    3.9440220    1.6118350  
H     3.3183330    4.1636690    1.3962460  
H     4.2561410    2.1476000    0.6149570  
H     2.9065290   -2.6488700   -0.9241580  
C    -6.0520580   -1.5512200    3.3222390  
C    -5.3746190   -0.7358080    2.4519500  
C    -5.8817060   -1.0044530    1.1297050  
C    -6.8863180   -1.9980890    1.2752940  
N    -6.9569650   -2.3195970    2.6160010  
C    -7.6418470   -2.4867650    0.2030730  
C    -7.3868580   -1.9350930   -1.0408790  
O    -8.0953120   -2.3397820   -2.1305300  
C    -6.3835870   -0.9428090   -1.2200940  
O    -6.2385040   -0.5317270   -2.5294340  
C    -5.5968300   -0.4791340   -0.1640000  
H    -4.6297050   -0.0025530    2.7260810  
H    -7.6068130   -2.9752320    3.0204820  
H    -8.4132020   -3.2415520    0.3169730  
H    -7.7589970   -1.8008540   -2.8722280  
H    -6.1700300    0.4474620   -2.5285940  
H    -5.9722590   -1.6431080    4.3962660  
C     5.0927000   -0.7911100   -0.3761750  
C     5.8463540   -1.5861350   -1.2047660  
C     7.2334860   -1.3764880   -0.8989790  
C     7.2623300   -0.3801130    0.2009580  
N     5.9442550   -0.0146840    0.4324230  
C     8.3900200    0.0466800    0.8189040  
C     9.6757550   -0.4734770    0.3557200  
O    10.7413080   -0.1376120    0.8505130  
C     9.6742370   -1.4971230   -0.8385350  
O    10.7462660   -1.9309760   -1.2392170  
C     8.3905490   -1.8923290   -1.4060320  
H     5.4589210   -2.2154130   -1.9934320  
H     8.3917290    0.7679180    1.6309330  
H     8.4005780   -2.6141010   -2.2172440  
H     5.6340960    0.3614090    1.3172900  
