64


C     4.8747400   -0.0874750    2.1804060  
C     3.6054790   -0.4079920    1.7805630  
C     3.7194420   -1.2287170    0.6076250  
C     5.1094720   -1.3761690    0.3486560  
N     5.7882900   -0.6613170    1.3127460  
C     5.6210590   -2.1432540   -0.7034120  
C     4.7021420   -2.8021660   -1.5019800  
O     5.1229210   -3.5813980   -2.5387320  
C     3.3078490   -2.6944020   -1.2603980  
O     2.5308140   -3.3987940   -2.1628400  
C     2.7844980   -1.9001150   -0.2318640  
H     2.6952710   -0.0620330    2.2438610  
H     6.7904570   -0.6255560    1.4081820  
H     6.6841400   -2.2482980   -0.8960000  
H     4.3059850   -3.9463240   -2.9298160  
H     1.9010690   -3.9468340   -1.6478140  
H     5.2119450    0.5131670    3.0136130  
C     0.1128590    1.6131950    0.2335450  
C    -1.1083160    0.9963490    0.3439330  
C    -0.8524620   -0.4195110    0.2579010  
C     0.6316400   -0.5148640    0.1032480  
N     1.1835780    0.6595350    0.0795880  
C     1.3216110   -1.8017940   -0.0321430  
C     0.4908620   -2.8804850   -0.0134460  
O     0.9316090   -4.1627360   -0.1531160  
C    -0.9987000   -2.8193590    0.1191180  
O    -1.6004700   -3.8941660    0.0493900  
C    -1.6702810   -1.5099360    0.2746380  
H    -2.0649480    1.4484570    0.5628900  
H     0.1035990   -4.7017400   -0.1173790  
C    -4.5577980    0.5077060   -2.3960040  
C    -5.7037140    0.1400600   -1.7419710  
C    -5.3091870   -0.6434240   -0.6042730  
C    -3.8928460   -0.7108510   -0.6172990  
N    -3.4595620    0.0113940   -1.7117640  
C    -3.1428870   -1.4401060    0.3329070  
C    -3.8747650   -2.0965180    1.3245190  
O    -3.2211700   -2.7741240    2.3068570  
C    -5.2915550   -2.0268190    1.3566390  
O    -5.8535440   -2.7209680    2.4117690  
C    -6.0112400   -1.3168370    0.4148030  
H    -6.7130410    0.3934180   -2.0359820  
H    -2.5014910    0.0568630   -2.0233820  
H    -3.8963980   -3.1976600    2.8648650  
H    -6.8190630   -2.6808820    2.3482210  
H    -7.0979110   -1.2832790    0.4623600  
H    -4.4231460    1.0884500   -3.2978280  
C    -2.2886350    4.9271220   -1.3912440  
C    -1.4086740    5.9421420   -1.1214740  
C    -0.2759580    5.3513270   -0.4687080  
C    -0.5301000    3.9613540   -0.3615750  
N    -1.7656740    3.7342930   -0.9274010  
C     0.3964140    3.0364540    0.1913450  
C     1.5984500    3.5905160    0.6722020  
O     2.5089220    2.8119330    1.3002890  
C     1.8538140    4.9838060    0.5736230  
O     3.0759280    5.3567670    1.1026420  
C     0.9447550    5.8607480    0.0170330  
H    -1.5479810    6.9877290   -1.3592500  
H    -2.1780870    2.8228340   -1.0567580  
H     3.2857370    3.3663770    1.4923830  
H     3.2196790    6.3022740    0.9508270  
H     1.1685370    6.9243100   -0.0394900  
H    -3.2586560    4.9493690   -1.8672480  
