62


C    -4.0559220   -0.6905370    0.0588020  
C    -3.9962310   -2.0548790   -0.1417180  
C    -5.3170660   -2.5815300    0.0272200  
C    -6.1636850   -1.4828490    0.3340470  
N    -5.3822070   -0.3424400    0.3129900  
C    -7.5332000   -1.6292500    0.5799900  
C    -8.0637700   -2.9087410    0.5084000  
O    -9.3936700   -3.1078830    0.7437830  
C    -7.2364040   -4.0178890    0.1880500  
O    -7.9129240   -5.2233000    0.1461530  
C    -5.8832760   -3.8701690   -0.0541660  
H    -3.1099090   -2.6066900   -0.4249730  
H    -5.6505330    0.5425020    0.7172490  
H    -8.1822460   -0.7935530    0.8213070  
H    -9.5618580   -4.0615270    0.6519160  
H    -7.2871410   -5.9379880   -0.0423060  
H    -5.2703960   -4.7366490   -0.2955550  
C    -1.7097740    0.1371230    0.4443040  
C    -3.0111650    0.3168180    0.0366220  
C    -3.1211340    1.6992270   -0.3829960  
C    -1.8578180    2.3047090   -0.1874450  
N    -0.9937480    1.3283500    0.3177410  
C    -1.5969400    3.6324510   -0.5423270  
C    -2.6383950    4.3658370   -1.0888110  
O    -2.4377030    5.6660520   -1.4410770  
C    -3.9120410    3.7727630   -1.2974890  
O    -4.8372720    4.6232880   -1.8662970  
C    -4.1616410    2.4563410   -0.9566840  
H    -0.6365790    4.1067630   -0.3846020  
H    -3.2776770    6.0059550   -1.7946800  
H    -5.6779500    4.1576910   -1.9880670  
H    -5.1317600    2.0091650   -1.1605460  
H    -1.2533960   -0.7184910    0.9213570  
C     2.2782940   -1.0788210   -1.0843330  
C     3.3251460   -0.5045750   -0.3969670  
C     2.7466270    0.6003970    0.3800260  
C     1.3028100    0.5939170    0.0783970  
N     1.0913780   -0.4495930   -0.8069840  
C     0.3798540    1.4619410    0.5902110  
C     0.8705190    2.4863420    1.5330900  
O     0.1350150    3.2760420    2.0969040  
C     2.4182840    2.5352330    1.8217420  
O     2.8348050    3.4266900    2.5429390  
C     3.2884680    1.5270140    1.2140860  
H     4.3482950    1.5448300    1.4341780  
H     2.2977520   -1.9139030   -1.7716930  
H     0.1903880   -0.6805690   -1.2017290  
C     4.6995920   -0.9244410   -0.4547280  
C     5.2654220   -1.9493390   -1.1785330  
C     6.6639920   -1.9252060   -0.8672540  
C     6.8073420   -0.7822860    0.1018000  
N     5.6639060   -0.2075740    0.3357960  
C     8.0812610   -0.4219460    0.6637800  
C     9.1561960   -1.1536890    0.2867790  
O    10.4030250   -0.9431450    0.7199730  
C     9.0455820   -2.3136750   -0.6893110  
O    10.0936010   -2.9058030   -0.9567860  
C     7.7437410   -2.6596230   -1.2451930  
H     4.7740400   -2.6406620   -1.8493650  
H     8.1582200    0.4058400    1.3597800  
H    10.9473340   -1.6301640    0.2688690  
H     7.7011050   -3.4932860   -1.9390140  
