64


C    -4.1888470    1.0172900   -1.7005370  
C    -4.4890840    0.0572050   -0.7532620  
C    -5.5596180    0.6050410    0.0512860  
C    -5.8560740    1.8913500   -0.4639290  
N    -5.0046560    2.1148300   -1.5290760  
C    -6.8385510    2.7242020    0.0871600  
C    -7.5360860    2.2461370    1.1841950  
O    -8.5072790    3.0107960    1.7606750  
C    -7.2487430    0.9606740    1.7183750  
O    -8.0271550    0.6276420    2.8111700  
C    -6.2775040    0.1444920    1.1728850  
H    -5.0199650    2.9271560   -2.1255700  
H    -7.0657510    3.7093770   -0.3071390  
H    -8.8719660    2.4998920    2.5039110  
H    -7.7961020   -0.2638910    3.1109450  
H    -6.0871710   -0.8411500    1.5875150  
H    -3.4829550    0.9764710   -2.5185000  
C    -0.1849840   -0.8224690   -0.5566890  
C    -0.2842010   -2.1998010   -0.4270120  
C    -1.6660140   -2.5364220   -0.4494840  
C    -2.3894110   -1.3216470   -0.5988470  
N    -1.4701290   -0.2982960   -0.7065150  
C    -3.7978870   -1.2358560   -0.6067230  
C    -4.4647360   -2.4557700   -0.4736650  
O    -5.8263020   -2.4918390   -0.4822280  
C    -3.7569450   -3.6867510   -0.3419640  
O    -4.5901970   -4.7819610   -0.2321110  
C    -2.3807980   -3.7490820   -0.3353350  
H     0.5535470   -2.8810230   -0.3656560  
H    -1.7187040    0.6658540   -0.5275930  
H    -6.0891690   -3.4279940   -0.4307100  
H    -4.0625680   -5.5942680   -0.2190060  
H    -1.8646630   -4.6999240   -0.2259570  
C     0.9779750    0.0115450   -0.6012790  
C     2.2594600   -0.2362830   -0.1662740  
C     3.0626570    0.9158570   -0.4358130  
C     2.1573850    1.8986290   -1.0757770  
N     0.8926600    1.3242460   -1.1014850  
C     2.5376670    3.1093420   -1.5496330  
C     3.9225670    3.5033290   -1.3431060  
O     4.3925660    4.5520780   -1.7559680  
C     4.8457570    2.5487380   -0.5036810  
O     5.9310620    3.0184330   -0.1492130  
C     4.3953580    1.1942290   -0.1783450  
H     2.5867760   -1.1285550    0.3436050  
H     1.8718940    3.7956300   -2.0632970  
H     0.2150970    1.5797350   -1.8068850  
C     5.2961270   -3.0462130   -1.3729180  
C     4.8178790   -1.7623770   -1.3225160  
C     5.3996060   -1.1297050   -0.1687460  
C     6.2442290   -2.0972480    0.4378680  
N     6.1449440   -3.2584850   -0.3032980  
C     7.0313780   -1.8295470    1.5627700  
C     6.9809150   -0.5400250    2.0659520  
O     7.7363810   -0.1920070    3.1431290  
C     6.1505130    0.4543370    1.4806850  
O     6.2144540    1.6701140    2.1211490  
C     5.3194650    0.1829720    0.3888930  
H     4.1348630   -1.3187380   -2.0315990  
H     6.6858490   -4.0935090   -0.1436210  
H     7.6823940   -2.5678340    2.0200250  
H     7.5666740    0.7612920    3.2761300  
H     6.2548540    2.3572170    1.4123810  
H     5.1023650   -3.8348740   -2.0864000  
