60


C    -1.9667930   -4.2666930   -0.2548130  
C    -3.0628610   -5.0283570    0.0530660  
C    -4.1582280   -4.1234570    0.2494810  
C    -3.6617120   -2.8116810    0.0573300  
N    -2.3222640   -2.9298160   -0.2399960  
C    -4.4748350   -1.6453100    0.1201490  
C    -5.8401180   -1.8699090    0.4069210  
O    -6.6954090   -0.8376260    0.5615100  
C    -6.3367090   -3.1855600    0.6119790  
O    -7.6874830   -3.2185180    0.8978810  
C    -5.5255070   -4.2994410    0.5411190  
H    -3.0902480   -6.1064890    0.1292560  
H    -1.7373620   -2.1615290   -0.5313510  
H    -7.5698140   -1.2162250    0.7665210  
H    -7.9668340   -4.1301270    1.0674570  
H    -5.9380270   -5.2928900    0.7051580  
H    -0.9499340   -4.5606900   -0.4726810  
C    -3.9226600   -0.3252150   -0.0959790  
C    -2.6301050    0.1010360    0.1484610  
C    -2.5799590    1.4737090   -0.2615690  
C    -3.9658850    1.7505950   -0.7695360  
N    -4.7373540    0.7084270   -0.6705650  
C    -4.3410750    3.0406000   -1.2809270  
C    -3.4043680    4.0173150   -1.2586910  
O    -3.6087640    5.2652850   -1.6962550  
C    -1.9965840    3.7769560   -0.7600320  
O    -1.2057140    4.7128630   -0.8720530  
C    -1.6200810    2.4487730   -0.2356120  
H    -1.8534620   -0.4312170    0.6785560  
H    -5.3463590    3.2089450   -1.6501280  
H    -2.7480720    5.7266040   -1.5710970  
C     1.6374650   -0.3261050   -1.3891060  
C     0.4750860    0.3552640   -1.2909160  
C     0.6178840    1.3267590   -0.2235380  
C     1.9868270    1.1593770    0.3105020  
N     2.5805620    0.1352120   -0.4493480  
C     2.5000010    1.8722790    1.3448170  
C     1.6695230    2.9180080    1.9401310  
O     2.0642080    3.6377230    2.8421730  
C     0.2125110    3.1125170    1.3991500  
O    -0.5188360    3.9062950    1.9588140  
C    -0.2474680    2.2664200    0.2628340  
H    -0.3953060    0.2266240   -1.9166600  
H     3.4855470    1.7120780    1.7645850  
H     1.9346690   -1.0981220   -2.0846600  
C     3.8604690   -0.3840040   -0.3450390  
C     4.2896080   -1.6511600   -0.6254420  
C     5.7181920   -1.6715290   -0.4393310  
C     6.0993240   -0.3016860   -0.0195130  
N     4.9153320    0.4308890    0.0747560  
C     7.3678110    0.1062120    0.2105210  
C     8.4470390   -0.8757200    0.0664730  
O     9.6193400   -0.5967510    0.2553740  
C     8.0631850   -2.3457480   -0.3363070  
O     8.9521320   -3.1759670   -0.4502270  
C     6.6530810   -2.6520960   -0.5717890  
H     3.6651570   -2.4963860   -0.8747460  
H     7.6296390    1.1163500    0.5101940  
H     6.4009450   -3.6659950   -0.8668650  
H     4.8913880    1.4367550   -0.0239640  
