60


C     6.0503860   -1.5855030   -2.9787350  
C     4.9327570   -0.9946390   -2.4475470  
C     4.6104530   -1.7156110   -1.2493920  
C     5.5794470   -2.7427170   -1.1017600  
N     6.4416040   -2.6387900   -2.1742530  
C     5.5871800   -3.6350190   -0.0224460  
C     4.5897270   -3.4983710    0.9297240  
O     4.5468500   -4.3454140    1.9970080  
C     3.5944660   -2.4938980    0.8023340  
O     2.6583860   -2.4914540    1.8076150  
C     3.6002330   -1.6047370   -0.2676720  
H     4.4099930   -0.1416190   -2.8561350  
H     7.2439930   -3.2274750   -2.3337500  
H     6.3344260   -4.4131610    0.0937260  
H     3.7852180   -4.0870370    2.5445170  
H     2.0021710   -1.7948500    1.6446240  
H     6.6089850   -1.3399740   -3.8707890  
C     1.6679020   -0.5140640   -1.4331360  
C     0.8924410    0.5917370   -1.3215650  
C     1.2960580    1.2867440   -0.1207190  
C     2.4053810    0.4893310    0.4577790  
N     2.5747860   -0.6191860   -0.3692550  
C     3.1025780    0.8208830    1.5755300  
C     2.7357040    2.0469900    2.2706390  
O     3.3219490    2.4565230    3.2606990  
C     1.5197390    2.8785860    1.7234210  
O     1.1381250    3.8374830    2.3707230  
C     0.8634830    2.4472230    0.4626380  
H     0.0897810    0.8772610   -1.9824500  
H     3.9345350    0.2362190    1.9529490  
H     1.6629190   -1.2898530   -2.1867850  
C    -3.3517670    1.4226000   -0.3444800  
C    -3.8630290    2.6491470   -0.6884230  
C    -2.7503230    3.5659040   -0.6401290  
C    -1.5864440    2.7112570   -0.2323740  
N    -1.9406360    1.4732330   -0.0651530  
C    -0.2525640    3.2643880   -0.0490200  
C    -0.1198800    4.5999120   -0.2980430  
O     1.0456790    5.2502090   -0.2271560  
C    -1.2712980    5.4756990   -0.7165540  
O    -1.0336360    6.6659710   -0.9206050  
C    -2.6104870    4.8904360   -0.8689630  
H    -4.8822760    2.8942870   -0.9532100  
H     0.8371220    6.1900840   -0.4271870  
H    -3.4178160    5.5554650   -1.1597230  
C    -4.0613990    0.1713720   -0.2464930  
C    -5.4155680   -0.0308190   -0.3552560  
C    -5.6155310   -1.4491090   -0.1852200  
C    -4.2324690   -1.9898410    0.0245840  
N    -3.3351510   -1.0516400   -0.0104630  
C    -4.0006720   -3.3977090    0.2322960  
C    -5.0757400   -4.2199100    0.2355640  
O    -5.0108380   -5.5464650    0.4172760  
C    -6.4804830   -3.7024570    0.0286220  
O    -7.3940340   -4.5266120    0.0464830  
C    -6.6961990   -2.2642020   -0.1835730  
H    -6.1859020    0.7100910   -0.5182870  
H    -2.9918240   -3.7655460    0.3819860  
H    -5.9409120   -5.8619990    0.3688010  
H    -7.7189530   -1.9307610   -0.3305560  
