62


C     2.4275540   -1.5040020    0.2085400  
C     1.2088200   -0.8711080    0.2225590  
C     1.4378360    0.5113730   -0.0725700  
C     2.8349550    0.6540890   -0.2501280  
N     3.4264340   -0.5935770   -0.0738990  
C     3.4521060    1.8773130   -0.5512290  
C     2.6444180    2.9974790   -0.6349420  
O     3.1902240    4.2153940   -0.9046290  
C     1.2391090    2.9111720   -0.4471000  
O     0.6112620    4.1014190   -0.5603180  
C     0.5930590    1.6674380   -0.1950240  
H     0.2737570   -1.3548890    0.4555840  
H     4.5193300    1.9665820   -0.7208370  
H     2.4480760    4.8472820   -0.9336730  
H    -0.3696980    3.9421960   -0.3855840  
H     2.6789820   -2.5404400    0.3763160  
C    -0.8400020    1.6033680   -0.1020820  
C    -1.7078660    0.5265110   -0.0458760  
C    -3.0252010    1.0601750    0.0361570  
C    -2.8332020    2.5462870    0.0094330  
N    -1.5669000    2.8460330   -0.0758930  
C    -3.9273790    3.4688820    0.0489200  
C    -5.1709220    2.9350060    0.1114710  
O    -6.2926380    3.6510210    0.1628790  
C    -5.4164250    1.4339030    0.1670110  
O    -6.5891530    1.0977930    0.3368250  
C    -4.2846640    0.5026120    0.0842680  
H    -1.4598680   -0.5182370   -0.1145090  
H    -3.7546840    4.5388960    0.0248580  
H    -7.0144970    2.9802410    0.2340510  
C    -2.8661280   -2.9526420    2.5357090  
C    -3.0711700   -1.7125420    2.0193520  
C    -4.0003320   -1.8503750    0.9170020  
C    -4.3308080   -3.2940400    0.8404030  
N    -3.5968070   -3.9069590    1.8380200  
C    -5.2102400   -3.8516270   -0.0322940  
C    -5.8829390   -2.9761530   -0.9791040  
O    -6.7256260   -3.3642700   -1.7739010  
C    -5.4925610   -1.4549420   -0.9827860  
O    -5.9136610   -0.7516170   -1.8828830  
C    -4.5714430   -0.9371680    0.0672860  
H    -2.6196420   -0.7948260    2.3627350  
H    -5.4527600   -4.9097930   -0.0425010  
H    -2.2423960   -3.2541820    3.3668700  
H    -3.6515530   -4.8859500    2.0708970  
C     6.7473510    0.9924460    2.2972640  
C     7.7438010    0.2660420    1.7001450  
C     7.1277830   -0.5468190    0.6890880  
C     5.7380120   -0.2610480    0.7264860  
N     5.5318550    0.6700300    1.7203960  
C     4.8158030   -0.8863910   -0.1339930  
C     5.3128260   -1.8231430   -1.0386990  
O     4.4652550   -2.4641510   -1.8918880  
C     6.6993460   -2.1234150   -1.0696550  
O     7.0297480   -3.0788040   -2.0128760  
C     7.6041410   -1.5028020   -0.2294760  
H     8.7947940    0.3015050    1.9513530  
H     4.6472410    1.1085350    1.9257300  
H     5.0132340   -3.0362590   -2.4576250  
H     7.9933970   -3.1516950   -2.0768320  
H     8.6609810   -1.7570260   -0.2747960  
H     6.7960970    1.7198230    3.0950930  
