60


C     3.3920510    1.2929370    1.5580520  
C     3.8316400    2.5782590    1.5015330  
C     4.9942900    2.6022500    0.6511920  
C     5.2382980    1.2742980    0.2283540  
N     4.2389810    0.4620300    0.8032770  
C     6.2550400    0.9611160   -0.6782850  
C     7.0631590    1.9972550   -1.1255130  
O     8.0743860    1.7297290   -1.9984890  
C     6.8482250    3.3276510   -0.6861330  
O     7.7307980    4.2430590   -1.2157080  
C     5.8221270    3.6387100    0.1902400  
H     3.3952730    3.4183150    2.0247770  
H     6.4563450   -0.0439600   -1.0232790  
H     8.5301040    2.5686240   -2.1848740  
H     7.5479500    5.1231710   -0.8543890  
H     5.6528220    4.6674600    0.5008480  
H     2.5847970    0.8498470    2.1208510  
C     0.6063330   -1.9890340    0.1176130  
C     1.4438830   -0.8999110    0.2705380  
C     2.7590550   -1.4413460    0.4670710  
C     2.5601190   -2.9111830    0.4065730  
N     1.3134760   -3.2289810    0.2039210  
C     3.6567710   -3.8401810    0.5308300  
C     4.8973020   -3.3321950    0.6999160  
O     6.0072580   -4.0803270    0.8199950  
C     5.1519480   -1.8536920    0.7854180  
O     6.3017960   -1.4923150    1.0186110  
C     4.0086310   -0.8989170    0.6342070  
H     1.1762880    0.1457960    0.2248880  
H     3.4701060   -4.9068590    0.4808610  
H     6.7408230   -3.4474190    0.9766160  
C    -0.8084370   -1.9726770   -0.1157350  
C    -1.6274450   -0.8685350   -0.2655090  
C    -2.9486320   -1.3864470   -0.4537750  
C    -2.7748120   -2.8696040   -0.3993360  
N    -1.5342980   -3.2062090   -0.2031680  
C    -3.8895210   -3.7742160   -0.5299060  
C    -5.1172010   -3.2382210   -0.7092990  
O    -6.2423090   -3.9574940   -0.8354780  
C    -5.3404250   -1.7491810   -0.8019570  
O    -6.4831820   -1.3651540   -1.0427770  
C    -4.1877450   -0.8311290   -0.6342360  
H    -1.3387820    0.1717450   -0.2171060  
H    -3.7268410   -4.8445860   -0.4769960  
H    -6.9597280   -3.3052770   -0.9936720  
C    -3.5923190    1.3506320   -1.6355230  
C    -3.9649190    2.6509460   -1.5845790  
C    -5.0645550    2.7534590   -0.6504360  
C    -5.3165280    1.3788880   -0.1532530  
N    -4.3915980    0.5466630   -0.8062660  
C    -6.2326570    1.0792140    0.7970470  
C    -7.0609420    2.1615120    1.3357360  
O    -7.9089680    1.9736210    2.1929080  
C    -6.8386700    3.6151890    0.7878060  
O    -7.5283350    4.5254650    1.2185800  
C    -5.7893500    3.8160070   -0.2138950  
H    -3.5316120    3.4618910   -2.1522860  
H    -6.4093250    0.0787770    1.1715560  
H    -5.6134430    4.8278670   -0.5661100  
H    -2.8205170    0.8762910   -2.2257230  
