62


C    -2.2231830    2.4954160    2.3819230  
C    -3.2364440    1.7273760    1.8723740  
C    -2.6410180    0.7942780    0.9583590  
C    -1.2443930    1.0535830    0.9627650  
N    -1.0158340    2.0844780    1.8459380  
C    -0.3367240    0.3103200    0.1856580  
C    -0.8605340   -0.7194560   -0.5943600  
O    -0.0362700   -1.4767820   -1.3876880  
C    -2.2478170   -0.9987060   -0.5867140  
O    -2.6014630   -2.0362630   -1.4209820  
C    -3.1618990   -0.2634650    0.1699370  
H    -4.2863080    1.8115570    2.1110090  
H    -0.1237380    2.5291000    2.0009660  
H    -0.6218350   -2.0662120   -1.8979900  
H    -3.5726190   -2.0614800   -1.4903620  
H    -2.2543510    3.3100980    3.0912510  
C     2.0241150   -0.4233560    0.3865620  
C     3.2918800    0.0396150    0.1957070  
C     3.1571380    1.4608800   -0.1385400  
C     1.7010610    1.7472800   -0.1583650  
N     1.0577270    0.5643110    0.1978240  
C     1.1558690    2.9478850   -0.4883840  
C     2.0523110    4.0477660   -0.8312990  
O     1.6530550    5.1603720   -1.1409950  
C     3.5970720    3.7732260   -0.7974350  
O     4.3659190    4.6770620   -1.0811750  
C     4.0613430    2.4268380   -0.4355790  
H     0.0869240    3.1225650   -0.5382020  
H     5.1307150    2.2560970   -0.4063260  
H     1.7018300   -1.4132110    0.6769260  
C     4.0416400   -3.8954010   -1.5482090  
C     5.3144750   -4.1051690   -1.1237610  
C     5.7076970   -2.9440730   -0.3538170  
C     4.5406640   -2.0308720   -0.3618460  
N     3.5548220   -2.6786880   -1.0827880  
C     4.4973630   -0.7935880    0.2280760  
C     5.7191530   -0.3614540    0.9304170  
O     5.8069690    0.7118660    1.5058670  
C     6.9658040   -1.3244680    0.9569240  
O     7.9737320   -0.9488480    1.5350450  
C     6.8645110   -2.6149700    0.2835370  
H     5.9244490   -4.9740680   -1.3231350  
H     7.7310290   -3.2684370    0.3049170  
H     3.4075970   -4.5279870   -2.1554480  
H     2.6754430   -2.2574070   -1.3496000  
C    -6.7649430    2.0513830   -1.2497890  
C    -5.4901610    1.6699330   -0.9211690  
C    -5.5737650    0.3409290   -0.3846130  
C    -6.9434600   -0.0357390   -0.4181780  
N    -7.6439930    1.0265990   -0.9502470  
C    -7.4022510   -1.2839270    0.0203640  
C    -6.4590380   -2.1733610    0.5088390  
O    -6.8489480   -3.3986120    0.9657310  
C    -5.0840590   -1.8234120    0.5452120  
O    -4.2689110   -2.8099920    1.0657890  
C    -4.6145160   -0.5839140    0.1052690  
H    -4.5967690    2.2653740   -1.0406020  
H    -8.6412330    1.0527220   -1.0938480  
H    -8.4493290   -1.5686210    0.0009550  
H    -6.0552580   -3.8391450    1.3163290  
H    -3.3988950   -2.4229560    1.2621520  
H    -7.1267220    2.9764140   -1.6760100  
