60


C     7.4579230   -0.6923520   -2.0379410  
C     7.5012920   -2.0224020   -1.7132980  
C     6.3732740   -2.2831290   -0.8654800  
C     5.6820690   -1.0568110   -0.7000970  
N     6.3716230   -0.1041000   -1.4156740  
C     4.4801600   -0.9275800    0.0430650  
C     3.9945390   -2.1125130    0.6245840  
O     2.8807650   -2.1075680    1.4112750  
C     4.6876040   -3.3400120    0.4734960  
O     4.0796960   -4.3957680    1.1283710  
C     5.8588790   -3.4410970   -0.2519600  
H     8.2450500   -2.7352100   -2.0412510  
H     6.0364180    0.8337520   -1.5775760  
H     2.7864770   -3.0134920    1.7583050  
H     4.6463660   -5.1798640    1.0844220  
H     6.3650210   -4.3992090   -0.3501890  
H     8.1187350   -0.1018220   -2.6564230  
C     3.8179740    0.3575140    0.1892960  
C     4.3848430    1.6047710    0.2627280  
C     3.2921240    2.5336880    0.4016910  
C     2.0600320    1.6750550    0.3349010  
N     2.3846890    0.4174790    0.2344590  
C     0.7150790    2.2237660    0.3928270  
C     0.6612060    3.5626430    0.6944810  
O    -0.4728460    4.2198220    0.9323270  
C     1.8814590    4.4436430    0.8046020  
O     1.6894520    5.6348700    1.0567930  
C     3.2113380    3.8655000    0.6202810  
H     5.4359020    1.8472460    0.3383710  
H    -0.2065930    5.1571610    1.0772430  
H     4.0662560    4.5299150    0.6953420  
C    -0.6524970   -1.9197960    1.3647640  
C    -1.9281000   -1.8420980    0.9034340  
C    -2.0955730   -0.5256820    0.3395850  
C    -0.7923480    0.1677560    0.5362570  
N     0.0257450   -0.7219870    1.2002580  
C    -0.5156620    1.4538550    0.1365790  
C    -1.5501200    2.0696670   -0.7276320  
O    -1.3363380    3.0443180   -1.4274380  
C    -2.9781390    1.4309200   -0.7955340  
O    -3.8802320    2.1054560   -1.2629670  
C    -3.1674340    0.0632820   -0.2806610  
H    -2.6838940   -2.6093250    0.9588940  
H    -0.1455590   -2.7557670    1.8285070  
H     1.0436830   -0.6502580    1.1063930  
C    -5.9973800   -1.5317860    2.7135320  
C    -7.0544880   -1.8864480    1.9485020  
C    -6.6529570   -1.5733150    0.5807870  
C    -5.2641480   -1.0193670    0.7236370  
N    -4.8937080   -0.9987570    1.9708290  
C    -4.4934210   -0.5642670   -0.4250460  
C    -5.1048510   -0.6834010   -1.6402190  
O    -4.5167040   -0.3545470   -2.7974140  
C    -6.4919100   -1.2363010   -1.8071410  
O    -6.9444670   -1.3092360   -2.9490810  
C    -7.2498600   -1.6748040   -0.6209910  
H    -8.0016910   -2.3033050    2.2614250  
H    -5.1921530   -0.5187580   -3.4919770  
H    -8.2523710   -2.0587080   -0.7842010  
H    -5.9001500   -1.6029630    3.7905090  
