64


C    -3.2935370    0.7126830   -1.8861680  
C    -4.5819820    1.1437720   -1.7381890  
C    -5.1278090    0.4685930   -0.5937880  
C    -4.1114580   -0.3771390   -0.0828280  
N    -2.9851650   -0.2162240   -0.8896560  
C    -4.2901560   -1.1672130    1.0582760  
C    -5.5250200   -1.1129190    1.6854010  
O    -5.7554160   -1.8694710    2.7988560  
C    -6.5582090   -0.2782990    1.1834720  
O    -7.7287590   -0.3338540    1.9176050  
C    -6.3741370    0.5076800    0.0612750  
H    -5.0907210    1.8507280   -2.3795590  
H    -3.5172800   -1.8184180    1.4481780  
H    -6.6718120   -1.6994200    3.0766130  
H    -8.3952800    0.2343260    1.5042710  
H    -7.1766170    1.1467220   -0.3023690  
H    -2.5592160    0.9435410   -2.6445950  
C     0.9017280    1.6781950   -0.3239650  
C     1.6305590    0.5097940   -0.2432910  
C     0.7292490   -0.5968510   -0.3687630  
C    -0.5623840   -0.0407950   -0.5472220  
N    -0.4392830    1.3369300   -0.5575870  
C    -1.7177970   -0.8165110   -0.7152710  
C    -1.5403190   -2.2036410   -0.7480930  
O    -2.6052690   -3.0192220   -0.9381380  
C    -0.2556830   -2.7816990   -0.6002190  
O    -0.2729750   -4.1578140   -0.6466990  
C     0.8955100   -2.0148010   -0.3745210  
H     2.7037130    0.4586500   -0.1447330  
H    -1.2138060    1.9563330   -0.3553250  
H    -2.2412720   -3.9261660   -0.9537360  
H     0.4638140   -4.4346650   -1.2329470  
C     4.1705330    3.7172490    1.9870150  
C     3.3085370    2.7846870    1.4707030  
C     2.4327460    3.4724460    0.5629760  
C     2.8164380    4.8405660    0.5810910  
N     3.8792650    4.9571520    1.4523960  
C     2.1688210    5.8297540   -0.1665760  
C     1.1058080    5.4279770   -0.9598040  
O     0.4472340    6.3427930   -1.7284840  
C     0.6983800    4.0725220   -0.9960070  
O    -0.3768870    3.8414550   -1.8429710  
C     1.3338700    3.0737170   -0.2493490  
H     3.2984550    1.7343020    1.7207430  
H     4.3592020    5.8158630    1.6709640  
H     2.4684380    6.8726280   -0.1536770  
H    -0.2185360    5.8506920   -2.2407250  
H    -0.3629300    2.9111410   -2.1247030  
H     4.9764230    3.6010740    2.6978530  
C     4.0834280   -1.4264790    2.7096580  
C     2.8977750   -1.3650020    2.0586260  
C     3.0507170   -2.2389120    0.8961370  
C     4.4406470   -2.7539210    1.0215240  
N     5.0462950   -2.2728020    2.0707150  
C     4.9999610   -3.6785860    0.0677530  
C     4.1955520   -4.1106810   -0.9285800  
O     4.5723910   -5.0035440   -1.8638340  
C     2.7714550   -3.6597160   -1.0376340  
O     2.0942250   -4.2047360   -1.9214280  
C     2.2227560   -2.6104360   -0.1238080  
H     2.0094400   -0.8178700    2.3367180  
H     6.0219950   -4.0236800    0.1766420  
H     3.7815450   -5.1585020   -2.4215120  
H     4.3644420   -0.9337170    3.6325910  
