62


C     1.9659320    2.0273960   -0.0995990  
C     1.9208670    3.4216780   -0.1049330  
C     3.2551150    3.8927460   -0.1764010  
C     4.1058180    2.7422310   -0.2173130  
N     3.2994760    1.6372420   -0.1538440  
C     5.4997560    2.8399620   -0.3013610  
C     6.0484090    4.1114960   -0.3397570  
O     7.3958070    4.2663450   -0.4215580  
C     5.2163290    5.2723710   -0.2927250  
O     5.9257780    6.4540350   -0.3370320  
C     3.8448600    5.1786130   -0.2111370  
H     1.0209470    4.0186420   -0.0502670  
H     3.5716180    0.6691600   -0.2445220  
H     6.1504790    1.9728200   -0.3386180  
H     7.5802790    5.2218430   -0.4431800  
H     5.3132660    7.2045280   -0.3245870  
H     3.2293620    6.0749970   -0.1781970  
C     0.9389080    1.0385920   -0.0550530  
C    -0.4339540    1.1654360   -0.1074130  
C    -0.9615680   -0.1578120   -0.0561180  
C     0.2395480   -1.0316160    0.0072920  
N     1.3452630   -0.3241610    0.0305030  
C     0.1780720   -2.4857610    0.0315500  
C    -1.0862870   -3.0017480    0.0436860  
O    -1.3476490   -4.3064690    0.1468440  
C    -2.3298760   -2.1552870   -0.0464400  
O    -3.3916120   -2.7963570   -0.0993020  
C    -2.2497220   -0.6813280   -0.0460640  
H    -0.9826490    2.0848900   -0.2347100  
H    -2.3249800   -4.3852310    0.0637350  
C    -3.4640220    0.0943990   -0.0053670  
C    -3.6618720    1.4579170    0.2493880  
C    -5.0521360    1.7138810    0.1995740  
C    -5.6937480    0.4708220   -0.0902460  
N    -4.7161860   -0.4781770   -0.2086020  
C    -7.0836440    0.3514270   -0.2097990  
C    -7.8383750    1.4997250   -0.0333260  
O    -9.1922960    1.4443440   -0.1367230  
C    -7.2145960    2.7521940    0.2584410  
O    -8.1132270    3.7892400    0.4029440  
C    -5.8480010    2.8709860    0.3757870  
H    -2.8924790    2.1719870    0.4956000  
H    -4.8312310   -1.4745200   -0.3385090  
H    -7.5776270   -0.5887850   -0.4301190  
H    -9.5345200    2.3423790    0.0175230  
H    -7.6361250    4.6100830    0.5953070  
H    -5.3925640    3.8337220    0.5980890  
C     4.0519980   -2.4278740    2.1986360  
C     4.5764340   -3.5977880    1.7489320  
C     3.6298330   -4.1572310    0.8086810  
C     2.4890390   -3.2077530    0.7681820  
N     2.7859250   -2.1994130    1.6694490  
C     1.3616010   -3.3639080    0.0061610  
C     1.3937410   -4.4963420   -0.9555260  
O     0.5941130   -4.6131550   -1.8667220  
C     2.5357030   -5.5701740   -0.8355240  
O     2.4542620   -6.5826480   -1.5150470  
C     3.6449700   -5.2996300    0.0692640  
H     5.5204670   -4.0362910    2.0386110  
H     4.4494920   -6.0266730    0.1240470  
H     4.4734100   -1.7150730    2.8962340  
H     2.3852890   -1.2753060    1.5149610  
