60


C    -2.9099180    0.8806680   -2.5077450  
C    -4.0276690    0.1465760   -2.8013130  
C    -3.8594540   -1.1372850   -2.1823090  
C    -2.5967750   -1.1261050   -1.5342660  
N    -2.0372890    0.1127330   -1.7573360  
C    -2.1027440   -2.2248790   -0.7849480  
C    -2.9666920   -3.3249410   -0.6766490  
O    -2.5950550   -4.4220230    0.0539750  
C    -4.2222480   -3.3489960   -1.3277380  
O    -4.9204070   -4.5244240   -1.1278310  
C    -4.6719580   -2.2823460   -2.0827670  
H    -4.8755640    0.4793730   -3.3835730  
H    -1.2038990    0.4563500   -1.3016530  
H    -3.3167570   -5.0725900   -0.0168680  
H    -5.7598480   -4.4953780   -1.6099380  
H    -5.6424230   -2.3240790   -2.5726730  
H    -2.6488800    1.8944920   -2.7761290  
C    -0.7863720   -2.1912860   -0.1654880  
C     0.3159540   -1.4464550   -0.5208220  
C     1.3591000   -1.7007510    0.4276840  
C     0.8062810   -2.6955010    1.3795860  
N    -0.4886400   -2.9349800    0.9780950  
C     1.4941050   -3.2370410    2.4173070  
C     2.8669770   -2.8034850    2.6299050  
O     3.5799660   -3.2491300    3.5167200  
C     3.4578160   -1.6980110    1.6789790  
O     4.5650110   -1.2535200    1.9331750  
C     2.6387720   -1.2170880    0.5432220  
H     0.4076000   -0.8199640   -1.3922550  
H     1.0755850   -3.9800550    3.0889790  
H    -1.0928270   -3.6645600    1.3267900  
C     1.3316290    2.8569990   -0.6332990  
C     2.3865470    3.2453150   -1.4279530  
C     3.2854140    2.1307770   -1.4621430  
C     2.6211500    1.0811150   -0.6079830  
N     1.4849280    1.5136530   -0.1380810  
C     3.2259090   -0.2175010   -0.3698240  
C     4.4243490   -0.4298140   -0.9934380  
O     5.0900230   -1.5815520   -0.9316540  
C     5.1122840    0.6059600   -1.8575450  
O     6.1870760    0.2771720   -2.3639320  
C     4.4844360    1.9057720   -2.0565990  
H     2.5333140    4.2005300   -1.9126550  
H     5.9148520   -1.4326210   -1.4502210  
H     5.0046740    2.6298170   -2.6753700  
C    -0.2664510    4.8257560   -0.6809970  
C     0.1583210    3.5846750   -0.2584560  
C    -0.8888340    3.1615610    0.6968940  
C    -1.8528540    4.2941690    0.7018590  
N    -1.4706560    5.2549100   -0.1114020  
C    -3.0332650    4.2862460    1.5144230  
C    -3.2506070    3.1984600    2.2966180  
O    -4.3075550    3.0519240    3.1051530  
C    -2.2916260    2.0355830    2.3178330  
O    -2.5639380    1.0887890    3.0513050  
C    -1.0791450    2.0739370    1.4688240  
H    -3.7146060    5.1294200    1.4940840  
H    -4.1896150    2.1766920    3.5373770  
H    -0.3941590    1.2342880    1.5002160  
H     0.2286010    5.4736890   -1.3954470  
