60


C     3.0063380   -2.2437730   -1.2704460  
C     3.8887430   -3.2532160   -1.4772900  
C     5.1581940   -2.8478770   -0.9233990  
C     4.9922790   -1.5537650   -0.3795410  
N     3.6403420   -1.1811890   -0.5995830  
C     6.0397990   -0.8682640    0.2393330  
C     7.2733110   -1.5079420    0.3053270  
O     8.3213930   -0.8737160    0.9002420  
C     7.4533540   -2.8035750   -0.2355460  
O     8.7289340   -3.3028910   -0.0925910  
C     6.4084130   -3.4780230   -0.8480300  
H     3.6706850   -4.1893690   -1.9735550  
H     5.9139410    0.1220020    0.6520780  
H     9.0920750   -1.4646320    0.8446620  
H     8.7867970   -4.1802780   -0.4992630  
H     6.5579910   -4.4736230   -1.2600620  
H     1.9666500   -2.1630090   -1.5440330  
C     3.0028240   -0.0236170   -0.2529840  
C     1.6672870    0.3053860   -0.4686240  
C     1.5248720    1.6253560    0.0440620  
C     2.8940890    1.9698090    0.5653970  
N     3.7418790    0.9878690    0.3900300  
C     3.1923530    3.2362450    1.1576800  
C     2.1752050    4.1293590    1.2338650  
O     2.2873110    5.3479630    1.7538940  
C     0.7606970    3.8075650    0.7626780  
O    -0.0828810    4.6684430    1.0114960  
C     0.4778730    2.5178730    0.1248530  
H     0.9266720   -0.2581790   -1.0146960  
H     4.1915480    3.4576260    1.5148200  
H     1.3774900    5.7302340    1.7014470  
C    -2.2265260   -0.8208060    0.9755430  
C    -3.3421370   -0.4401640    0.2721130  
C    -2.9999870    0.8337710   -0.3727330  
C    -1.6075900    1.1357240    0.0288640  
N    -1.2094210    0.0958450    0.8546270  
C    -0.8940110    2.2477900   -0.3233760  
C    -1.5729400    3.1962700   -1.2377280  
O    -0.9976710    4.1330830   -1.7605930  
C    -3.0816990    2.9489100   -1.5844530  
O    -3.6811490    3.7943760   -2.2286350  
C    -3.7120050    1.7077170   -1.1303980  
H    -4.7377710    1.5316620   -1.4293120  
H    -2.0810090   -1.7224620    1.5554800  
H    -0.2493400   -0.0584390    1.1334340  
C    -5.6621260   -2.7000120    3.3412470  
C    -4.7516640   -1.8732100    2.7699790  
C    -5.1053760   -1.8341350    1.3536720  
C    -6.2989000   -2.7171060    1.2621200  
N    -6.6157190   -3.2275700    2.4209590  
C    -6.9918980   -2.9377150    0.0178470  
C    -6.5271340   -2.3025360   -1.0809290  
O    -7.0834120   -2.4015950   -2.3014660  
C    -5.3149600   -1.4153540   -1.0320410  
O    -4.9510030   -0.9093700   -2.0912320  
C    -4.5862740   -1.2020440    0.2613160  
H    -3.9595790   -1.3228690    3.2571650  
H    -7.8612100   -3.5850830   -0.0124970  
H    -6.5247630   -1.8518290   -2.8922340  
H    -5.7443500   -2.9786240    4.3851400  
