64


C    -3.5665490   -2.8867770    2.4431710  
C    -4.4923280   -3.7807790    1.9718490  
C    -5.2905900   -3.0861170    1.0032660  
C    -4.7888020   -1.7582780    0.9234580  
N    -3.7467150   -1.6674100    1.8219840  
C    -5.3422050   -0.7612610    0.0845260  
C    -6.4496170   -1.1713490   -0.6573320  
O    -7.0913290   -0.2679940   -1.4878730  
C    -6.9659180   -2.4866340   -0.5949110  
O    -8.0640880   -2.6880410   -1.4131060  
C    -6.4003310   -3.4496420    0.2166260  
H    -4.6007360   -4.8104390    2.2832710  
H    -3.1698440   -0.8499720    1.9478920  
H    -7.8167820   -0.7510150   -1.9247420  
H    -8.3507280   -3.6110480   -1.3520110  
H    -6.8129700   -4.4554780    0.2555240  
H    -2.7853650   -3.0144480    3.1792630  
C    -1.1437250    0.8164730   -0.4570880  
C    -2.2798850    0.0192470   -0.3884650  
C    -3.3993750    0.8616850   -0.1230470  
C    -2.8984260    2.1941540   -0.0510830  
N    -1.5289880    2.1343240   -0.2090400  
C    -3.7189180    3.3092550    0.1286830  
C    -5.0804560    3.0668970    0.2237600  
O    -5.9487960    4.0966470    0.3741290  
C    -5.6111730    1.7426420    0.1760240  
O    -6.9782590    1.6980390    0.3217700  
C    -4.7983050    0.6195410    0.0381220  
H    -2.2861450   -1.0557930   -0.4951360  
H    -0.9562370    2.9330080   -0.4378790  
H    -3.3406330    4.3249770    0.1740820  
H    -6.8372620    3.6897500    0.3969150  
H    -7.3296090    1.0575180   -0.3365000  
C     0.7061880   -0.6519470   -1.3652970  
C     0.2199520    0.4534110   -0.7187330  
C     1.4404220    1.1924830   -0.3019060  
C     2.5564290    0.3689540   -0.8178420  
N     2.1110080   -0.7041950   -1.4207370  
C     3.9440750    0.7491630   -0.6085670  
C     4.1744010    1.9058930    0.0910060  
O     5.4055690    2.4150910    0.3107570  
C     3.0741230    2.7078440    0.6621920  
O     3.3570060    3.7436270    1.2769180  
C     1.6717810    2.2851480    0.4483890  
H     5.2465450    3.2299380    0.8366650  
H     0.9044630    2.8930580    0.9178190  
H     0.1344750   -1.4425870   -1.8347140  
C     4.9910440   -0.6109670   -2.3963280  
C     6.1272980   -1.3409620   -2.5741890  
C     6.8695520   -1.2887100   -1.3431500  
C     6.1292590   -0.4855100   -0.4404670  
N     4.9715420   -0.0637560   -1.1087220  
C     6.5370210   -0.2794290    0.8814070  
C     7.7274280   -0.8669260    1.2870400  
O     8.1687680   -0.6849270    2.5683520  
C     8.4892250   -1.6546360    0.3906060  
O     9.6494180   -2.1717790    0.9376560  
C     8.0725140   -1.8731530   -0.9116850  
H     6.4063760   -1.8655740   -3.4778820  
H     5.9785200    0.3239180    1.5841760  
H     9.0087310   -1.1675890    2.6523710  
H    10.1176180   -2.6891780    0.2661080  
H     8.6610100   -2.4975670   -1.5814000  
H     4.1696890   -0.4177740   -3.0672630  
