60


C     1.9692710    1.9511930   -0.1006130  
C     1.8483960    3.3192390    0.1212500  
C     3.1365520    3.8940820   -0.0200620  
C     4.0361210    2.8336500   -0.3391480  
N     3.3111410    1.6653650   -0.3516850  
C     5.3990760    3.0470460   -0.5745470  
C     5.8642000    4.3481850   -0.4740310  
O     7.1759510    4.6147290   -0.6902760  
C     4.9810720    5.4224200   -0.1403920  
O     5.6129670    6.6434780   -0.0780050  
C     3.6398660    5.2121970    0.0872790  
H     0.9333570    3.8285590    0.3903770  
H     3.6388930    0.7874290   -0.7267620  
H     6.0890930    2.2481550   -0.8241660  
H     7.3064520    5.5728460   -0.5757300  
H     4.9731200    7.3386070    0.1374100  
H     2.9818830    6.0412000    0.3369680  
C     0.9753490    0.9286780   -0.0659450  
C    -0.4081360    1.0478760   -0.0659120  
C    -0.9701100   -0.2508530   -0.0014280  
C     0.1802200   -1.1824910   -0.0047710  
N     1.3330250   -0.4141710   -0.0724850  
C     0.1064210   -2.5508900    0.0297930  
C    -1.2623790   -3.0824510    0.2398420  
O    -1.4826220   -4.2116670    0.6362640  
C    -2.4868220   -2.1527770   -0.0205220  
O    -3.5637180   -2.7180750   -0.2046260  
C    -2.2961780   -0.7014010    0.0014120  
H    -0.9411780    1.9760610   -0.1866570  
H     2.1579880   -0.7888230    0.4185920  
C    -3.4443230    0.1783580    0.0218370  
C    -3.5491290    1.5220240    0.3493240  
C    -4.9263290    1.8991230    0.2602290  
C    -5.6623770    0.6756130   -0.1473880  
N    -4.7169450   -0.3118660   -0.2821000  
C    -7.0070050    0.6209820   -0.3328120  
C    -7.7889620    1.8345530   -0.1232380  
O    -9.0025350    1.8796070   -0.2676300  
C    -7.0295020    3.1434580    0.3085750  
O    -7.6738570    4.1693050    0.4860940  
C    -5.5824230    3.0776660    0.4788380  
H    -2.7544820    2.1629650    0.6936520  
H    -7.5297240   -0.2831410   -0.6290670  
H    -5.0685530    3.9859400    0.7798830  
H    -4.8673780   -1.3015980   -0.4414620  
C     4.2212590   -2.5872320    1.8015690  
C     4.5997450   -3.8590240    1.5490730  
C     3.5163920   -4.4342940    0.7626200  
C     2.4990440   -3.3340730    0.6583610  
N     2.9443110   -2.2568540    1.2499640  
C     1.2257190   -3.5069790   -0.0261550  
C     1.1042330   -4.6866480   -0.7218480  
O     0.0755600   -4.9640370   -1.5210550  
C     2.1240290   -5.7913490   -0.6643360  
O     1.8942650   -6.8103650   -1.3123850  
C     3.3444080   -5.6145770    0.1395810  
H     5.5119360   -4.3575570    1.8450100  
H     0.2227730   -5.8816320   -1.8446170  
H     4.0552270   -6.4346540    0.1620660  
H     4.7555750   -1.8233250    2.3529970  
