62


C     5.5045660   -3.0984510   -1.9665830  
C     6.8065420   -2.7907520   -1.6699610  
C     6.7844490   -1.5925920   -0.8816180  
C     5.4209220   -1.2209960   -0.7248700  
N     4.6687680   -2.1520340   -1.4082780  
C     5.0036560   -0.0635990   -0.0236870  
C     6.0394310    0.7108090    0.4999050  
O     5.7462470    1.8780410    1.1846010  
C     7.4012850    0.3574680    0.3599800  
O     8.2671900    1.2547890    0.9586160  
C     7.7875580   -0.7824750   -0.3166760  
H     7.6805190   -3.3440700   -1.9842370  
H     3.6605240   -2.1728770   -1.4250560  
H     6.5960520    2.2531270    1.4816880  
H     9.1804970    0.9510080    0.8510260  
H     8.8402030   -1.0366900   -0.4196780  
H     5.0946850   -3.9187550   -2.5387750  
C     1.4109950   -2.3989800    1.3072480  
C     2.6850120   -1.9872210    1.0224620  
C     2.5927680   -0.6461660    0.5076690  
C     1.2169450   -0.3019610    0.5047230  
N     0.5220450   -1.3931390    0.9771520  
C     0.7290760    0.9761640    0.1236720  
C     1.7284440    1.9145500   -0.1790820  
O     1.4031270    3.1972560   -0.5107520  
C     3.1059960    1.5848720   -0.1961370  
O     3.9090990    2.6323240   -0.5901470  
C     3.5726690    0.3038310    0.1015410  
H     3.5882320   -2.5566140    1.1845600  
H    -0.4578170   -1.3817800    1.2166780  
H     2.2591500    3.6443920   -0.6768520  
H     4.6876020    2.6567850    0.0116220  
H     1.0532190   -3.3321620    1.7183770  
C    -0.6893680    1.2820930    0.0739510  
C    -1.7693430    0.4221440   -0.0005210  
C    -2.9696640    1.2062770   -0.0301820  
C    -2.5318820    2.6207530    0.0189650  
N    -1.1570570    2.5955750    0.1115220  
C    -3.3667330    3.6897990   -0.0394310  
C    -4.7983880    3.4408960   -0.1510250  
O    -5.6257930    4.3349360   -0.2436710  
C    -5.2993200    1.9513210   -0.1264970  
O    -6.4987770    1.7430190   -0.0599080  
C    -4.2982990    0.8605430   -0.1123850  
H    -1.7273690   -0.6451780   -0.1480490  
H    -3.0207680    4.7186820   -0.0260570  
H    -0.5406810    3.3903490    0.0155530  
C    -3.7771530   -2.4690030    2.7231750  
C    -4.4890080   -3.4295480    2.0802830  
C    -4.9785830   -2.8520140    0.8442960  
C    -4.4810850   -1.4583310    0.8183130  
N    -3.7096590   -1.3024990    1.9642750  
C    -4.7737540   -0.5309420   -0.1399920  
C    -5.5977800   -1.0049630   -1.2796960  
O    -5.8126180   -0.3191710   -2.2617470  
C    -6.1516520   -2.4772780   -1.2567360  
O    -6.8796580   -2.8419750   -2.1670430  
C    -5.7664160   -3.3473170   -0.1485110  
H    -4.6664190   -4.4375870    2.4263340  
H    -6.1533560   -4.3616950   -0.1412320  
H    -3.2767860   -2.5132650    3.6820880  
H    -3.4480290   -0.3963350    2.3241540  
