60


C     4.4607590    1.6058340    2.9588960  
C     3.5499070    0.9618270    2.1607270  
C     4.2659820    0.4301770    1.0349130  
C     5.6307960    0.7829110    1.2212290  
N     5.7146380    1.5130700    2.3892310  
C     6.6478340    0.3925280    0.3473180  
C     6.2820400   -0.4045710   -0.7276610  
O     7.2240290   -0.8327130   -1.6085630  
C     4.9338230   -0.7956270   -0.9342040  
O     4.7531200   -1.5650790   -2.0614980  
C     3.8962670   -0.3640890   -0.0955520  
H     2.4915280    0.8796450    2.3576480  
H     6.5704230    1.8504980    2.8011060  
H     7.6891790    0.6615590    0.4923170  
H     6.7488640   -1.4001850   -2.2459710  
H     4.1565090   -2.3046220   -1.8104220  
H     4.3180160    2.1285800    3.8941150  
C     0.1141460    2.0295700   -0.2200370  
C     1.4353760    1.6669110   -0.1749400  
C     1.4635670    0.2353980   -0.3005920  
C     0.0277480   -0.1520070   -0.4114080  
N    -0.7504600    0.8879220   -0.3506920  
C    -0.4139500   -1.5403580   -0.5593950  
C     0.6002950   -2.4456910   -0.6892510  
O     0.3934780   -3.7540450   -0.9388460  
C     2.0443770   -2.0722210   -0.6398930  
O     2.8420610   -3.0011960   -0.8696910  
C     2.4783310   -0.6873870   -0.3442300  
H     2.2983890    2.3064410   -0.0660460  
H     1.2911370   -4.1474890   -1.0135880  
C    -2.8170870   -1.0526950   -1.0985300  
C    -1.8357370   -1.8676320   -0.5874350  
C    -2.5262240   -3.0418870   -0.0465270  
C    -3.9723040   -2.8302750   -0.3112830  
N    -4.0665620   -1.6156200   -0.9661010  
C    -4.9661020   -3.6795850    0.0487990  
C    -4.6081130   -4.8995950    0.7659620  
O    -5.4295410   -5.7274850    1.1285390  
C    -3.0898310   -5.1357030    1.0880970  
O    -2.7651460   -6.1396250    1.7027550  
C    -2.1107520   -4.1391960    0.6386350  
H    -6.0150460   -3.4904570   -0.1579140  
H    -1.0694360   -4.3342890    0.8585000  
H    -2.7005310   -0.0860050   -1.5636250  
H    -4.9318310   -1.1625880   -1.2200200  
C     0.1847660    4.5407790   -0.2051930  
C    -0.4851070    3.3399320   -0.1795980  
C    -1.9121750    3.6750270   -0.1224650  
C    -1.9945510    5.1555190   -0.1252540  
N    -0.6857070    5.6076650   -0.1687390  
C    -3.1448860    5.8721900   -0.0871810  
C    -4.4116680    5.1437120   -0.0433000  
O    -5.4985650    5.6981820   -0.0080700  
C    -4.3523480    3.5740470   -0.0449050  
O    -5.3962100    2.9399820   -0.0436550  
C    -3.0388000    2.9206910   -0.0627240  
H    -3.1746590    6.9574510   -0.0843110  
H    -2.9979160    1.8396450   -0.0374980  
H     1.2509990    4.7166610   -0.2580080  
H    -0.4130670    6.5785090   -0.1980430  
