64


C     5.8904350   -0.0776660    1.8139940  
C     6.1401690    1.2016450    2.2135260  
C     5.3620550    2.0731490    1.3753440  
C     4.6404080    1.2503100    0.4744230  
N     4.9631640   -0.0807060    0.7675670  
C     3.8316860    1.7830610   -0.5367980  
C     3.7106990    3.1639660   -0.6058490  
O     2.9075640    3.7248470   -1.5616790  
C     4.4035500    3.9984850    0.3044430  
O     4.1787450    5.3494230    0.1138000  
C     5.2292580    3.4698640    1.2819820  
H     6.8086040    1.4954340    3.0112310  
H     3.3133750    1.1690580   -1.2631290  
H     2.9891320    4.6899310   -1.4712320  
H     4.7414390    5.8575870    0.7165380  
H     5.7708420    4.1272120    1.9595440  
H     6.2841170   -1.0129820    2.1779280  
C     0.8557530   -1.3640530   -0.2733070  
C     1.9496050   -0.6908870    0.2009320  
C     3.1323970   -1.4478710   -0.1068500  
C     2.6732350   -2.6578980   -0.8113630  
N     1.2703030   -2.6099820   -0.8346340  
C     3.4720190   -3.6309660   -1.3093930  
C     4.9081880   -3.5088850   -1.0982030  
O     5.7179030   -4.3370070   -1.4830860  
C     5.4402920   -2.2623520   -0.3000700  
O     6.6377600   -2.1837610   -0.0816410  
C     4.4687660   -1.2370530    0.1408840  
H     1.9166330    0.2227290    0.7727490  
H     3.0972830   -4.5083250   -1.8269910  
H     0.7983230   -2.9382670   -1.6721430  
C    -1.3913880    2.5213660   -0.3287060  
C    -0.3986820    1.5732030   -0.3735780  
C    -1.0347670    0.2979960   -0.2296520  
C    -2.4305080    0.5412620   -0.1172610  
N    -2.6094250    1.9065810   -0.1586800  
C    -3.4065040   -0.4697870    0.0353160  
C    -2.8941550   -1.7679230    0.0830840  
O    -3.7519100   -2.8343100    0.2767110  
C    -1.5191570   -2.0543470   -0.0375130  
O    -1.2344860   -3.3998720    0.0514210  
C    -0.5570260   -1.0443230   -0.1982820  
H     0.6528910    1.7774730   -0.5089980  
H    -3.5123490    2.3573380   -0.1800770  
H    -3.1995780   -3.6380100    0.3009870  
H    -0.2672880   -3.5260310    0.1050280  
H    -1.3232750    3.5974120   -0.4027860  
C    -6.1878850    2.1100570   -2.3944630  
C    -5.1079300    1.3906670   -1.9503010  
C    -5.5029850    0.7339310   -0.7303010  
C    -6.8573710    1.0934780   -0.4970610  
N    -7.2406840    1.9405350   -1.5170090  
C    -7.6047420    0.6070960    0.5815550  
C    -6.9708640   -0.2859780    1.4286390  
O    -7.6385320   -0.8200240    2.4871060  
C    -5.6161980   -0.6670380    1.2232510  
O    -5.1342610   -1.5359470    2.1786660  
C    -4.8489410   -0.1526370    0.1747740  
H    -4.1537270    1.3142790   -2.4512740  
H    -8.1627390    2.3318980   -1.6288790  
H    -8.6404040    0.8806660    0.7553700  
H    -7.0048670   -1.4267060    2.9158780  
H    -4.6322680   -2.2402470    1.7139630  
H    -6.2983820    2.7285380   -3.2739550  
