62


C    -4.0295990   -0.6178600   -0.9064010  
C    -4.6391590   -1.8481240   -0.8749930  
C    -3.6590470   -2.7845900   -0.4046880  
C    -2.4685240   -2.0565890   -0.1482750  
N    -2.7192200   -0.7370460   -0.4679470  
C    -1.2786400   -2.6625640    0.3107370  
C    -1.3304710   -4.0431260    0.5335170  
O    -0.2426340   -4.6826440    1.0408810  
C    -2.5179660   -4.7776340    0.2959800  
O    -2.4005420   -6.1237520    0.5824590  
C    -3.6708030   -4.1723770   -0.1699280  
H    -5.6712900   -2.0475340   -1.1249600  
H    -2.0421310    0.0107990   -0.4699350  
H    -0.4527520   -5.6323250    1.0728930  
H    -3.2238420   -6.5790940    0.3525910  
H    -4.5690460   -4.7607570   -0.3452650  
C    -0.1784960    0.9354720    2.7085920  
C    -0.8727430   -0.1051180    2.1922630  
C     0.0679460   -0.7974020    1.3176140  
C     1.3333320   -0.0177210    1.4495070  
N     1.1744300    0.9926510    2.2560760  
C     2.5682660   -0.3809480    0.7422720  
C     2.4631420   -1.5041780   -0.0345920  
O     3.4899140   -2.0313750   -0.7351140  
C     1.1974110   -2.2750660   -0.2213590  
O     1.2246070   -3.2008640   -1.0313570  
C    -0.0401440   -1.8955050    0.5287710  
H    -1.8957190   -0.3923690    2.3885390  
H     3.0947910   -2.7988390   -1.2101180  
H    -0.5255880    1.6960850    3.3970150  
C     4.0821360    1.1987180    2.0013450  
C     3.7778870    0.4121000    0.9189570  
C     4.9267740    0.6164070    0.0025690  
C     5.8232380    1.5483190    0.7517110  
N     5.3230130    1.8690960    1.9140290  
C     7.0693100    2.0203270    0.2102030  
C     7.4083660    1.6232240   -1.0389170  
O     8.5308820    1.9915090   -1.6770440  
C     6.5137960    0.7180920   -1.8367000  
O     6.8801370    0.4087920   -2.9700080  
C     5.2474040    0.2335230   -1.2491310  
H     7.6926050    2.6853120    0.7976740  
H     8.4850810    1.5497520   -2.5538730  
H     4.6509530   -0.4352610   -1.8550980  
H     3.4677540    1.3484200    2.8763220  
C    -5.3233210    0.8052410   -2.4562920  
C    -5.6666140    2.1218150   -2.5691140  
C    -5.0655810    2.8172110   -1.4641080  
C    -4.3628860    1.8547320   -0.6966150  
N    -4.5249660    0.6175510   -1.3266290  
C    -3.6804910    2.1848580    0.4813960  
C    -3.6892740    3.5139740    0.8772380  
O    -3.0341300    3.8834620    2.0168710  
C    -4.3746920    4.4933990    0.1131160  
O    -4.2896050    5.7698020    0.6347400  
C    -5.0601750    4.1602860   -1.0410890  
H    -6.2684660    2.5533140   -3.3571980  
H    -3.1573270    1.4576290    1.0907240  
H    -3.1491560    4.8441800    2.1170700  
H    -4.7649930    6.3874930    0.0598000  
H    -5.5888090    4.9247560   -1.6072260  
H    -5.5462000   -0.0401360   -3.0905960  
