60


C    -5.6937560   -1.6905740    3.3911840  
C    -6.2708970   -2.7165350    2.6899240  
C    -5.6039780   -2.7860030    1.4205950  
C    -4.6142950   -1.7696940    1.4135010  
N    -4.6851190   -1.1273310    2.6318930  
C    -3.7677250   -1.5048520    0.3091770  
C    -3.9653170   -2.3245790   -0.8085310  
O    -3.1857770   -2.1659180   -1.9202400  
C    -4.9464610   -3.3476220   -0.8132970  
O    -4.9935580   -4.0597690   -1.9994210  
C    -5.7592670   -3.5924160    0.2765880  
H    -7.0765710   -3.3499870    3.0347740  
H    -4.1626470   -0.2975580    2.8674270  
H    -3.4442410   -2.8625470   -2.5493520  
H    -5.5933460   -4.8135130   -1.9001730  
H    -6.5064370   -4.3827050    0.2427910  
H    -5.9077030   -1.3139820    4.3814850  
C    -1.9519750   -0.1251480    1.4292870  
C    -2.7429450   -0.4591570    0.3688860  
C    -2.3867490    0.5459080   -0.6608890  
C    -1.3363400    1.3803500   -0.0147880  
N    -1.0989720    0.9894730    1.2042650  
C    -0.7182130    2.5059170   -0.6929920  
C    -1.1970330    2.8095780   -1.9300410  
O    -0.7393380    3.8223350   -2.6833520  
C    -2.2784210    2.0051230   -2.5875790  
O    -2.6389610    2.3494690   -3.7135620  
C    -2.8587760    0.8446750   -1.8840620  
H    -1.2656590    3.7794710   -3.5127340  
H    -3.6242510    0.2777570   -2.4001610  
H    -1.8876770   -0.6347680    2.3838820  
C     3.3137630    1.2834580    0.5408470  
C     3.7835430    2.4352740    1.1219180  
C     2.7219850    3.4030970    0.9852550  
C     1.6274850    2.6502490    0.2917470  
N     1.9785000    1.4318940    0.0216950  
C     0.3590990    3.2790120   -0.0416250  
C     0.2391500    4.5995270    0.2631400  
O    -0.8617200    5.3236440    0.0178850  
C     1.3308150    5.3800790    0.9466320  
O     1.1100410    6.5668750    1.1906100  
C     2.5906660    4.7114620    1.2987770  
H     4.7519910    2.6068420    1.5710850  
H    -0.6549390    6.2259810    0.3498480  
H     3.3548260    5.3095430    1.7856520  
C     4.0023930    0.0236750    0.4118120  
C     5.2346700   -0.3103520    0.9190740  
C     5.4692670   -1.6745710    0.5139130  
C     4.2394800   -2.0405820   -0.2626480  
N     3.3927280   -1.0584700   -0.3202550  
C     4.0838160   -3.3487190   -0.8497970  
C     5.0861570   -4.2408880   -0.6752030  
O     5.0787650   -5.4910870   -1.1617080  
C     6.3351000   -3.9001490    0.1032360  
O     7.1924040   -4.7773600    0.2081710  
C     6.4761660   -2.5614950    0.6928350  
H     5.8982100    0.3058100    1.5098610  
H     3.1850970   -3.5886620   -1.4067800  
H     5.9315510   -5.8861930   -0.8728080  
H     7.3885630   -2.3542410    1.2437130  
