60


C     4.8221840    0.2162920   -0.1393690  
C     5.3044430   -0.9993780    0.3611890  
C     6.7191100   -0.9489630    0.3363960  
C     7.0799190    0.3291290   -0.1886520  
N     5.9219650    1.0017650   -0.4664550  
C     8.4133170    0.7272960   -0.3495540  
C     9.3958910   -0.1738580    0.0249140  
O    10.7075550    0.1575240   -0.1077230  
C     9.0538900   -1.4571770    0.5530350  
O    10.1534080   -2.2268680    0.8729630  
C     7.7438590   -1.8499580    0.7117550  
H     4.7038580   -1.8037240    0.7569820  
H     5.8129340    1.9640490   -0.7612120  
H     8.6943410    1.6962810   -0.7478100  
H    11.2334150   -0.5998230    0.2039560  
H     9.8627240   -3.0847500    1.2164460  
H     7.5048340   -2.8316850    1.1152310  
C     0.8581850   -1.8237870   -0.2449960  
C     2.1854010   -1.5489800   -0.2645170  
C     2.3458850   -0.1139470   -0.2736480  
C     0.9839610    0.4415960   -0.2829210  
N     0.1062470   -0.6362590   -0.2129700  
C     0.6738940    1.7736430   -0.3704220  
C     1.7591290    2.7181880   -0.4736060  
O     1.6112700    3.9306500   -0.5605480  
C     3.2274290    2.1573590   -0.4900940  
O     4.1236320    2.9665610   -0.6897710  
C     3.4697980    0.6986150   -0.2913370  
H     2.9706380   -2.2846180   -0.3262600  
H    -0.3400040    2.1490430   -0.4385170  
H     0.3442950   -2.7717680   -0.2663840  
C    -2.5665290    1.6357860    2.3775050  
C    -3.7562890    1.2063640    1.8838810  
C    -3.4715160    0.2737790    0.8100070  
C    -1.9964070    0.1999540    0.7253570  
N    -1.5065930    1.0278530    1.7124270  
C    -1.3021840   -0.5850390   -0.1587210  
C    -2.0847620   -1.4562380   -1.0418830  
O    -1.5762990   -2.2699570   -1.7963260  
C    -3.6505260   -1.3343580   -1.0142090  
O    -4.2759080   -1.9146910   -1.8802440  
C    -4.2955770   -0.4771230    0.0106800  
H    -4.7354340    1.4739820    2.2508480  
H    -2.3652750    2.3258280    3.1859730  
H    -0.5397760    1.3145660    1.7781670  
C    -7.2348380    2.8043980   -0.4133350  
C    -8.3819970    2.0935900   -0.2715450  
C    -8.0083120    0.7118910   -0.0483670  
C    -6.5250660    0.6774920   -0.0668980  
N    -6.1205140    1.9801600   -0.2785560  
C    -5.7634950   -0.4505180    0.0693080  
C    -6.4914600   -1.7171770    0.3079400  
O    -5.9199580   -2.7618820    0.5644050  
C    -8.0622690   -1.7014980    0.2952340  
O    -8.6592310   -2.7568990    0.4338090  
C    -8.7435530   -0.4185790    0.1266830  
H    -9.3889980    2.4810890   -0.3215660  
H    -9.8292240   -0.4183040    0.1278330  
H    -7.0989480    3.8613160   -0.6008910  
H    -5.1619790    2.2656290   -0.4052730  
