60


C     2.7077220   -3.8598480   -2.6550500  
C     3.6734790   -4.5794910   -2.0034810  
C     4.0657280   -3.8151470   -0.8527720  
C     3.2859840   -2.6298480   -0.8546650  
N     2.4597280   -2.6891540   -1.9584640  
C     3.4309370   -1.6076990    0.1116350  
C     4.3943490   -1.8290660    1.1022640  
O     4.5489630   -0.9195500    2.1009950  
C     5.1708670   -3.0148210    1.1219690  
O     6.0559430   -3.0783270    2.1820830  
C     5.0193200   -4.0019690    0.1669890  
H     4.0649200   -5.5404980   -2.3074320  
H     1.8671870   -1.9375240   -2.2747320  
H     5.3240460   -1.1919750    2.6231010  
H     6.6725970   -3.8126520    2.0456530  
H     5.6278290   -4.9031970    0.2051590  
H     2.1616560   -4.0824240   -3.5608130  
C    -0.9454570   -0.8040740    0.1018020  
C     0.2961210   -1.3766210    0.1560340  
C     1.2764270   -0.3206520    0.0803340  
C     0.5140130    0.9410500   -0.0029860  
N    -0.8305230    0.5879300   -0.0602140  
C     1.0534860    2.1958730   -0.0159960  
C     2.5248330    2.2725260    0.0698200  
O     3.1224410    3.3219260    0.2275030  
C     3.3579400    0.9459240   -0.0074570  
O     4.5587820    1.0325900   -0.1765770  
C     2.6498080   -0.3606530    0.0861160  
H     0.5059100   -2.4350650    0.1969280  
H    -1.5517550    1.2225640    0.2585870  
C    -2.2146450    3.9293070    2.4840840  
C    -1.2250690    3.1387560    1.9867010  
C    -0.7189370    3.7815410    0.7883220  
C    -1.5028910    5.0301330    0.6343460  
N    -2.4067290    5.0445100    1.6832850  
C    -1.3165750    5.9527240   -0.3437740  
C    -0.2724320    5.7046150   -1.3296570  
O     0.0032310    6.4874860   -2.2248350  
C     0.5174350    4.3489980   -1.2453990  
O     1.2662540    4.0540450   -2.1580090  
C     0.2688650    3.4365590   -0.0955620  
H    -0.8453800    2.2354330    2.4411550  
H    -1.8899660    6.8715400   -0.4178490  
H    -2.8155470    3.7949860    3.3739560  
H    -3.0380610    5.8041890    1.8853430  
C    -2.2462340   -1.4253650    0.1307650  
C    -2.6253140   -2.6361450    0.6457240  
C    -4.0415130   -2.7861070    0.4309500  
C    -4.4844310   -1.5558220   -0.2689560  
N    -3.3661210   -0.7345860   -0.3692580  
C    -5.7486440   -1.3347390   -0.7014120  
C    -6.7628440   -2.3555020   -0.4334530  
O    -7.9274820   -2.2377550   -0.7788120  
C    -6.3251930   -3.6485930    0.3464250  
O    -7.1622030   -4.5040180    0.5897720  
C    -4.9213810   -3.7777940    0.7424330  
H    -1.9820250   -3.3276890    1.1708200  
H    -6.0550010   -0.4333390   -1.2234170  
H    -4.6252260   -4.6831340    1.2633900  
H    -3.2776370   -0.0416010   -1.1008180  
