62


C     4.5321340   -1.1125730   -1.8168050  
C     4.5800690   -0.1669560   -0.8129010  
C     5.8331170   -0.3857100   -0.1149120  
C     6.4873070   -1.4701090   -0.7549210  
N     5.6688310   -1.8898250   -1.7843130  
C     7.7240460   -1.9687230   -0.3277910  
C     8.3128780   -1.3642390    0.7716130  
O     9.5182240   -1.8085930    1.2270770  
C     7.6673870   -0.2864950    1.4363200  
O     8.3730830    0.2001930    2.5184910  
C     6.4460810    0.2037750    1.0132890  
H     5.8740420   -2.6444410   -2.4206240  
H     8.2241240   -2.7997670   -0.8145560  
H     9.7468330   -1.2756100    2.0082370  
H     7.8583930    0.8933530    2.9579720  
H     5.9657040    1.0192670    1.5484100  
H     3.7744170   -1.2696050   -2.5710900  
C     0.0958170   -0.3668560   -0.3147430  
C     1.4467180   -0.6715860   -0.4992010  
C     2.1703730    0.5415900   -0.4358170  
C     1.2169340    1.5859050   -0.1982560  
N    -0.0171640    1.0052040   -0.1345140  
C     1.5875500    2.9283680   -0.0550270  
C     2.9371500    3.2188450   -0.1563330  
O     3.3646580    4.5035630   -0.0427830  
C     3.9028590    2.1946180   -0.3956480  
O     5.1905970    2.6782900   -0.4942870  
C     3.5585540    0.8583120   -0.5389230  
H     1.8517350   -1.6624580   -0.6456630  
H    -0.9157580    1.4457940    0.0072840  
H     0.8726260    3.7239610    0.1235760  
H     4.3287280    4.4983130   -0.1808920  
H     5.7837720    1.9516800   -0.7520690  
C    -1.0752060   -1.1736020   -0.2855280  
C    -1.2427000   -2.5332680   -0.4382650  
C    -2.6442780   -2.7674780   -0.3087360  
C    -3.2348970   -1.4000270   -0.0843560  
N    -2.3160970   -0.4810020   -0.0579380  
C    -4.6585100   -1.2016710    0.1020760  
C    -5.4227530   -2.3282220    0.0997280  
O    -6.7472720   -2.3317190    0.2605260  
C    -4.8532230   -3.7200220   -0.1181650  
O    -5.6767960   -4.6437870   -0.1055830  
C    -3.4316430   -3.8817000   -0.3252940  
H    -0.4769620   -3.2768010   -0.6090610  
H    -6.9941660   -3.2871950    0.2005590  
H    -3.0523760   -4.8874690   -0.4745400  
C    -4.7740080    2.2844200   -2.5721480  
C    -5.3979280    3.2158640   -1.8156260  
C    -5.6951810    2.5403650   -0.5557020  
C    -5.1352120    1.1605820   -0.7401660  
N    -4.6120930    1.0167690   -1.9214910  
C    -5.2286110    0.1479390    0.2994160  
C    -5.8886280    0.5063880    1.4346630  
O    -6.0645840   -0.3115030    2.4838070  
C    -6.4678320    1.8792350    1.6379780  
O    -7.0313330    2.1071360    2.7078420  
C    -6.3371240    2.8917370    0.5740690  
H    -5.6463510    4.2359890   -2.0735440  
H    -6.5632410    0.2189400    3.1439490  
H    -6.7768490    3.8671580    0.7592560  
H    -4.3990750    2.3899740   -3.5834610  
