60


C     6.1485980   -0.6582310   -2.9747760  
C     5.0328060   -0.3096090   -2.2574180  
C     5.2726760   -0.6734860   -0.8897510  
C     6.5793220   -1.2347610   -0.8431480  
N     7.0788640   -1.2267790   -2.1287810  
C     7.1845000   -1.6642290    0.3389720  
C     6.4663620   -1.4933120    1.5145060  
O     7.0052080   -1.8785640    2.7009470  
C     5.1720010   -0.9148900    1.5120010  
O     4.5981500   -0.8453590    2.7627830  
C     4.5314290   -0.5315070    0.3247230  
H     4.1443150    0.1488060   -2.6650880  
H     8.0019180   -1.5321230   -2.3945030  
H     8.1809820   -2.0928890    0.3719640  
H     6.3475820   -1.6351150    3.3806740  
H     4.2085150    0.0509230    2.8501870  
H     6.3570070   -0.5502270   -4.0297400  
C     0.9024230   -1.4661010   -2.0919090  
C     2.1344930   -1.5354120   -1.5394100  
C     2.1901650   -0.4380580   -0.5777660  
C     0.8541700    0.2102590   -0.6942360  
N     0.1095690   -0.3911170   -1.5793730  
C     0.4885750    1.3865070    0.0894490  
C     1.4102490    1.7795850    1.0180440  
O     1.1844530    2.7667300    1.8968640  
C     2.7192180    1.0851930    1.2077310  
O     3.4085940    1.4819890    2.1590480  
C     3.1521380   -0.0110790    0.2907750  
H     2.9214240   -2.2461440   -1.7413410  
H     1.9984750    2.8401540    2.4389660  
H     0.4682710   -2.1115300   -2.8458690  
C    -3.8554340    0.2666400   -0.1072430  
C    -2.4822510    0.2615880    0.0133840  
C    -2.0111210    1.6010940   -0.1679050  
C    -3.2205730    2.4328440   -0.3809800  
N    -4.2923050    1.5713210   -0.3523630  
C    -3.2181860    3.7818170   -0.5409220  
C    -1.9397740    4.4720290   -0.5223390  
O    -1.8255420    5.6843400   -0.6206380  
C    -0.6323460    3.6119760   -0.3792110  
O     0.4410250    4.1675400   -0.5231270  
C    -0.7489740    2.1466190   -0.1266760  
H    -1.8682000   -0.5957550    0.2257920  
H    -4.1228300    4.3687550   -0.6638950  
H    -5.2681590    1.8287080   -0.3060150  
C    -3.4898950   -4.1771650   -0.4814070  
C    -3.1967810   -2.8535990   -0.5680380  
C    -4.4092630   -2.1684910   -0.1521880  
C    -5.3656690   -3.2781700    0.1396500  
N    -4.8189220   -4.4484310   -0.0382600  
C    -6.7195360   -3.0295560    0.5574180  
C    -7.1279590   -1.7429110    0.6438060  
O    -8.3751530   -1.3735640    0.9831790  
C    -6.2066360   -0.6015890    0.3356390  
O    -6.6975450    0.5307460    0.3673880  
C    -4.7683610   -0.8554160    0.0082720  
H    -2.2813650   -2.4011270   -0.9195660  
H    -7.3840080   -3.8602220    0.7674400  
H    -8.3909350   -0.3943820    0.9349390  
H    -2.8451490   -5.0151140   -0.7183350  
