62


C     5.1398970    1.6101110   -2.0061730  
C     6.4796280    1.3574160   -1.9501080  
C     6.6708040    0.1848610   -1.1358600  
C     5.3935340   -0.2490560   -0.7091510  
N     4.4692680    0.6387320   -1.2568000  
C     5.1923870   -1.3687710    0.1020810  
C     6.3210260   -2.0727230    0.4955230  
O     6.1908440   -3.1738950    1.2876490  
C     7.6153660   -1.6579280    0.0807940  
O     8.6327580   -2.4624470    0.5536030  
C     7.8009120   -0.5479520   -0.7227110  
H     7.2516310    1.9405710   -2.4332650  
H     4.2104610   -1.6921970    0.4290880  
H     7.0860670   -3.5124280    1.4625290  
H     9.4883250   -2.1071790    0.2707650  
H     8.8016400   -0.2493520   -1.0281380  
H     4.5756270    2.3873350   -2.5005270  
C     2.2315760   -0.1179730   -1.9209500  
C     0.9535960    0.0500350   -1.5019630  
C     0.9858920    0.9095270   -0.3347470  
C     2.4029930    1.2426100   -0.0911640  
N     3.1158900    0.5750840   -1.0840960  
C     2.8736570    2.0579230    0.8857930  
C     1.9035540    2.6590680    1.7873500  
O     2.1958000    3.4496160    2.6705620  
C     0.3848100    2.2750550    1.6163680  
O    -0.4173080    2.6743580    2.4391670  
C    -0.0022300    1.4071870    0.4736880  
H     0.0696970   -0.3632890   -1.9636870  
H     3.9259960    2.2852380    1.0135170  
H     2.6322310   -0.6713830   -2.7590390  
C    -1.7709480   -0.2939030    0.2186660  
C    -3.1320760   -0.3524870    0.0063270  
C    -3.5904810    1.0275700   -0.0402250  
C    -2.4659110    1.8535630    0.1890590  
N    -1.3453310    1.0198400    0.3306050  
C    -2.5393560    3.2496870    0.2004760  
C    -3.7842550    3.8250320    0.0004980  
O    -3.9137210    5.1817190    0.0006430  
C    -4.9267950    3.0124090   -0.2135970  
O    -6.0936560    3.7244890   -0.4029770  
C    -4.8449480    1.6331540   -0.2333870  
H    -1.6816450    3.8852470    0.3797070  
H    -4.8516400    5.3808140   -0.1641720  
H    -6.8082570    3.1140600   -0.6389680  
H    -5.7240370    1.0334120   -0.4420220  
H    -1.0544510   -1.0976790    0.2971150  
C    -2.8868260   -4.1723650    2.2505350  
C    -2.7411520   -2.8900940    1.8295810  
C    -3.6313120   -2.6950970    0.7016260  
C    -4.3269080   -3.9873870    0.5078940  
N    -3.8096650   -4.8467760    1.4550650  
C    -5.2896290   -4.2334550   -0.4230820  
C    -5.6829580   -3.1436660   -1.2901450  
O    -6.5593730   -3.2275200   -2.1396770  
C    -4.9462080   -1.7579060   -1.1275310  
O    -5.2728110   -0.8561440   -1.8811200  
C    -3.8876720   -1.6002240   -0.0934150  
H    -2.1037830   -2.1425670    2.2755590  
H    -5.7822040   -5.1942910   -0.5345870  
H    -2.4064910   -4.6859360    3.0725870  
H    -4.1403900   -5.7852920    1.6150330  
