62


C    -5.3506770   -2.6372870    3.4876580  
C    -4.4390070   -1.8693600    2.8105010  
C    -4.6980500   -2.0402540    1.4077910  
C    -5.7983000   -2.9313300    1.2985210  
N    -6.1695890   -3.2819810    2.5804620  
C    -6.3492790   -3.3141780    0.0703930  
C    -5.7736150   -2.7880300   -1.0744830  
O    -6.2603880   -3.1376100   -2.2999730  
C    -4.6706780   -1.8995050   -0.9922070  
O    -4.2065800   -1.4888390   -2.2285110  
C    -4.1177740   -1.5059490    0.2257460  
H    -3.6836480   -1.2425760    3.2626880  
H    -6.9312610   -3.8982440    2.8166260  
H    -7.1896520   -3.9953850   -0.0148700  
H    -5.7102140   -2.6908750   -2.9665130  
H    -3.3692830   -1.0122320   -2.1216190  
H    -5.4890630   -2.7797070    4.5500860  
C    -1.8103950   -0.7859360    0.9959920  
C    -2.9600350   -0.5932400    0.2859050  
C    -2.8304390    0.7300260   -0.3282190  
C    -1.5048770    1.2621910    0.0769200  
N    -0.9547680    0.3048100    0.8914800  
C    -0.9701250    2.4797680   -0.2889560  
C    -1.8751750    3.3422450   -1.0452420  
O    -1.6463950    4.5285670   -1.2927030  
C    -3.2473610    2.7755180   -1.5639980  
O    -3.9146040    3.4745170   -2.3073700  
C    -3.6710420    1.4505440   -1.1175850  
H    -4.6377020    1.0846940   -1.4457850  
H    -1.5263880   -1.6391900    1.5971360  
H    -0.0054510    0.3395730    1.2339240  
C     3.0008400    0.3461850   -0.5446600  
C     1.6710040    0.7281240   -0.6754600  
C     1.5094460    2.0067420   -0.0608150  
C     2.7931890    2.3824470    0.4299930  
N     3.6632130    1.3432850    0.1672030  
C     3.0496960    3.6144940    1.0324590  
C     1.9826700    4.4947980    1.1241200  
O     2.1557210    5.7210520    1.6710820  
C     0.6786780    4.1454710    0.6602640  
O    -0.2480340    5.1310110    0.8673220  
C     0.3984350    2.8953920    0.1036250  
H     0.9102710    0.1326790   -1.1591350  
H     4.6679640    1.4354640    0.1898260  
H     4.0296990    3.9061300    1.3950020  
H     1.2898630    6.1694080    1.5967170  
H    -0.8308980    5.1569190    0.0676080  
C     3.3265550   -1.6673770   -2.0436040  
C     3.6712160   -0.8360690   -1.0113900  
C     4.8974410   -1.4563620   -0.4467080  
C     5.1280630   -2.6476420   -1.3040290  
N     4.1994340   -2.7606880   -2.2203260  
C     6.2360410   -3.5332950   -1.0800540  
C     7.0649480   -3.2712010   -0.0377550  
O     8.1376830   -4.0198420    0.2787640  
C     6.8393450   -2.1031090    0.8658750  
O     7.6242400   -1.9214970    1.7978460  
C     5.6895070   -1.2038510    0.6126890  
H     6.3844370   -4.3884520   -1.7302700  
H     8.5296320   -3.5923510    1.0707470  
H     5.5484590   -0.3899380    1.3175590  
H     2.4905920   -1.5525790   -2.7228220  
