62


C    -4.1111030    0.0234380    0.2088380  
C    -4.6402970   -1.1504950    0.7606350  
C    -5.9780310   -1.2718580    0.3230480  
C    -6.2463710   -0.1435850   -0.5126450  
N    -5.1100030    0.6129560   -0.5607130  
C    -7.4882900    0.0568490   -1.1296300  
C    -8.4704070   -0.8919100   -0.9023520  
O    -9.6935580   -0.7520470   -1.4739600  
C    -8.2198470   -2.0287790   -0.0692200  
O    -9.3077510   -2.8672660    0.0463790  
C    -7.0013100   -2.2274850    0.5369560  
H    -4.0976190   -1.8588310    1.3670870  
H    -4.9325730    1.4330420   -1.1255880  
H    -7.6999720    0.9098780   -1.7651540  
H   -10.2365110   -1.5110890   -1.1969160  
H    -9.0857080   -3.6165400    0.6190460  
H    -6.8297590   -3.0973100    1.1672090  
C    -0.5711490   -0.6388610    2.8929740  
C    -1.8354930   -0.6889980    2.3972580  
C    -1.8387760    0.2067630    1.2497160  
C    -0.4585860    0.7289680    1.2088810  
N     0.2825170    0.2253390    2.1638500  
C    -0.0148670    1.7150280    0.2306770  
C    -0.9597420    2.1519090   -0.6487290  
O    -0.7048550    3.0484380   -1.6219120  
C    -2.3629650    1.6621340   -0.6289250  
O    -3.1352780    2.1808320   -1.4473710  
C    -2.7897420    0.5832950    0.3287750  
H    -2.6764290   -1.2263300    2.8087740  
H    -1.5644740    3.2029070   -2.0674770  
H    -0.1731900   -1.1554710    3.7582580  
C     4.1046060   -0.0862210   -0.0948980  
C     2.7371910    0.0788120    0.0133230  
C     2.4962250    1.4742940    0.1341040  
C     3.8598210    2.1014300    0.0723560  
N     4.7790080    1.1907730   -0.0718170  
C     4.0637370    3.5166320    0.1471230  
C     2.9538090    4.2816720    0.2733880  
O     2.9644530    5.6105980    0.3697700  
C     1.5496290    3.6930160    0.3358870  
O     0.6460420    4.5146100    0.5096630  
C     1.3593340    2.2463380    0.2242400  
H     1.9791460   -0.6834920    0.0001150  
H     5.0612180    3.9393260    0.1064280  
H     2.0118920    5.8562370    0.4685030  
C     3.2249170   -4.5108170    0.2345200  
C     3.1143400   -3.1399470    0.2695770  
C     4.3863650   -2.5961060   -0.1036260  
C     5.2385870   -3.7007310   -0.3429720  
N     4.5033870   -4.8505700   -0.1425010  
C     6.5919160   -3.5747670   -0.6874840  
C     7.1100370   -2.2968600   -0.7786750  
O     8.4208400   -2.1081970   -1.0949540  
C     6.2971630   -1.1525130   -0.5496430  
O     6.9687850    0.0119410   -0.6846020  
C     4.9136370   -1.2653070   -0.2369730  
H     2.2292600   -2.6046030    0.5743110  
H     4.8592920   -5.7895950   -0.2296210  
H     7.2345260   -4.4310450   -0.8671460  
H     8.5635930   -1.1434720   -1.0985310  
H     6.3265680    0.7567420   -0.4576410  
H     2.4909330   -5.2731230    0.4534710  
