60


C    -2.5870700   -2.6894860    2.6706310  
C    -3.2100450   -3.7689980    2.1008200  
C    -4.0270290   -3.2677790    1.0326620  
C    -3.8531440   -1.8595020    0.9993410  
N    -2.9774360   -1.5372670    2.0145420  
C    -4.5442930   -1.0143950    0.0990940  
C    -5.4064970   -1.6541500   -0.8014980  
O    -6.0474280   -0.9227600   -1.7503120  
C    -5.5789800   -3.0610420   -0.7857070  
O    -6.4536240   -3.5229670   -1.7530020  
C    -4.9104700   -3.8682810    0.1140100  
H    -3.1073860   -4.8001490    2.4098560  
H    -2.6411470   -0.6080450    2.2124650  
H    -6.6753250   -1.5161650   -2.1986260  
H    -6.6685630   -4.4505590   -1.5761230  
H    -5.0627410   -4.9457830    0.1066950  
H    -1.8924340   -2.6389070    3.4971180  
C    -1.0495720    1.7738510   -0.1364630  
C    -1.8754770    0.6691210   -0.1049980  
C    -3.2280800    1.1283120    0.0520430  
C    -3.1589500    2.6066550    0.1039140  
N    -1.8270960    2.9301760    0.0036580  
C    -4.2323810    3.4366990    0.1978200  
C    -5.5541230    2.8408020    0.2581750  
O    -6.5901990    3.4898910    0.2860080  
C    -5.6580950    1.2728450    0.3066090  
O    -6.7391510    0.7754790    0.5598610  
C    -4.4251520    0.4511150    0.1147500  
H    -1.5416200   -0.3498840   -0.2083910  
H    -4.1494770    4.5190300    0.1996690  
H    -1.4460920    3.8640780   -0.0297380  
C     1.9267430   -1.4240910   -0.6119510  
C     3.0966380   -0.7308440   -0.6826250  
C     2.6841290    0.6820160   -0.5735040  
C     1.2010820    0.6276450   -0.4320890  
N     0.7794390   -0.6041920   -0.4609840  
C     0.3903610    1.8417290   -0.2932270  
C     1.0937630    3.0229190   -0.3382080  
O     0.5266630    4.2452090   -0.2323000  
C     2.5667410    3.0956810   -0.5183090  
O     3.0829370    4.2176240   -0.5557800  
C     3.3455730    1.8526590   -0.6380890  
H     1.2802190    4.8778310   -0.3086220  
H     4.4193170    1.9477780   -0.7640080  
H     1.7950150   -2.4989870   -0.6413720  
C     4.7678600   -2.2279790   -1.8087100  
C     4.4363480   -1.2555060   -0.9050990  
C     5.6745170   -0.9100080   -0.2059120  
C     6.7388520   -1.7607720   -0.7952230  
N     6.1144670   -2.5440010   -1.7487430  
C     8.0426980   -1.7349000   -0.4230350  
C     8.4425200   -0.8201640    0.6442090  
O     9.5927730   -0.7204430    1.0401030  
C     7.3272550    0.0625730    1.3122360  
O     7.6316470    0.8166140    2.2216270  
C     5.9517440   -0.0538830    0.8116490  
H     8.8040570   -2.3671390   -0.8694850  
H     5.1944290    0.5577750    1.2909610  
H     4.1244670   -2.7249340   -2.5228430  
H     6.5879180   -3.1851750   -2.3663900  
