62


C    -2.4856830    0.4949060   -2.0506220  
C    -3.4692890   -0.1155900   -1.3092400  
C    -2.8381400   -0.7053450   -0.1569320  
C    -1.4573640   -0.4086920   -0.2565270  
N    -1.2723080    0.3075450   -1.4222400  
C    -0.5020360   -0.8579450    0.6842390  
C    -1.0011440   -1.6130350    1.7495680  
O    -0.1575630   -2.0264250    2.7309590  
C    -2.3846380   -1.9143950    1.8573650  
O    -2.6995160   -2.6643230    2.9730040  
C    -3.3036870   -1.4785370    0.9238190  
H    -0.3854770    0.6617770   -1.7445300  
H    -0.6676500   -2.5945320    3.3342080  
H    -3.6486860   -2.8576790    2.9758350  
H    -4.3591870   -1.7185620    1.0234250  
H    -2.5629070    1.0501450   -2.9739670  
C     1.8332000    2.8926490    0.2574420  
C     0.8488340    1.9744520    0.4413250  
C     1.4718260    0.6672680    0.3991240  
C     2.9145310    0.9150050    0.1510690  
N     3.0598210    2.2815730    0.0300740  
C     3.8844140   -0.0567560    0.0560410  
C     3.4276680   -1.4149270    0.4334580  
O     4.1901480   -2.3145120    0.7409400  
C     1.8924770   -1.7205940    0.4784130  
O     1.5441890   -2.8855240    0.4212470  
C     0.9403700   -0.5885380    0.5476910  
H    -0.1969430    2.1740110    0.6199510  
H     1.7684920    3.9731390    0.2612820  
H     3.9708550    2.6956600    0.2524530  
C     6.9203240    3.0717430    1.1106920  
C     8.0561180    2.4894370    0.6696610  
C     7.6280210    1.2554860    0.0225680  
C     6.1365000    1.2299250    0.2049610  
N     5.7437020    2.3124880    0.8220320  
C     5.3074390    0.1318150   -0.2748590  
C     5.9684760   -0.7837330   -1.0591240  
O     5.3524750   -1.7770790   -1.7053390  
C     7.4513090   -0.7653110   -1.2828390  
O     7.9365140   -1.6508150   -1.9863410  
C     8.2672640    0.3031120   -0.6792170  
H     9.0711700    2.8514980    0.7527030  
H     6.0657420   -2.2981550   -2.1372620  
H     9.3372550    0.2818920   -0.8612520  
H     6.8078760    4.0123260    1.6359780  
C    -5.3440650   -0.7580060   -2.8161710  
C    -6.7080100   -0.6490880   -2.8363800  
C    -7.0954520    0.0194080   -1.6262950  
C    -5.9041620    0.2976770   -0.9065430  
N    -4.8355510   -0.1896690   -1.6523260  
C    -5.9038220    0.9700880    0.3228540  
C    -7.1303380    1.3541400    0.8425430  
O    -7.1880780    2.0097030    2.0418720  
C    -8.3329090    1.0753520    0.1421480  
O    -9.4743070    1.5177310    0.7894420  
C    -8.3288710    0.4206820   -1.0758160  
H    -7.3622530   -1.0103300   -3.6182700  
H    -4.9925030    1.1955560    0.8651630  
H    -8.1256480    2.1996000    2.2168940  
H   -10.2484990    1.3217060    0.2417310  
H    -9.2639630    0.2235640   -1.5973070  
H    -4.6631850   -1.2111640   -3.5225550  
