62


C    -3.4004970   -1.5506240    1.5121750  
C    -4.0668180   -2.7005940    1.2037930  
C    -5.1228290   -2.3504970    0.2930990  
C    -5.0569340   -0.9492880    0.0926470  
N    -3.9854820   -0.4655890    0.8510150  
C    -5.9183800   -0.2772470   -0.7814610  
C    -6.8765350   -1.0296070   -1.4430680  
O    -7.7454950   -0.4179920   -2.3005770  
C    -6.9654640   -2.4312910   -1.2416920  
O    -7.9685150   -3.0416150   -1.9713320  
C    -6.1033390   -3.0951470   -0.3881790  
H    -3.8462300   -3.6849470    1.5944190  
H    -5.8849810    0.7938140   -0.9357760  
H    -8.3510090   -1.1025090   -2.6329290  
H    -8.0193250   -3.9776320   -1.7279220  
H    -6.1781760   -4.1729190   -0.2563670  
H    -2.5759020   -1.3769330    2.1878040  
C     0.0541770    1.2010740    0.3889460  
C    -1.0417670    0.3744690    0.4276050  
C    -2.1895960    1.1659950    0.7727990  
C    -1.7003730    2.5497600    0.9498870  
N    -0.3461480    2.5198720    0.6580230  
C    -2.4657880    3.6129860    1.3055890  
C    -3.8896570    3.3948440    1.5021570  
O    -4.6785110    4.2872430    1.7728750  
C    -4.4519920    1.9320690    1.3420440  
O    -5.6279150    1.7315200    1.5898600  
C    -3.5194930    0.8577910    0.9323200  
H    -1.0496480   -0.6729600    0.1659680  
H    -2.0750350    4.6187370    1.4233800  
H     0.2990420    3.2263160    0.9813640  
C     2.0513010   -0.3042990    0.3698390  
C     1.4372760    0.8995900    0.1091960  
C     2.4543980    1.7731630   -0.4478150  
C     3.6637050    1.0438100   -0.4733340  
N     3.3964950   -0.2382170    0.0441020  
C     4.8366670    1.5582670   -1.0317940  
C     4.7949860    2.8465040   -1.5435000  
O     5.9173020    3.3910840   -2.0850910  
C     3.5894700    3.5949830   -1.5221550  
O     3.7012110    4.8466620   -2.0822370  
C     2.4242510    3.0719770   -0.9891250  
H     5.7667120    1.0066000   -1.0710020  
H     5.6885210    4.2803350   -2.4068720  
H     2.8358770    5.2823140   -2.0999590  
H     1.4994910    3.6417090   -1.0308800  
H     1.6548840   -1.1912470    0.8407920  
C     3.1682110   -4.5260550   -0.9885350  
C     2.8383150   -3.2138170   -0.8955460  
C     3.9624490   -2.5917180   -0.2056540  
C     4.9010710   -3.7191290    0.0509510  
N     4.4330840   -4.8458730   -0.4099450  
C     6.1685160   -3.5277340    0.7097810  
C     6.4961630   -2.2759210    1.1015120  
O     7.6471370   -1.9556520    1.7181020  
C     5.5743770   -1.1102990    0.8874310  
O     5.9121880   -0.0222380    1.3419340  
C     4.2752660   -1.3238590    0.1709850  
H     1.9541060   -2.7209430   -1.2729850  
H     6.8261190   -4.3740390    0.8732740  
H     7.5882850   -0.9975330    1.9199760  
H     2.5955990   -5.3225420   -1.4483000  
