60


C     4.7589610   -0.5684240    2.6828950  
C     5.7874690   -1.2160110    2.0535680  
C     5.2272560   -1.9004050    0.9230130  
C     3.8356530   -1.6229270    0.9145620  
N     3.5802660   -0.8010030    1.9942250  
C     2.9467510   -2.1633350   -0.0439940  
C     3.5187800   -2.9941560   -1.0161270  
O     2.7401170   -3.4951300   -2.0107610  
C     4.9080130   -3.2735030   -1.0199650  
O     5.3020010   -4.0962290   -2.0576190  
C     5.7613220   -2.7409310   -0.0723990  
H     6.8255470   -1.2056200    2.3554370  
H     2.6640740   -0.5188080    2.3052700  
H     3.2892100   -4.1099460   -2.5284290  
H     6.2320370   -4.3412920   -1.9434730  
H     6.8250420   -2.9682300   -0.0992610  
H     4.7614820    0.0578240    3.5634650  
C     0.7144450    1.6096360   -0.1249850  
C    -0.5782860    1.0865420   -0.0688290  
C    -0.4922130   -0.3292760   -0.0095700  
C     0.9481890   -0.6434160   -0.0368350  
N     1.6158370    0.5681110   -0.0776470  
C     1.5007430   -1.8950390   -0.0482000  
C     0.5312730   -3.0137770    0.0019070  
O     0.8592510   -4.1681810    0.1952840  
C    -0.9971840   -2.7070550   -0.1488350  
O    -1.7264060   -3.6673080   -0.3859750  
C    -1.4725840   -1.3273590    0.0090860  
H    -1.4883040    1.6583100   -0.0238270  
H     2.6187970    0.7145070   -0.0660660  
C    -1.3789710    5.2665880   -1.4435440  
C    -0.4215610    6.1797010   -1.1565680  
C     0.7192120    5.4551880   -0.6342050  
C     0.3334020    4.0254260   -0.6206400  
N    -0.9472630    3.9790520   -1.0997180  
C     1.1509330    2.9857910   -0.2089560  
C     2.5418240    3.3552780    0.1169010  
O     3.4269750    2.5345720    0.3202920  
C     2.9269470    4.8736110    0.2119250  
O     4.0351510    5.1652270    0.6269590  
C     1.9450960    5.8683470   -0.2156370  
H    -0.4852270    7.2486200   -1.2973520  
H     2.2384970    6.9131180   -0.1917980  
H    -2.3666670    5.4026270   -1.8625370  
H    -1.4106350    3.1268010   -1.3813860  
C    -2.8876420   -1.0530000    0.1169350  
C    -3.5521250    0.0715170    0.5854700  
C    -4.9591710   -0.1796150    0.5195440  
C    -5.1057690   -1.5535560   -0.0252340  
N    -3.8299300   -2.0140690   -0.2510700  
C    -6.2991380   -2.1667020   -0.2350610  
C    -7.5226970   -1.4392800    0.0880740  
O    -8.6395690   -1.9104830   -0.0707650  
C    -7.3912650    0.0186130    0.6649800  
O    -8.4098460    0.6424390    0.9335210  
C    -6.0534370    0.5685790    0.8516500  
H    -3.0981400    0.9456060    1.0247830  
H    -6.3888110   -3.1732460   -0.6315810  
H    -5.9741610    1.5736250    1.2559610  
H    -3.5418670   -2.9501010   -0.5127860  
