62


C    -4.3822030   -0.1367150    0.1701820  
C    -3.3845300    0.8207240    0.3298820  
C    -3.9975200    2.1009530    0.2437040  
C    -5.3888400    1.8840290    0.0226830  
N    -5.5913170    0.5282890   -0.0187290  
C    -6.3036160    2.9363170   -0.1115400  
C    -5.8100940    4.2277040   -0.0171400  
O    -6.6559250    5.2898700   -0.1350630  
C    -4.4228310    4.4649170    0.2063180  
O    -4.0956840    5.8066720    0.2740190  
C    -3.5214690    3.4288230    0.3343940  
H    -2.3458080    0.5968340    0.5117520  
H    -6.4771100    0.0508500   -0.0990880  
H    -7.3641320    2.7777290   -0.2770930  
H    -6.1240480    6.0961420   -0.0175610  
H    -3.1659400    5.9004850    0.5288200  
H    -2.4670270    3.6342200    0.5103640  
C    -0.8932290   -2.8318470    0.1698980  
C    -1.5095520   -4.0430320    0.3539940  
C    -2.9195230   -3.7745600    0.3806040  
C    -3.0200330   -2.2832760    0.2236710  
N    -1.8472820   -1.7495310    0.0839360  
C    -4.3102420   -1.5833480    0.2176300  
C    -5.4055360   -2.4069310    0.2582510  
O    -6.6832070   -1.9543020    0.2232180  
C    -5.3330330   -3.8896060    0.3832330  
O    -6.4111740   -4.5000450    0.4322140  
C    -4.0312590   -4.5462020    0.4541810  
H    -1.0467770   -5.0186790    0.4098020  
H    -7.2270520   -2.7765090    0.2874080  
H    -4.0185770   -5.6273140    0.5500380  
C     1.5658790   -3.3313690    0.3890190  
C     0.5007300   -2.5041030    0.0546280  
C     1.0878120   -1.2670970   -0.4299970  
C     2.4907560   -1.4219270   -0.3712030  
N     2.7445220   -2.6910460    0.1289160  
C     3.4098870   -0.4268570   -0.7621490  
C     2.8484500    0.7659270   -1.2247000  
O     3.6602590    1.7790950   -1.6393150  
C     1.4415450    0.9349360   -1.2948730  
O     1.0581880    2.1675520   -1.7833210  
C     0.5585310   -0.0579270   -0.9153030  
H     3.6629610   -3.0327030    0.3704720  
H     3.0841010    2.5046510   -1.9387080  
H     0.0949350    2.1865470   -1.8898320  
H    -0.5155080    0.0829130   -0.9773520  
H     1.5567080   -4.3240770    0.8159950  
C     5.5597240   -1.6676570   -1.2758810  
C     4.8669840   -0.6415850   -0.7018450  
C     5.8577530    0.1755320    0.0000890  
C     7.1734940   -0.4704310   -0.2247130  
N     6.9191980   -1.5932200   -0.9889630  
C     8.3541500   -0.0044700    0.2569290  
C     8.3405150    1.2100940    1.0656550  
O     9.3493020    1.7060990    1.5441580  
C     6.9529350    1.9011760    1.3338070  
O     6.9179340    2.9121350    2.0167910  
C     5.7476660    1.3011350    0.7489080  
H     9.3074490   -0.4918600    0.0764980  
H     4.7991740    1.7965650    0.9234270  
H     5.1851820   -2.4653600   -1.9048450  
H     7.6282560   -2.1884220   -1.3877350  
