64


C    -3.3960350   -0.2726030   -0.0045100  
C    -3.9334070    0.7208980   -0.7880850  
C    -5.3125950    0.8846750   -0.4211080  
C    -5.5801440   -0.0469870    0.6099730  
N    -4.4214800   -0.7977040    0.8162990  
C    -6.8252570   -0.1476070    1.2346210  
C    -7.8305590    0.7059690    0.7997470  
O    -9.0641620    0.6516470    1.3788380  
C    -7.5880130    1.6309320   -0.2487760  
O    -8.6869540    2.4003050   -0.5779960  
C    -6.3511370    1.7274210   -0.8620480  
H    -3.4121870    1.2338710   -1.5843620  
H    -4.1970610   -1.1652270    1.7339240  
H    -7.0326250   -0.8577730    2.0286080  
H    -9.6208200    1.3153410    0.9362150  
H    -8.4539360    3.0094260   -1.2940390  
H    -6.1881990    2.4472620   -1.6617430  
C     0.7137740    1.4819020   -0.5590380  
C    -0.6496840    1.3023250   -0.4194070  
C    -0.8834490   -0.0903760   -0.1969360  
C     0.3863680   -0.7268010   -0.1923980  
N     1.3306750    0.2489400   -0.4200850  
C     0.5812810   -2.1148080   -0.0025700  
C    -0.5977700   -2.8380900    0.1727290  
O    -0.5430710   -4.2121220    0.3142300  
C    -1.8752640   -2.2352190    0.1914670  
O    -2.9047070   -3.1388300    0.3779670  
C    -2.0586210   -0.8614470    0.0155620  
H    -1.3889570    2.0899880   -0.4177890  
H     2.3190830    0.0670450   -0.5099410  
H    -1.4654370   -4.5196870    0.3952830  
H    -3.7545600   -2.6891500    0.2109610  
C     4.4511340   -1.0664270    2.0497350  
C     3.1279700   -1.1543680    1.6944000  
C     3.0181560   -2.1870910    0.6962330  
C     4.3259640   -2.7097700    0.5095410  
N     5.1743160   -2.0003550    1.3361060  
C     4.6072960   -3.7741730   -0.3546540  
C     3.5336300   -4.3307060   -1.0295880  
O     3.7224540   -5.3849120   -1.8711280  
C     2.2161110   -3.8184570   -0.8768470  
O     1.2764920   -4.4596380   -1.6577400  
C     1.9318810   -2.7296520   -0.0493450  
H     2.3214250   -0.5728940    2.1174930  
H     6.1702770   -2.1394540    1.4049300  
H     5.6050840   -4.1785780   -0.4907750  
H     2.8336540   -5.6103960   -2.2064840  
H     0.4794670   -4.6050490   -1.1033570  
H     4.9448830   -0.3957350    2.7384890  
C     1.0676320    3.7649610   -1.5538980  
C     1.4736840    2.6970470   -0.8056900  
C     2.7921600    3.0480940   -0.2750660  
C     3.1036810    4.4063840   -0.7878630  
N     2.0091470    4.7883580   -1.5356610  
C     4.2533320    5.0814810   -0.5293650  
C     5.2551460    4.4500480    0.3232890  
O     6.3215640    4.9755200    0.6054200  
C     4.9301320    3.0273760    0.9075970  
O     5.7408850    2.4881810    1.6459210  
C     3.6574590    2.3962210    0.5439930  
H     4.4627670    6.0730680   -0.9188760  
H     3.4603940    1.4129280    0.9580390  
H     0.1533670    3.8798190   -2.1203450  
H     1.9456400    5.6424020   -2.0671100  
