66


C     0.7913210    1.2003180   -0.3938720  
C     1.7058440    0.2299330   -0.0622020  
C     2.9699110    0.6428600   -0.6149880  
C     2.7558880    1.8893310   -1.2600010  
N     1.4184720    2.2105880   -1.1053980  
C     3.7798600    2.6084950   -1.8823470  
C     5.0489030    2.0505260   -1.8535530  
O     6.0884900    2.6988040   -2.4512400  
C     5.2880820    0.8034010   -1.2188140  
O     6.5962050    0.3856020   -1.3142770  
C     4.2738120    0.0759380   -0.5939300  
H     1.5103740   -0.6348710    0.5548700  
H     0.9339860    2.9612300   -1.5739480  
H     3.6208560    3.5643730   -2.3703160  
H     6.8807930    2.1512690   -2.3077940  
H     6.7343880   -0.3807630   -0.7300650  
C    -1.4487750    0.1756480   -0.2793600  
C    -2.7297830    0.5466690    0.0521670  
C    -2.6678840    1.9474600    0.4174820  
C    -1.3194030    2.3588050    0.2899650  
N    -0.5818450    1.2546860   -0.1440110  
C    -0.8917180    3.6524200    0.6152780  
C    -1.8500030    4.5523620    1.0582890  
O    -1.4841970    5.8255440    1.3829820  
C    -3.2064280    4.1578250    1.1903800  
O    -4.0378250    5.1593080    1.6524930  
C    -3.6203680    2.8738280    0.8845350  
H     0.1457280    3.9621860    0.5626860  
H    -2.2807880    6.2807650    1.7065150  
H    -4.9180460    4.7952430    1.8287720  
H    -4.6575470    2.5809460    1.0306960  
H    -1.0750900   -0.7671490   -0.6500830  
C    -3.9014670   -0.3126970    0.0235890  
C    -4.0411140   -1.6533730    0.3126720  
C    -5.4115000   -2.0094680    0.0896500  
C    -6.0808320   -0.8328040   -0.3397800  
N    -5.1516700    0.1920050   -0.3383240  
C    -7.4415890   -0.8127060   -0.6645500  
C    -8.1464170   -2.0019110   -0.5480620  
O    -9.4774450   -2.0382890   -0.8571690  
C    -7.4986340   -3.1845730   -0.1061960  
O    -8.3342960   -4.2855610   -0.0330070  
C    -6.1530620   -3.2014310    0.2137510  
H    -3.2562770   -2.2946820    0.6903480  
H    -5.2724730    1.0727270   -0.8155980  
H    -7.9556080    0.0832040   -0.9982320  
H    -9.7787300   -2.9514370   -0.7111580  
H    -7.8246820   -5.0555790    0.2588730  
H    -5.6793050   -4.1224530    0.5485570  
C     7.2039680   -1.3014160    2.5513270  
C     6.4500730   -0.5399990    1.6949170  
C     5.5605480   -1.4368050    1.0014040  
C     5.8267070   -2.7417340    1.4950920  
N     6.8325370   -2.6265910    2.4332340  
C     5.1273680   -3.8749280    1.0632810  
C     4.1394020   -3.6816600    0.1121400  
O     3.4245330   -4.7468830   -0.3518550  
C     3.8613620   -2.3879130   -0.4047450  
O     2.8756930   -2.3862950   -1.3676670  
C     4.5523420   -1.2514950    0.0143450  
H     6.4996400    0.5348220    1.5918670  
H     7.2255290   -3.3911910    2.9594140  
H     5.3248340   -4.8728380    1.4410750  
H     2.7948360   -4.3993130   -1.0077740  
H     2.6607470   -1.4673780   -1.6039400  
H     7.9766080   -1.0072080    3.2474650  
