62


C    -2.9982680   -0.5980330    2.8536310  
C    -2.8721250   -0.3408500    1.5052530  
C    -3.6976980   -1.3164650    0.8254680  
C    -4.2908900   -2.1291470    1.8243330  
N    -3.8402040   -1.6713330    3.0477820  
C    -5.1510150   -3.1932160    1.5249790  
C    -5.4155860   -3.4445290    0.1882060  
O    -6.2526580   -4.4633760   -0.1610660  
C    -4.8188610   -2.6508780   -0.8281620  
O    -5.1672620   -3.0341830   -2.1090240  
C    -3.9662570   -1.6051040   -0.5284020  
H    -4.1300660   -2.0272780    3.9450480  
H    -5.6096300   -3.8129920    2.2887360  
H    -6.3209340   -4.4579720   -1.1316350  
H    -4.8274280   -2.3875300   -2.7453370  
H    -3.5146250   -1.0199190   -1.3255710  
H    -2.5651020   -0.0736720    3.6938100  
C    -0.7371950    0.9760080    1.2373680  
C    -2.0308420    0.6998890    0.9151870  
C    -2.4151080    1.6812540   -0.0958240  
C    -1.2298910    2.5406110   -0.3303170  
N    -0.2347060    2.0789380    0.5280520  
C    -1.1874220    3.5489190   -1.2367420  
C    -2.3871260    3.8332530   -2.0195480  
O    -2.4359840    4.7146500   -2.8645910  
C    -3.6678000    2.9628920   -1.7551710  
O    -4.6840540    3.1923340   -2.3928600  
C    -3.5827730    1.8938450   -0.7566460  
H    -0.3139080    4.1675890   -1.4023260  
H    -4.4669450    1.2892140   -0.5839840  
H    -0.0937480    0.4650620    1.9396260  
C     3.5247940   -0.0740150    0.0686690  
C     4.4072110    0.9706570    0.2701740  
C     3.6276790    2.1387210    0.5069950  
C     2.2081610    1.6650590    0.4334140  
N     2.1571840    0.3921360    0.1831020  
C     1.0873360    2.5596880    0.6263150  
C     1.3909450    3.8636830    0.8882520  
O     0.4802540    4.8099690    1.1023980  
C     2.8199150    4.3736180    0.9477130  
O     2.9389170    5.5802830    1.1899690  
C     3.9162210    3.4508520    0.7509640  
H     5.4831790    0.9380340    0.2712880  
H     1.0118500    5.6326230    1.2461540  
H     4.9253930    3.8447020    0.8072310  
C     7.2214720   -2.5746040   -0.6956060  
C     6.3706430   -1.5190490   -0.4567680  
C     5.0370080   -2.0395840   -0.4113470  
C     5.1489530   -3.4329660   -0.6380790  
N     6.4856370   -3.7291730   -0.8006500  
C     4.0513600   -4.3021450   -0.6917870  
C     2.7941230   -3.7545360   -0.5211420  
O     1.6916350   -4.5483980   -0.5714420  
C     2.6225060   -2.3621050   -0.2901010  
O     1.3259240   -2.0125020   -0.1496060  
C     3.7305620   -1.4676590   -0.2114980  
H     6.6929740   -0.4958780   -0.3542790  
H     6.8583690   -4.6478600   -0.9843680  
H     4.1547420   -5.3682890   -0.8675040  
H     0.9213350   -3.9666800   -0.4332890  
H     1.2880230   -1.0184100   -0.0197240  
H     8.2967650   -2.5893280   -0.8007910  
