62


C    -4.6130630   -0.0366890    0.1558720  
C    -5.1903300   -1.1613740    0.7533200  
C    -6.5637970   -1.1873590    0.3874080  
C    -6.7927700   -0.0509030   -0.4426990  
N    -5.6036580    0.6224670   -0.5568500  
C    -8.0465590    0.2379870   -0.9953390  
C    -9.0856970   -0.6324870   -0.7090180  
O   -10.3259870   -0.4015600   -1.2199990  
C    -8.8753490   -1.7751290    0.1182700  
O   -10.0120870   -2.5364950    0.3040020  
C    -7.6411350   -2.0592320    0.6636510  
H    -4.6667540   -1.9294760    1.3046460  
H    -5.3881970    1.4153500   -1.1484310  
H    -8.2257950    1.1008350   -1.6278460  
H   -10.9066350   -1.1182900   -0.9102410  
H    -9.8037110   -3.3024270    0.8591070  
H    -7.5041130   -2.9372650    1.2917300  
C    -1.2793780   -0.8399270    2.8996010  
C    -0.2907300   -0.1743020    2.2440020  
C    -0.8779070    0.4391640    1.0774510  
C    -2.2976970    0.0626800    1.0969480  
N    -2.4755040   -0.7583310    2.1963010  
C    -3.2535350    0.4554030    0.1843480  
C    -2.7855890    1.4642720   -0.7803000  
O    -3.5211670    2.0377760   -1.5733680  
C    -1.2639490    1.8890810   -0.7986900  
O    -0.9824370    2.7904970   -1.5926250  
C    -0.3166130    1.2545710    0.1038760  
H     0.7429270   -0.1014410    2.5434920  
H    -1.2374650   -1.3919830    3.8290920  
H    -3.3874480   -0.9257070    2.5978840  
C     3.1145550   -1.6090030   -0.0038450  
C     1.8749980   -1.0390680    0.0177670  
C     2.0529970    0.3892220    0.0440710  
C     3.4493170    0.6272660    0.0375290  
N     4.0950560   -0.6144680    0.0196050  
C     3.9975450    1.9089110   -0.0511590  
C     3.1066450    2.9673850   -0.1360550  
O     3.5703220    4.2408390   -0.2408070  
C     1.7015030    2.7626650   -0.1213480  
O     0.9735070    3.9251270   -0.1898080  
C     1.1414400    1.4859960    0.0072580  
H     0.9390070   -1.5779520    0.0245620  
H     5.0631880    2.1000640   -0.0624630  
H     2.7749410    4.8022990   -0.3198750  
H     0.2227610    3.7574180   -0.8078430  
H     3.4090610   -2.6480430    0.0110010  
C     6.5156620   -3.1472860   -2.6081580  
C     5.4930150   -2.4508330   -2.0479310  
C     6.0388590   -1.7179010   -0.9246010  
C     7.4808330   -2.0473480   -0.8736160  
N     7.7007400   -2.9302890   -1.9121510  
C     8.3740820   -1.5379690    0.0171760  
C     7.8868450   -0.6004900    1.0117780  
O     8.6017990   -0.0423130    1.8306190  
C     6.3442870   -0.2779320    1.0406590  
O     5.9074060    0.4100290    1.9440630  
C     5.4763860   -0.8579280   -0.0180290  
H     4.4685660   -2.4305920   -2.3865540  
H     9.4302710   -1.7875110    0.0128780  
H     6.5105570   -3.7976040   -3.4726880  
H     8.6023320   -3.3031940   -2.1645750  
