64


C    -4.6999810    0.8666040   -0.0650890  
C    -4.5879650   -0.4679190    0.3136660  
C    -5.8997560   -1.0149990    0.3641610  
C    -6.8013170    0.0282490    0.0081400  
N    -6.0517820    1.1481860   -0.2472340  
C    -8.1886230   -0.1589070   -0.0426270  
C    -8.6739850   -1.4182030    0.2713410  
O   -10.0155550   -1.6581990    0.2393780  
C    -7.7871260   -2.4744520    0.6295070  
O    -8.4314830   -3.6647780    0.9117690  
C    -6.4214510   -2.2897630    0.6788600  
H    -3.6687160   -0.9787730    0.5482340  
H    -6.3992310    2.0692530   -0.4694870  
H    -8.8809000    0.6316470   -0.3128420  
H   -10.1470550   -2.5896810    0.4877850  
H    -7.7758740   -4.3383790    1.1453070  
H    -5.7618370   -3.1102690    0.9542930  
C    -0.2806440    0.5701990   -0.2504370  
C     0.0395230    1.9073170   -0.3093660  
C    -1.1954520    2.6262270   -0.3376970  
C    -2.2602570    1.5718540   -0.2599380  
N    -1.7185460    0.3923650   -0.2361430  
C    -3.6876690    1.8921630   -0.2383610  
C    -3.9648460    3.2265040   -0.3995050  
O    -5.2201760    3.7279000   -0.4448830  
C    -2.9283870    4.2970290   -0.5113400  
O    -3.3470130    5.4593760   -0.6314830  
C    -1.5212620    3.9402890   -0.4628620  
H     1.0190800    2.3479800   -0.3978770  
H    -5.0791920    4.7015870   -0.5517760  
H    -0.7922480    4.7399100   -0.5441080  
C     4.1364470   -0.1029130    0.4844480  
C     2.8786850    0.4665320    0.3519280  
C     1.9521680   -0.5688300    0.0245120  
C     2.6992330   -1.7728990   -0.0262310  
N     4.0220390   -1.4573350    0.2196180  
C     2.1272200   -3.0231510   -0.2726180  
C     0.7551260   -3.0722540   -0.4655180  
O     0.1424190   -4.2668950   -0.6987450  
C    -0.0351820   -1.8967130   -0.4347990  
O    -1.3518700   -2.1309170   -0.6681410  
C     0.5366150   -0.6139650   -0.2164100  
H     2.6800090    1.5192760    0.4744050  
H     4.7424580   -2.1295180    0.4369290  
H     2.7081300   -3.9394340   -0.3092400  
H    -0.8047380   -4.0682650   -0.8167730  
H    -1.8332120   -1.2584000   -0.5737400  
C     5.5933310    1.5566620    1.6986400  
C     5.4109540    0.4931470    0.8377090  
C     6.7305050    0.1064850    0.3817000  
C     7.6590190    0.9736840    1.0105830  
N     6.9347030    1.8482180    1.7984360  
C     9.0395480    0.8948210    0.7917730  
C     9.4940810   -0.0758520   -0.0869570  
O    10.8294840   -0.1964540   -0.3356480  
C     8.5785260   -0.9417570   -0.7424480  
O     9.1810710   -1.8426300   -1.5991700  
C     7.2156120   -0.8612580   -0.5218280  
H     7.3295430    2.5658040    2.3860410  
H     9.7510040    1.5596460    1.2708300  
H    10.9378910   -0.9053700   -0.9929900  
H     8.5025200   -2.3318550   -2.0874700  
H     6.5358700   -1.5175350   -1.0610010  
H     4.8604310    2.1095300    2.2685090  
