62


C    -3.3888350   -0.3322390   -0.0180430  
C    -3.9355120    0.6621680   -0.7980350  
C    -5.3126360    0.8153830   -0.4264840  
C    -5.5698310   -0.1210590    0.6046720  
N    -4.4070790   -0.8591890    0.8033780  
C    -6.8130320   -0.2321160    1.2333040  
C    -7.8254270    0.6141780    0.8027320  
O    -9.0571710    0.5497650    1.3844760  
C    -7.5931560    1.5441060   -0.2449290  
O    -8.6993790    2.3061490   -0.5675440  
C    -6.3597420    1.6517560   -0.8616190  
H    -3.4200860    1.1804000   -1.5944920  
H    -4.1890420   -1.2859080    1.6952690  
H    -7.0126840   -0.9455700    2.0262860  
H    -9.6211480    1.2065470    0.9407950  
H    -8.4793430    2.9050480   -1.2961960  
H    -6.2048060    2.3747790   -1.6600500  
C     0.6759990    1.5067130   -0.5999200  
C    -0.6815720    1.2985820   -0.4589280  
C    -0.8878090   -0.1008050   -0.2340570  
C     0.3920760   -0.7109970   -0.2317110  
N     1.3197840    0.2835350   -0.4514910  
C     0.6105820   -2.0908090   -0.0303520  
C    -0.5391580   -2.8530230    0.1933640  
O    -0.4249970   -4.1829380    0.4405060  
C    -1.8280170   -2.2648870    0.2095980  
O    -2.8404770   -3.1764680    0.4487170  
C    -2.0419790   -0.8995910   -0.0026480  
H    -1.4361020    2.0716020   -0.4461540  
H     2.2959980    0.1178590   -0.6418290  
H    -1.3270540   -4.5498440    0.4544860  
H    -3.6887280   -2.7872610    0.1693120  
C     4.4504630   -1.2054910    2.0415370  
C     3.1420750   -1.2603090    1.6743070  
C     3.0203730   -2.2710030    0.6410680  
C     4.3814260   -2.8335960    0.4623440  
N     5.1983040   -2.1364980    1.3322810  
C     4.7016450   -3.8440050   -0.3874940  
C     3.6379340   -4.4155580   -1.1981510  
O     3.8008590   -5.3656280   -1.9495000  
C     2.2096170   -3.7594630   -1.1200140  
O     1.3732800   -4.1067460   -1.9330210  
C     1.9524300   -2.7004710   -0.1042470  
H     2.3374660   -0.6694630    2.0847090  
H     5.7019740   -4.2559680   -0.4780040  
H     4.9365730   -0.5516320    2.7534390  
H     6.1923660   -2.2752100    1.4252840  
C     1.0565330    3.8196290   -1.5448600  
C     1.4348150    2.7268600   -0.8174020  
C     2.7496580    3.0443060   -0.2607960  
C     3.0935910    4.4076840   -0.7364560  
N     2.0147520    4.8276630   -1.4862810  
C     4.2543230    5.0499600   -0.4452220  
C     5.2321980    4.3749170    0.4038880  
O     6.3052740    4.8703150    0.7127520  
C     4.8715120    2.9444540    0.9468420  
O     5.6647690    2.3616270    1.6726990  
C     3.5894540    2.3566100    0.5562160  
H     4.4911370    6.0466160   -0.8047630  
H     3.3576700    1.3727100    0.9476240  
H     0.1526140    3.9650520   -2.1207990  
H     1.9756320    5.6917530   -2.0038510  
