60


C    -5.3709570    3.0967190   -2.3814960  
C    -4.7396140    1.9691820   -1.9276420  
C    -5.5384300    1.4288670   -0.8645950  
C    -6.6658740    2.2829790   -0.7292050  
N    -6.5302510    3.2956800   -1.6550930  
C    -7.6984220    2.0542980    0.1862130  
C    -7.6051790    0.9147470    0.9683190  
O    -8.5821800    0.6196010    1.8702810  
C    -6.5034890    0.0290150    0.8468720  
O    -6.5494960   -1.0422710    1.7183260  
C    -5.4419010    0.2751850   -0.0347870  
H    -3.8039370    1.5807660   -2.2997900  
H    -7.1995690    4.0325320   -1.8110070  
H    -8.5552370    2.7128990    0.2868680  
H    -8.3091780   -0.2221340    2.2823750  
H    -6.3893590   -1.8599010    1.2021910  
H    -5.0880650    3.7858720   -3.1645950  
C    -1.1454980    1.0861290    0.2465540  
C    -0.5654970   -0.1475130    0.0934720  
C    -1.7261680   -1.0560770   -0.0811260  
C    -2.9115110   -0.1555710   -0.0071770  
N    -2.5490060    1.0853130    0.1838080  
C    -4.2871860   -0.6432110   -0.0995470  
C    -4.4033810   -2.0014970   -0.1752790  
O    -5.6029140   -2.6465550   -0.2242120  
C    -3.2495370   -2.9293690   -0.2280400  
O    -3.4818530   -4.1388120   -0.3136210  
C    -1.8751450   -2.3880180   -0.1887360  
H    -5.3678560   -3.6014480   -0.2952160  
H    -1.0598640   -3.0967440   -0.2595590  
H    -0.6360560    2.0347340    0.3633230  
C     2.7352180    1.5352280    2.5267050  
C     1.5229580    1.2108380    2.0073380  
C     1.7386580    0.2363730    0.9602440  
C     3.1975480    0.0163740    0.9175510  
N     3.7446530    0.8198930    1.8891970  
C     3.8406660   -0.8432440    0.0590730  
C     3.0046720   -1.6693540   -0.8042830  
O     3.4485120   -2.5299010   -1.5492540  
C     1.4415220   -1.4715810   -0.7515350  
O     0.7778120   -2.1944590   -1.4733290  
C     0.8548670   -0.4449630    0.1430730  
H     0.5687600    1.5825280    2.3456760  
H     2.9831170    2.2160460    3.3294760  
H     4.7347580    0.9790980    2.0055640  
C     5.9059380   -2.2370260   -0.0004730  
C     7.2489790   -2.0791380   -0.0432330  
C     7.5216780   -0.6595210   -0.0916630  
C     6.1982550    0.0146570   -0.0806920  
N     5.2413840   -0.9936770    0.0076400  
C     6.0332760    1.3624600   -0.1747120  
C     7.2235550    2.2092640   -0.2531860  
O     7.1629540    3.4260280   -0.3381320  
C     8.6313610    1.5151930   -0.2193580  
O     9.6353240    2.2083190   -0.2497610  
C     8.6768100    0.0513760   -0.1584440  
H     7.9847490   -2.8701870   -0.0489270  
H     5.0656660    1.8464940   -0.2440740  
H     9.6534840   -0.4226580   -0.1787320  
H     5.3168230   -3.1407700    0.0239630  
