64


C     5.5579890    1.6235690    1.3734970  
C     6.8423740    1.1779440    1.3726020  
C     6.8976360    0.0187860    0.5202050  
C     5.5877790   -0.2185090    0.0396310  
N     4.7564920    0.7845500    0.5806580  
C     5.3103370   -1.2335800   -0.8807270  
C     6.3618390   -2.0437530   -1.2848750  
O     6.1293850   -3.0546020   -2.1708390  
C     7.6730170   -1.8346330   -0.7893270  
O     8.6090610   -2.7207110   -1.2812780  
C     7.9499400   -0.8134020    0.1024150  
H     7.6611160    1.6093260    1.9325280  
H     4.3187120   -1.4326520   -1.2631410  
H     6.9763220   -3.5076430   -2.3232950  
H     9.4745510   -2.5297770   -0.8904800  
H     8.9648910   -0.6498650    0.4587880  
H     5.0951280    2.4340960    1.9150600  
C     2.4363530    4.4338270   -0.2372910  
C     3.4850540    3.6025340   -0.0201210  
C     2.8941290    2.2812710    0.1500010  
C     1.4400380    2.5066900    0.0013100  
N     1.1841500    3.7677950   -0.2258790  
C     0.4580490    1.4136190    0.0756670  
C     0.9984800    0.1638130    0.2637490  
O     0.2386850   -0.9621280    0.3539470  
C     2.4312930   -0.1020650    0.4276780  
O     2.7828200   -1.2623920    0.6749380  
C     3.4088540    1.0339870    0.3402060  
H     4.5374030    3.8461240   -0.0099030  
H     0.8783240   -1.6841370    0.5424480  
H     2.4555360    5.5007470   -0.4230590  
C    -0.9586290    1.6622580   -0.0452710  
C    -1.6443610    2.8623100   -0.2386940  
C    -3.0272850    2.5607760   -0.2846240  
C    -3.1590880    1.1504370   -0.1055150  
N    -1.8985910    0.6374140    0.0279060  
C    -4.4040640    0.4745820   -0.1163600  
C    -5.5066080    1.2956460   -0.3420190  
O    -6.7686960    0.7426730   -0.4094630  
C    -5.3993400    2.7022010   -0.5212130  
O    -6.6196530    3.3217810   -0.7221470  
C    -4.1841630    3.3459410   -0.4887400  
H    -1.1692150    3.8244850   -0.3415270  
H    -1.6652340   -0.3317490    0.1963200  
H    -7.3947610    1.4767100   -0.5499160  
H    -6.4872520    4.2762190   -0.8200490  
H    -4.1152510    4.4219290   -0.6310130  
C    -2.7429770   -2.3117360    3.0024990  
C    -3.1185720   -1.2011150    2.2932790  
C    -3.8539880   -1.6564110    1.1422820  
C    -3.8988820   -3.0743000    1.2231190  
N    -3.2045380   -3.4439000    2.3569470  
C    -4.5738960   -3.8736130    0.2935240  
C    -5.2372440   -3.2164650   -0.7289480  
O    -5.9375090   -3.9223710   -1.6603770  
C    -5.2077830   -1.7996860   -0.8389990  
O    -5.8965000   -1.3113960   -1.9330270  
C    -4.5044780   -0.9967170    0.0608550  
H    -2.9067170   -0.1776610    2.5661230  
H    -3.0947100   -4.3898840    2.6861950  
H    -4.6115870   -4.9562080    0.3600140  
H    -6.3255170   -3.2506360   -2.2533740  
H    -6.4435770   -0.5585820   -1.6249260  
H    -2.1823320   -2.3939440    3.9229620  
