62


C    -2.6461320    2.9239950   -1.4424670  
C    -3.7638870    2.2332090   -1.0585120  
C    -3.3178320    1.0115560   -0.4482060  
C    -1.9002730    1.0235380   -0.4823390  
N    -1.5152430    2.2118720   -1.0745770  
C    -1.0965550   -0.0294110    0.0106690  
C    -1.7850180   -1.1146800    0.5594600  
O    -1.0915290   -2.1474950    1.1031800  
C    -3.2027010   -1.1384680    0.6074130  
O    -3.7171180   -2.2836330    1.1780960  
C    -3.9946530   -0.0984610    0.1197580  
H    -4.7886640    2.5455560   -1.1963780  
H    -0.5754790    2.4207620   -1.3753420  
H    -1.7342270   -2.8470280    1.3173760  
H    -4.6704480   -2.3246720    0.9853020  
H    -2.5518000    3.8785140   -1.9407220  
C     1.7753460    2.7624800    1.7421690  
C     2.9452580    2.2016930    1.3240670  
C     2.6133910    1.0523220    0.5176740  
C     1.1389990    0.9781080    0.5095520  
N     0.6911550    2.0668910    1.2403910  
C     0.3774400   -0.0064160   -0.0578910  
C     1.1195530   -1.0603390   -0.7803700  
O     0.5694830   -1.9692960   -1.3734280  
C     2.6893690   -0.9711330   -0.8567100  
O     3.2573630   -1.7553290   -1.5917110  
C     3.3963990    0.1038640   -0.1126150  
H     3.9372260    2.5413740    1.5757010  
H     1.6184560    3.6275790    2.3729670  
H    -0.2754420    2.2144810    1.4891180  
C     4.8451620    0.1366310   -0.1033780  
C     5.6770120    1.2287670   -0.1297960  
C     7.0204230    0.7040190   -0.0915880  
C     6.8289210   -0.7810800   -0.0181520  
N     5.5728850   -1.1097110   -0.0318930  
C     7.9533690   -1.6804080    0.0619900  
C     9.1933970   -1.1392340    0.0429970  
O    10.3305530   -1.8492410    0.1010670  
C     9.4165050    0.3527880   -0.0475930  
O    10.5845140    0.7464080   -0.0545800  
C     8.2597880    1.2506950   -0.1119120  
H     5.3990780    2.2671760   -0.2411020  
H     7.7886810   -2.7504070    0.1212650  
H    11.0505950   -1.1797000    0.0669440  
H     8.4597770    2.3166480   -0.1639940  
C    -7.2035750   -0.2385930   -3.0503300  
C    -6.0016900   -0.1799230   -2.3942170  
C    -6.2880690   -0.2057170   -0.9874320  
C    -7.6998770   -0.2858010   -0.8521240  
N    -8.2304010   -0.3017980   -2.1255740  
C    -8.3444310   -0.3464330    0.3897070  
C    -7.5468670   -0.3241510    1.5219600  
O    -8.1192190   -0.3690760    2.7606380  
C    -6.1335320   -0.2499760    1.4125390  
O    -5.4822930   -0.2225820    2.6289800  
C    -5.4797260   -0.1911720    0.1800150  
H    -5.0260400   -0.1225660   -2.8544270  
H    -9.2118290   -0.3620770   -2.3463160  
H    -9.4231740   -0.4049040    0.4935450  
H    -7.3977370   -0.3136330    3.4110440  
H    -4.5353260   -0.0682960    2.4720600  
H    -7.4195450   -0.2412390   -4.1094170  
