64


C     0.4424110   -1.2378370   -0.9823090  
C    -0.0204610   -0.1158210   -0.3291560  
C     1.1465000    0.6803700   -0.0185080  
C     2.2750350   -0.0129830   -0.5204070  
N     1.8129920   -1.1735950   -1.1079020  
C     3.6073440    0.4363320   -0.3817780  
C     3.7631580    1.6356770    0.3163740  
O     5.0117130    2.1658050    0.4998710  
C     2.6457140    2.3359500    0.8416110  
O     2.9874110    3.5025490    1.5065600  
C     1.3493650    1.8854250    0.6834190  
H     2.4143700   -1.8922910   -1.4809480  
H     4.8923200    3.0094730    0.9697390  
H     2.1824380    3.9363020    1.8255230  
H     0.5129360    2.4385840    1.1042250  
H    -0.1147910   -2.0656200   -1.3981470  
C    -2.3180460   -0.6717990    0.5730670  
C    -1.4181470    0.1831630   -0.0089910  
C    -2.1326490    1.4202510   -0.2672550  
C    -3.4640380    1.2584850    0.1787680  
N    -3.5579270   -0.0351860    0.6860020  
C    -4.4374630    2.2552540    0.0723610  
C    -4.0519650    3.4535830   -0.5116790  
O    -4.9556130    4.4650900   -0.6439010  
C    -2.7235240    3.6357510   -0.9801250  
O    -2.4958210    4.8782860   -1.5408430  
C    -1.7690830    2.6411960   -0.8679350  
H    -5.4590990    2.1209700    0.4101960  
H    -4.5078490    5.1926630   -1.1096340  
H    -1.6228460    4.8881910   -1.9607040  
H    -0.7585480    2.7961100   -1.2380000  
H    -2.1961040   -1.6808940    0.9387140  
C     4.7799400   -0.8358250   -2.2341870  
C     4.7338120   -0.3248110   -0.9518480  
C     5.9663280   -0.7322440   -0.3130320  
C     6.7056660   -1.4827640   -1.2613810  
N     5.9575100   -1.5305630   -2.4214380  
C     7.9538270   -2.0513490   -0.9750590  
C     8.4651520   -1.8573100    0.2976870  
O     9.6795970   -2.3833570    0.6334250  
C     7.7359630   -1.1118410    1.2625890  
O     8.3766380   -1.0065480    2.4847820  
C     6.5047240   -0.5556960    0.9767240  
H     6.2518960   -1.9531520   -3.2876230  
H     8.5212210   -2.6249350   -1.7009910  
H     9.8566700   -2.1256820    1.5546050  
H     7.8501460   -0.4455200    3.0730760  
H     5.9732390    0.0277010    1.7228930  
H     4.0768040   -0.7142070   -3.0467460  
C    -5.0279110   -0.5195040    2.5917450  
C    -6.1717850   -1.2055230    2.8265200  
C    -6.6101230   -1.7739640    1.5651780  
C    -5.6145360   -1.3591150    0.5483670  
N    -4.6777120   -0.5907120    1.2354460  
C    -5.6543020   -1.6929170   -0.7633300  
C    -6.7641850   -2.5268880   -1.2233060  
O    -6.8890050   -2.8885720   -2.3826030  
C    -7.8418210   -2.9763730   -0.1677490  
O    -8.7765960   -3.6699540   -0.5354080  
C    -7.6763640   -2.5436920    1.2238340  
H    -6.6712000   -1.3112130    3.7787700  
H    -4.9075260   -1.3712380   -1.4811660  
H    -8.4244030   -2.8627820    1.9433560  
H    -4.3915190    0.0424330    3.2618130  
