62


C    -1.1241090   -4.7307800   -0.1603970  
C    -1.4867790   -3.3886050   -0.0967340  
C    -2.9374690   -3.3689260    0.0013520  
C    -3.3744690   -4.7134680   -0.0041840  
N    -2.2427670   -5.5126180   -0.1057470  
C    -4.7221850   -5.0805330    0.0803310  
C    -5.6536650   -4.0566900    0.1751010  
O    -6.9814930   -4.3499060    0.2680300  
C    -5.2348840   -2.6995450    0.1753260  
O    -6.2704560   -1.7936110    0.2695020  
C    -3.9014570   -2.3471930    0.0823500  
H    -2.2444530   -6.5213330   -0.1209810  
H    -5.0556130   -6.1132060    0.0789920  
H    -7.4559300   -3.5032140    0.3414100  
H    -5.9105830   -0.8976700    0.3654400  
H    -3.5933980   -1.3080840    0.0650320  
H    -0.1414250   -5.1754140   -0.2276660  
C    -0.5938770   -2.2652450   -0.1097910  
C     0.7723530   -2.1984100   -0.2718000  
C     1.1260820   -0.8131900   -0.1745510  
C    -0.1713000   -0.1221010    0.0707220  
N    -1.1614170   -0.9631620    0.0919150  
C    -0.2918360    1.3295360    0.2518980  
C     0.8985500    1.9959540    0.2016560  
O     1.0263860    3.3231400    0.3896820  
C     2.2261810    1.3275420   -0.0411510  
O     3.2030720    2.0887890   -0.0386170  
C     2.3170360   -0.1261720   -0.2689820  
H     1.4553800   -3.0223600   -0.4175910  
H     1.9971230    3.4824530    0.2963970  
C    -2.6805040    1.3287220    1.0685660  
C    -1.5958700    1.9337030    0.4900650  
C    -2.1044680    3.2722350    0.1052390  
C    -3.5303200    3.2605340    0.5490260  
N    -3.8490120    2.1252050    1.1123650  
C    -4.4040370    4.3848950    0.3480280  
C    -3.9037670    5.4716490   -0.2869360  
O    -4.6035970    6.5878140   -0.5497450  
C    -2.4820710    5.5080280   -0.7684160  
O    -2.1002570    6.5266740   -1.3444620  
C    -1.6015340    4.3436920   -0.5388760  
H    -5.4306550    4.3390040    0.6944700  
H    -3.9737750    7.1821250   -1.0146700  
H    -0.5779570    4.4246740   -0.8815100  
H    -2.7118660    0.3317520    1.4812960  
C     3.6774240   -1.7667230   -1.5775390  
C     3.5839910   -0.7422860   -0.6457270  
C     4.9419890   -0.4954570   -0.1869730  
C     5.7825460   -1.4087290   -0.8706680  
N     4.9806380   -2.1607060   -1.7132560  
C     7.1637580   -1.4899810   -0.6612880  
C     7.7178520   -0.6263460    0.2697010  
O     9.0590000   -0.6528130    0.5135850  
C     6.8944860    0.2908380    0.9738400  
O     7.5863900    1.0853110    1.8681570  
C     5.5310910    0.3636120    0.7617770  
H     5.3133270   -2.8506380   -2.3690970  
H     7.7993650   -2.1918670   -1.1913950  
H     9.2423140    0.0318830    1.1801810  
H     6.9809070    1.7339460    2.2569220  
H     4.9324190    1.0938380    1.2952830  
H     2.8979450   -2.2034670   -2.1843090  
