66


C     4.5867900   -0.7918170   -0.4496730  
C     5.2664220   -1.6683720   -1.2689830  
C     6.6178900   -1.7518230   -0.7981510  
C     6.7182820   -0.8913000    0.3276350  
N     5.4817580   -0.2965530    0.4994190  
C     7.9035100   -0.7305130    1.0533530  
C     9.0153010   -1.4469380    0.6341350  
O    10.1977210   -1.3294170    1.3117420  
C     8.9387480   -2.3004990   -0.4959630  
O    10.1294740   -2.9408790   -0.7961340  
C     7.7651500   -2.4577430   -1.2117090  
H     4.8509270   -2.1570280   -2.1399110  
H     5.1883670    0.1875740    1.3343310  
H     7.9827060   -0.0772660    1.9166820  
H    10.8408460   -1.9035590    0.8616990  
H    10.0004560   -3.5075870   -1.5706830  
H     7.7330820   -3.1206420   -2.0746390  
C     2.1115950   -1.1440870   -0.8036340  
C     3.1965210   -0.3669090   -0.4544990  
C     2.6668570    0.9344270   -0.1028920  
C     1.2600970    0.8690840   -0.2559810  
N     0.9532910   -0.4074440   -0.6853680  
C     0.3924420    1.9586450   -0.0295060  
C     1.0009680    3.1489220    0.3702700  
O     0.2410730    4.2436340    0.6478410  
C     2.4118640    3.2384560    0.5090850  
O     2.8507490    4.4911110    0.9010140  
C     3.2459510    2.1604600    0.2810670  
H     0.0219710   -0.7292150   -0.9001470  
H     0.8542570    4.9734660    0.8427400  
H     3.8162950    4.5289720    0.8350300  
H     4.3243240    2.2697710    0.3718870  
H     2.0819090   -2.1819160   -1.1030080  
C    -2.4809430   -0.6384750    2.0712920  
C    -3.6274640   -0.2711320    1.4026240  
C    -3.2231810    0.7226860    0.4314370  
C    -1.8240470    0.9029400    0.5647200  
N    -1.3962150    0.0543450    1.5665480  
C    -1.0759880    1.8237460   -0.2002080  
C    -1.7979240    2.5758360   -1.1280820  
O    -1.1540860    3.4644140   -1.9351470  
C    -3.2026150    2.4171900   -1.2636830  
O    -3.7630170    3.2393210   -2.2278880  
C    -3.9191080    1.5109090   -0.5059450  
H    -0.4551770    0.0240450    1.9273450  
H    -1.8379950    3.9197130   -2.4563600  
H    -4.7283030    3.1964200   -2.1610340  
H    -4.9955600    1.4140740   -0.6261830  
H    -2.3518090   -1.3713100    2.8553530  
C    -5.5929320   -0.8903270    2.8798060  
C    -4.9799790   -0.7756930    1.6522200  
C    -5.9317020   -1.2720590    0.6814850  
C    -7.0949680   -1.6679870    1.3906990  
N    -6.8562590   -1.4314130    2.7293880  
C    -8.2208470   -2.2088750    0.7564390  
C    -8.1697760   -2.3598800   -0.6205400  
O    -9.2409860   -2.8817720   -1.2899240  
C    -7.0093690   -1.9817660   -1.3456980  
O    -7.1065560   -2.1989230   -2.7100750  
C    -5.8998610   -1.4480400   -0.7166780  
H    -7.5160090   -1.5851530    3.4752000  
H    -9.1119860   -2.5135230    1.2961190  
H    -8.9956540   -2.9243970   -2.2301440  
H    -6.2571710   -1.9927330   -3.1272210  
H    -5.0185080   -1.1711970   -1.2908960  
H    -5.2260960   -0.6053600    3.8558720  
