62


C    -3.8830400   -0.0548930    0.0466080  
C    -3.8066690   -1.3491600    0.5715520  
C    -5.0945650   -1.9210940    0.4761020  
C    -5.9510870   -0.9371410   -0.1215360  
N    -5.1905930    0.1694360   -0.3663580  
C    -7.3100290   -1.1736990   -0.3658400  
C    -7.8148370   -2.4113410   -0.0059630  
O    -9.1242030   -2.6972490   -0.2182340  
C    -6.9756790   -3.4062820    0.5917790  
O    -7.6447150   -4.5749320    0.8839240  
C    -5.6412900   -3.1785050    0.8329550  
H    -2.9141340   -1.8090880    0.9727670  
H    -5.4700870    1.0500450   -0.7765790  
H    -7.9645150   -0.4356900   -0.8167180  
H    -9.2831580   -3.6035880    0.0997350  
H    -7.0358670   -5.2093540    1.2908720  
H    -5.0198200   -3.9464050    1.2880830  
C    -2.9147060    0.9717120   -0.1124130  
C    -1.5741130    1.0081980    0.2160080  
C    -1.1148560    2.3016040   -0.1613300  
C    -2.3332720    2.9766540   -0.7276040  
N    -3.3773670    2.1987770   -0.7044390  
C    -2.2950570    4.3282120   -1.2148230  
C    -1.1206130    4.9848510   -1.0928460  
O    -0.9295830    6.2552650   -1.4673880  
C     0.1105380    4.3447780   -0.4783920  
O     1.0850120    5.1169040   -0.3606920  
C     0.1085010    2.9452520   -0.0755330  
H    -0.9885660    0.2251010    0.6727110  
H    -3.1801540    4.7913680   -1.6354360  
H     0.0041450    6.4529650   -1.2229230  
C     2.0177850   -0.9018470   -1.3182090  
C     1.2079920    0.1883880   -1.2031620  
C     1.7221160    1.0058930   -0.1356190  
C     2.8715650    0.3453750    0.3672900  
N     3.0307210   -0.8437940   -0.3585120  
C     3.7005370    0.9073380    1.3385150  
C     3.3510700    2.1653320    1.8119510  
O     4.1241580    2.7742180    2.7518920  
C     2.2033680    2.8445780    1.3377710  
O     1.9949660    4.0702120    1.9329480  
C     1.3471070    2.2769290    0.3848150  
H     0.3411820    0.3902740   -1.8143600  
H     4.5888290    0.4197820    1.7165920  
H     3.7089210    3.6453300    2.9029890  
H     1.7838200    4.7036030    1.2113490  
H     1.9810250   -1.7310870   -2.0057890  
C     5.4505810   -2.8229750   -3.3622990  
C     6.2574640   -3.5919520   -2.5978860  
C     5.8408620   -3.3337910   -1.2220430  
C     4.7281950   -2.3438530   -1.3608510  
N     4.5049690   -2.0529080   -2.6073880  
C     4.0323900   -1.8106940   -0.1932030  
C     4.4132100   -2.2983080    1.0260320  
O     3.8286790   -1.9478830    2.1871800  
C     5.5259460   -3.2773220    1.1786540  
O     5.7969010   -3.6642880    2.3176240  
C     6.2369120   -3.7784750   -0.0161390  
H     7.0496750   -4.2560350   -2.9144430  
H     4.3193690   -2.4471130    2.8777900  
H     7.0379410   -4.4929220    0.1474210  
H     5.4396070   -2.7283040   -4.4412570  
