60


C     2.0644760   -4.8793080   -0.3512810  
C     1.0440600   -5.6105760   -0.8733030  
C    -0.1820850   -4.8794940   -0.6575770  
C     0.1558420   -3.6933770    0.0283080  
N     1.5561540   -3.6853870    0.1946150  
C    -0.8121050   -2.7852030    0.4676040  
C    -2.1389130   -3.0363620    0.1405130  
O    -3.0892240   -2.1755400    0.5847030  
C    -2.4911080   -4.1952870   -0.5995040  
O    -3.8295770   -4.3129020   -0.8711700  
C    -1.5289770   -5.1207920   -0.9791920  
H     1.1472930   -6.5637190   -1.3738400  
H    -0.5868750   -1.9049100    1.0559660  
H    -3.8650170   -2.1821930   -0.0085010  
H    -3.9732090   -5.0489390   -1.4851350  
H    -1.8193610   -6.0236120   -1.5120960  
H     3.1302740   -5.0505910   -0.3543880  
C     2.3308800   -2.6280120    0.6056240  
C     3.5908390   -2.5947300    1.1459450  
C     3.9529020   -1.2121340    1.3154030  
C     2.7960260   -0.4273750    0.8265250  
N     1.8240490   -1.3281010    0.4559390  
C     2.7387680    0.9326270    0.7685760  
C     3.8976860    1.6993640    1.2426160  
O     3.9367540    2.9171980    1.2304180  
C     5.1246660    0.8820400    1.7983770  
O     6.0922690    1.5064490    2.2059770  
C     5.0616210   -0.5780010    1.7929970  
H     4.1809130   -3.4508510    1.4367140  
H     5.9290910   -1.1154840    2.1626510  
H     1.0670970   -1.1068470   -0.1776960  
C     0.3167580    1.4644570    0.8928460  
C    -0.7011270    1.8247200    0.0598080  
C    -0.0789430    2.2219450   -1.2012570  
C     1.3811900    2.0548530   -1.0157660  
N     1.5684870    1.5806590    0.2872210  
C     2.3100460    2.3042140   -1.9694390  
C     1.8512930    2.7887600   -3.2713660  
O     2.6110340    3.0312740   -4.1955590  
C     0.3081330    3.0054890   -3.4788500  
O    -0.0923070    3.4295470   -4.5509060  
C    -0.5944340    2.6832530   -2.3680200  
H     3.3755840    2.1823850   -1.8090930  
H    -1.6595630    2.8083640   -2.5310520  
H     0.2582200    1.0980990    1.9098340  
C    -3.2331180    3.8845960    3.0781030  
C    -2.2049820    3.4887350    2.2854860  
C    -2.7173540    2.4711990    1.3915080  
C    -4.1511130    2.3007520    1.7386580  
N    -4.3967710    3.1831470    2.7674840  
C    -5.0001330    1.4184940    1.1440990  
C    -4.4621550    0.5530870    0.1145900  
O    -5.0909450   -0.3708590   -0.3905160  
C    -2.9851150    0.7997620   -0.3681610  
O    -2.5811230    0.1821490   -1.3383770  
C    -2.1325520    1.7541700    0.3832830  
H    -1.1970000    3.8749540    2.3003600  
H    -6.0330150    1.2847370    1.4496210  
H    -3.2496170    4.6320850    3.8599940  
H    -5.2891330    3.3045760    3.2203870  
