60


C    -2.6923120   -1.0108010   -1.2453270  
C    -1.7453300   -1.8093320   -0.6223870  
C    -2.4647890   -2.9678640   -0.1222500  
C    -3.8257320   -2.7978520   -0.4815120  
N    -3.9238410   -1.6039840   -1.1745210  
C    -4.8318720   -3.7066150   -0.1373340  
C    -4.4598030   -4.8218940    0.5967700  
O    -5.3960430   -5.7460380    0.9582450  
C    -3.1062080   -5.0077340    0.9778170  
O    -2.8870270   -6.1596720    1.7112140  
C    -2.1175050   -4.1034220    0.6372520  
H    -4.7761490   -1.2159090   -1.5484050  
H    -5.8709260   -3.5681310   -0.4182420  
H    -4.9307490   -6.4486660    1.4443920  
H    -1.9358560   -6.2705220    1.8566550  
H    -1.0887160   -4.2824730    0.9299030  
H    -2.5561050   -0.0669640   -1.7482110  
C     0.1701400    2.1001830   -0.1867730  
C     1.5045890    1.7490170   -0.1532950  
C     1.5404980    0.3198160   -0.2598800  
C     0.1026090   -0.0844030   -0.3668180  
N    -0.6811270    0.9558520   -0.3095190  
C    -0.3260290   -1.4739820   -0.5189430  
C     0.6986160   -2.3799070   -0.5642390  
O     0.5129680   -3.7042990   -0.7290200  
C     2.1410700   -2.0208500   -0.4065450  
O     2.9416860   -2.9561860   -0.3444480  
C     2.5552940   -0.5988310   -0.2877030  
H     2.3553920    2.4138030   -0.1032310  
H     1.4216170   -4.0843460   -0.6960080  
C     4.8147670    1.7305780    2.7090800  
C     6.0727180    1.5385150    2.2373530  
C     5.9640410    0.7279770    1.0421470  
C     4.5170550    0.4628380    0.8527560  
N     3.8794980    1.0877870    1.9028220  
C     3.9826770   -0.3022590   -0.1524060  
C     4.9351960   -0.8185170   -1.1646940  
O     4.5710250   -1.3537630   -2.1956960  
C     6.4734330   -0.6024010   -0.9363990  
O     7.2591350   -1.1198890   -1.7139750  
C     6.8990880    0.2196170    0.1948160  
H     6.9879750    1.9113030    2.6732190  
H     7.9640430    0.3808180    0.3313880  
H     4.4823160    2.2794910    3.5801930  
H     2.8770120    1.1536850    1.9993800  
C     0.1697390    4.6349620   -0.0865690  
C    -0.4312650    3.3954120   -0.1241210  
C    -1.8775620    3.7054370   -0.0854550  
C    -1.9289290    5.1891900   -0.0269470  
N    -0.7218180    5.7121810   -0.0269410  
C    -3.1691850    5.9055520    0.0256100  
C    -4.3163980    5.1795240    0.0198380  
O    -5.5450610    5.7130770    0.0620670  
C    -4.2978070    3.6757340   -0.0375010  
O    -5.3802110    3.0916870   -0.0499170  
C    -3.0016350    2.9643110   -0.0807160  
H    -3.1716580    6.9890430    0.0671160  
H    -6.1639680    4.9496890    0.0426110  
H    -3.0032670    1.8808060   -0.1077590  
H     1.2332660    4.8442010   -0.1073940  
