62


C     5.5983730   -1.9631170    1.3951250  
C     6.9471860   -1.7552560    1.4827020  
C     7.2290130   -0.5104960    0.8253730  
C     5.9900840    0.0005480    0.3568170  
N     4.9957700   -0.9088440    0.7118140  
C     5.8848780    1.2294860   -0.3142370  
C     7.0558150    1.9423980   -0.5313920  
O     7.0081210    3.1427200   -1.1783740  
C     8.3040970    1.4388820   -0.0813490  
O     9.3755110    2.2607610   -0.3749400  
C     8.4006920    0.2350500    0.5932070  
H     7.6607930   -2.4163330    1.9552470  
H     4.9360280    1.6480640   -0.6322790  
H     7.9184290    3.4828930   -1.2216870  
H    10.1892320    1.8701420   -0.0237130  
H     9.3678120   -0.1246780    0.9393980  
H     4.9894510   -2.7864320    1.7392130  
C     1.3816910   -0.9852630    3.2823480  
C     2.6781500   -0.9620800    2.8404090  
C     2.6297750   -0.8613470    1.4090960  
C     1.2627480   -0.8170910    1.0353660  
N     0.5261160   -0.8932850    2.1993410  
C     0.8219470   -0.7264570   -0.3036080  
C     1.8257650   -0.6764180   -1.2744510  
O     1.4870450   -0.5351350   -2.5823970  
C     3.2001530   -0.7348220   -0.9301780  
O     4.0455850   -0.7150300   -2.0145510  
C     3.6134990   -0.8257210    0.3954710  
H     3.5646420   -1.0068200    3.4562690  
H    -0.4802790   -0.9216940    2.2417770  
H     2.3119500   -0.5632470   -3.0991430  
H     4.9587590   -0.5461000   -1.7262410  
H     0.9882720   -1.0527940    4.2866850  
C    -2.5451670    1.9513690    0.7978580  
C    -1.3336630    1.3603360    0.6660700  
C    -1.4999170    0.2136130   -0.2063630  
C    -2.9286940    0.1974330   -0.5924490  
N    -3.5344550    1.2649070    0.0767930  
C    -3.4788130   -0.6648030   -1.4861790  
C    -2.6190630   -1.6851870   -2.0716790  
O    -3.0049620   -2.4788920   -2.9161550  
C    -1.1298000   -1.7718450   -1.5822690  
O    -0.4640300   -2.7310050   -1.9216720  
C    -0.6032520   -0.7054480   -0.6817800  
H    -0.4105760    1.6838890    1.1229800  
H    -4.5113840   -0.6133920   -1.8122310  
H    -2.8332580    2.8237390    1.3686640  
C    -5.3251290    2.9480870   -0.2405540  
C    -4.8663990    1.6848210   -0.0329410  
C    -6.0713840    0.8722460    0.2232070  
C    -7.1840230    1.8584280    0.0931520  
N    -6.7387720    3.0568470   -0.1709600  
C    -8.5575480    1.4644730    0.2566240  
C    -8.8148810    0.1746170    0.5840580  
O   -10.0465950   -0.3206040    0.7807590  
C    -7.7110720   -0.8287030    0.7655490  
O    -8.0186690   -1.9777500    1.0727510  
C    -6.3052700   -0.4091890    0.5594280  
H    -9.3475530    2.1973100    0.1358080  
H    -9.9199770   -1.2691530    1.0013150  
H    -5.5402120   -1.1707900    0.6711380  
H    -4.7375150    3.8362440   -0.4400930  
