62


C     2.1779360   -0.1372450   -0.3711670  
C     3.5427490   -0.1569350   -0.2627460  
C     3.9095650   -1.5387970    0.0219810  
C     2.7261650   -2.3067500    0.0546020  
N     1.6455470   -1.4193810   -0.1887270  
C     2.7318740   -3.6762740    0.3234360  
C     3.9630900   -4.2775510    0.5647900  
O     4.0140420   -5.6135730    0.8256090  
C     5.1554050   -3.5177770    0.5539370  
O     6.2936730   -4.2444330    0.8289400  
C     5.1385550   -2.1560760    0.2891380  
H     1.8218000   -4.2579910    0.3458680  
H     4.9452050   -5.8457810    0.9840510  
H     7.0615050   -3.6543180    0.8527130  
H     6.0587630   -1.5782280    0.3149740  
H     1.5271740    0.6798510   -0.6353290  
C     0.3098770   -1.6958830   -0.2393010  
C    -0.7348050   -0.7856280   -0.3965790  
C    -1.9137950   -1.5646490   -0.3844580  
C    -1.4212270   -2.9723240   -0.2096810  
N    -0.1152260   -3.0319640   -0.1289300  
C    -2.3087170   -4.0916510   -0.1308770  
C    -3.6332650   -3.8192540   -0.1917270  
O    -4.5912630   -4.7428400   -0.1194100  
C    -4.1810730   -2.4048050   -0.3511920  
O    -5.4171660   -2.3401880   -0.3940690  
C    -3.2731290   -1.2664220   -0.4574440  
H    -0.6656880    0.2873380   -0.4656730  
H    -1.9234970   -5.0980960   -0.0143310  
H    -5.4332490   -4.2313980   -0.1998820  
C    -3.1458100    1.0760030   -1.3864920  
C    -3.7780670    0.0764320   -0.6905160  
C    -5.0190290    0.7340140   -0.1939580  
C    -4.9207470    2.1272500   -0.7078260  
N    -3.8313090    2.3060620   -1.4107210  
C    -5.9271390    3.1172480   -0.4369420  
C    -6.9807350    2.7583390    0.3360050  
O    -7.9882240    3.5809000    0.6776250  
C    -7.1007170    1.3722530    0.8897790  
O    -8.0795110    1.1152930    1.5917950  
C    -6.0603180    0.3670910    0.5777620  
H    -5.8203160    4.1182160   -0.8403880  
H    -8.5863600    3.0353100    1.2344340  
H    -6.2108220   -0.6307650    0.9690480  
H    -2.2163820    0.9937030   -1.9349370  
C     5.7175530    0.9431740   -0.9384190  
C     4.4354480    0.9770230   -0.4190300  
C     4.1630860    2.3661010   -0.1094030  
C     5.3137960    3.1098510   -0.4676800  
N     6.2414250    2.2140950   -0.9681460  
C     5.4090940    4.4952700   -0.2926820  
C     4.3166910    5.1452680    0.2600840  
O     4.3520840    6.4947130    0.4474590  
C     3.1592070    4.4151690    0.6421920  
O     2.1665480    5.1999680    1.1933650  
C     3.0727540    3.0460340    0.4685090  
H     7.1469990    2.4596430   -1.3367250  
H     6.2902100    5.0657400   -0.5679660  
H     3.5006040    6.7546840    0.8399800  
H     1.3947100    4.6534930    1.4031200  
H     2.1851210    2.5079230    0.7921620  
H     6.2740480    0.1092690   -1.3405570  
