60


C     3.3022310   -1.2266910   -1.3944860  
C     4.2640840   -0.5954800   -0.5974070  
C     5.2076970   -1.6408270   -0.2200930  
C     4.7402330   -2.8471450   -0.7959120  
N     3.5871350   -2.5497320   -1.5113020  
C     5.3627160   -4.0847780   -0.6179760  
C     6.5028430   -4.1132120    0.1725390  
O     7.1605800   -5.2856230    0.3762400  
C     6.9874520   -2.9206310    0.7690030  
O     8.1262830   -3.1021550    1.5249380  
C     6.3605180   -1.7018880    0.5879140  
H     3.0722970   -3.2048990   -2.0807270  
H     4.9930300   -5.0012460   -1.0659480  
H     7.9338360   -5.0899020    0.9343890  
H     8.4657350   -2.2411290    1.8127030  
H     6.7732620   -0.8024100    1.0280740  
H     2.4727530   -0.7891250   -1.9293010  
C     0.8542600    2.2161920   -0.0146100  
C     1.6646660    1.0964490   -0.1242730  
C     3.0233810    1.5274050   -0.1794160  
C     2.9918130    2.9994610   -0.0685260  
N     1.6675180    3.3520330   -0.0030950  
C     4.0846370    3.8133060   -0.0368020  
C     5.3896720    3.1951840   -0.0819030  
O     6.4455780    3.8110270   -0.0428310  
C     5.4687000    1.6225110   -0.1678710  
O     6.5781100    1.1185820   -0.1381150  
C     4.2170050    0.8192990   -0.2964130  
H     1.2941280    0.0858580   -0.1168160  
H     4.0199530    4.8942990    0.0324590  
H     1.3074920    4.2884590    0.1153530  
C    -2.1855480   -0.9329030   -0.0459690  
C    -3.3467450   -0.2135880    0.0762270  
C    -2.8994910    1.1855450    0.1469430  
C    -1.4215030    1.1050650    0.0452930  
N    -1.0286000   -0.1421670   -0.0658120  
C    -0.5822920    2.3033140    0.0890980  
C    -1.2612610    3.4969780    0.2376090  
O    -0.6509830    4.7052200    0.2918370  
C    -2.7249180    3.5940170    0.3670870  
O    -3.2234750    4.7227630    0.5051950  
C    -3.5302940    2.3662660    0.3269140  
H    -1.3925820    5.3465990    0.4096770  
H    -4.6025070    2.4752480    0.4576000  
H    -2.0901220   -2.0069950   -0.1497490  
C    -4.6931480   -0.7211560    0.1263430  
C    -5.1464360   -1.9483920    0.5453040  
C    -6.5726250   -1.9863500    0.3754120  
C    -6.9526850   -0.6699900   -0.1926870  
N    -5.7839110    0.0782360   -0.2635910  
C    -8.2117960   -0.3265990   -0.5539820  
C    -9.2844170   -1.2999140   -0.3445690  
O   -10.4477810   -1.0756500   -0.6388350  
C    -8.9126120   -2.6859250    0.2983140  
O    -9.8002730   -3.5040720    0.4897390  
C    -7.5118470   -2.9413960    0.6292290  
H    -4.5376130   -2.7246250    0.9865490  
H    -8.4719940    0.6386170   -0.9779400  
H    -7.2629350   -3.9084810    1.0554610  
H    -5.6797800    0.8456180   -0.9125370  
