62


C    -4.5269990   -1.2637440    2.5313360  
C    -5.7455690   -1.8653010    2.6647030  
C    -6.4215980   -1.7466470    1.4018830  
C    -5.5505750   -1.0538230    0.5250030  
N    -4.3873710   -0.7570980    1.2367590  
C    -5.8749640   -0.7889460   -0.8112150  
C    -7.1147390   -1.2148170   -1.2638900  
O    -7.4818810   -0.9792730   -2.5562830  
C    -8.0069620   -1.8987980   -0.3961600  
O    -9.1994890   -2.2579640   -0.9939400  
C    -7.6753630   -2.1694790    0.9185370  
H    -6.1253190   -2.3332270    3.5627320  
H    -5.2060680   -0.2730250   -1.4908210  
H    -8.3788680   -1.3374150   -2.6718320  
H    -9.7734170   -2.6859540   -0.3416250  
H    -8.3704110   -2.7041350    1.5630130  
H    -3.7305800   -1.1160070    3.2467320  
C    -1.9861410   -0.5816720    0.7110590  
C    -3.2535700   -0.0931680    0.7460430  
C    -3.2021720    1.2815160    0.2617850  
C    -1.7812450    1.5353840   -0.0733800  
N    -1.0816930    0.3817650    0.2389100  
C    -1.3195220    2.7066050   -0.5996020  
C    -2.2722310    3.7937580   -0.8229300  
O    -1.9552960    4.8655680   -1.3130820  
C    -3.7697740    3.5591340   -0.4103740  
O    -4.5701950    4.4701710   -0.5329500  
C    -4.1523490    2.2354690    0.1048630  
H    -0.2983010    2.8421400   -0.9449960  
H    -5.1975740    2.0641260    0.3409350  
H    -1.6197300   -1.5544200    1.0074470  
C     1.3799840   -2.6786180   -1.8061530  
C     0.3250860   -1.9260140   -1.3607940  
C     0.8761630   -0.8939960   -0.5292670  
C     2.2809420   -1.0744010   -0.5035310  
N     2.5548050   -2.1763550   -1.2803840  
C     3.1832790   -0.1955190    0.1490420  
C     2.5919270    0.8980010    0.8099480  
O     3.3420940    1.7629820    1.5217260  
C     1.1817540    1.0781520    0.8304660  
O     0.7590470    2.1243300    1.6240450  
C     0.3248410    0.1974590    0.1773640  
H    -0.7154190   -2.0799860   -1.6084820  
H     3.4880460   -2.4631030   -1.5365830  
H     2.7271950    2.4297860    1.8838030  
H     0.0169810    2.5977710    1.2025800  
H     1.3946400   -3.5421590   -2.4555160  
C     4.6190040   -0.4185040    0.1126390  
C     5.2843000   -1.6212210    0.0844620  
C     6.6873880   -1.2948660    0.0075420  
C     6.7088430    0.2050030   -0.0285470  
N     5.5128240    0.7093630    0.0398840  
C     7.9452550    0.9378820   -0.1294000  
C     9.0952230    0.2251460   -0.1649310  
O    10.3182960    0.7661540   -0.2487830  
C     9.1054120   -1.2877300   -0.1112170  
O    10.2060850   -1.8399110   -0.1513430  
C     7.8359920   -2.0126860   -0.0248260  
H     4.8666820   -2.6107700    0.2122900  
H     7.9335010    2.0214810   -0.1634880  
H    10.9367110    0.0004180   -0.2531150  
H     7.8829530   -3.0970510    0.0028790  
