60


C    -5.2756350   -0.8796240    0.1297730  
C    -6.0541740   -1.9028060   -0.3497590  
C    -7.4169190   -1.5489620   -0.0764440  
C    -7.4020760   -0.2833100    0.5664620  
N    -6.0811370    0.1107730    0.6753800  
C    -8.5697510    0.3738270    0.9723620  
C    -9.7765060   -0.2610400    0.7250990  
O   -10.9427820    0.3302520    1.1040520  
C    -9.8122340   -1.5270550    0.0766630  
O   -11.0883910   -2.0210320   -0.0991660  
C    -8.6578660   -2.1711060   -0.3240640  
H    -5.6922460   -2.7823140   -0.8639990  
H    -5.7426250    0.9055770    1.1964150  
H    -8.5631480    1.3414270    1.4630740  
H   -11.6692440   -0.2601760    0.8389370  
H   -11.0501930   -2.8727640   -0.5589170  
H    -8.7093120   -3.1383090   -0.8194820  
C    -3.0003560   -1.6756110    0.7254240  
C    -1.7019780   -1.3212980    0.5336750  
C    -1.7030430   -0.0822810   -0.2056470  
C    -3.1229000    0.2573710   -0.4496500  
N    -3.8767100   -0.7534560    0.1525900  
C    -3.5566760    1.3527520   -1.1218370  
C    -2.5571850    2.2795020   -1.6438210  
O    -2.8414860    3.3140080   -2.2234930  
C    -1.0355960    1.9313890   -1.4469600  
O    -0.1931440    2.6447130   -1.9596970  
C    -0.6945940    0.7225770   -0.6642960  
H    -0.8356640   -1.8531480    0.8973340  
H    -4.6049560    1.5726260   -1.2903910  
H    -3.4149940   -2.5255680    1.2504210  
C     1.2231150   -0.8226030   -1.0161480  
C     2.5563740   -0.8855620   -0.7618850  
C     2.9219200    0.3154910   -0.0525520  
C     1.6804630    1.1094310    0.0696600  
N     0.6615710    0.3564920   -0.5248920  
C     1.5936590    2.3221130    0.6688720  
C     2.8142600    2.9112740    1.2097480  
O     2.8453320    4.0213070    1.7157870  
C     4.1337140    2.0643890    1.1672500  
O     5.0917210    2.4662610    1.7986860  
C     4.1286260    0.7649620    0.4393630  
H     3.2240580   -1.6747520   -1.0703010  
H     0.6778280    2.8981060    0.7278980  
H     0.5903290   -1.5225920   -1.5450450  
C     5.3632030    0.0085030    0.3271280  
C     5.5471640   -1.3475270    0.4114820  
C     6.9626100   -1.5665970    0.2197950  
C     7.5171900   -0.1910320    0.0020930  
N     6.5944090    0.7197400    0.0705070  
C     8.9203510    0.0218040   -0.2534220  
C     9.7288220   -1.0632150   -0.2667980  
O    11.0524930   -1.0181610   -0.4818970  
C     9.2000330   -2.4592340   -0.0346930  
O    10.0140520   -3.3831380   -0.0695260  
C     7.7659780   -2.6556730    0.2085630  
H     4.8097890   -2.1000400    0.6524060  
H     9.2956520    1.0261960   -0.4141690  
H    11.3527840   -1.9532340   -0.4295930  
H     7.4227080   -3.6746540    0.3597230  
