60


C    -3.9403610   -0.8013190    2.0769480  
C    -4.0962970   -0.1976770    0.8381920  
C    -5.1887100   -0.8973250    0.1876570  
C    -5.6279210   -1.9073670    1.0791800  
N    -4.8509860   -1.8205290    2.2197090  
C    -6.6617590   -2.8019870    0.7744770  
C    -7.2708910   -2.6708420   -0.4624720  
O    -8.2914200   -3.5039160   -0.8144730  
C    -6.8440450   -1.6660010   -1.3717830  
O    -7.5482820   -1.6566240   -2.5613570  
C    -5.8198890   -0.7916900   -1.0678350  
H    -4.9766200   -2.3740800    3.0528630  
H    -6.9970310   -3.5713720    1.4624180  
H    -8.5967370   -3.2227260   -1.6947110  
H    -7.3202030   -0.8586490   -3.0615000  
H    -5.5356960   -0.0132300   -1.7677020  
H    -3.2868920   -0.5298000    2.8945410  
C     0.2037870    0.4048850    1.1049870  
C     0.3347600    1.6632330    0.5550800  
C    -1.0089200    2.0685360    0.1411560  
C    -1.9147240    0.9699920    0.5443750  
N    -1.1104730    0.0154460    1.1460260  
C    -3.2682570    0.9034940    0.3388510  
C    -3.8485680    2.0373570   -0.4115290  
O    -5.0345080    2.1185800   -0.6898920  
C    -2.9001060    3.1996730   -0.8895310  
O    -3.3949670    4.1095780   -1.5401970  
C    -1.4848250    3.1395440   -0.5546730  
H    -0.8576760    3.9621410   -0.8697440  
H     0.9822690   -0.2525540    1.4648930  
H    -1.4386440   -0.9084780    1.3888540  
C     4.3113220   -0.0331870    0.0702320  
C     5.0897310    1.0932950   -0.0468860  
C     4.1824590    2.2130390    0.0715140  
C     2.8372900    1.5827250    0.2352280  
N     2.9201410    0.2872140    0.2172130  
C     1.6080390    2.3609800    0.3958180  
C     1.7877700    3.7187530    0.4280680  
O     0.7939810    4.6004470    0.6548360  
C     3.1168670    4.3750500    0.2527660  
O     3.1556070    5.6096300    0.2961530  
C     4.3228890    3.5557600    0.0635550  
H     6.1692420    1.1572700   -0.0806650  
H     1.2289680    5.4829430    0.6157100  
H     5.2659900    4.0788860   -0.0618380  
C     7.5093060   -2.0490260   -2.1384570  
C     7.3147220   -3.3236360   -1.7175900  
C     6.2007400   -3.3041560   -0.7918550  
C     5.7670620   -1.8928250   -0.6969500  
N     6.6147510   -1.1807280   -1.5122320  
C     4.7002120   -1.4297190    0.0407020  
C     3.9663560   -2.4461020    0.8334100  
O     3.0743070   -2.1812460    1.6191220  
C     4.3950330   -3.9560820    0.7067040  
O     3.7375690   -4.7973830    1.2973850  
C     5.5601990   -4.2915720   -0.1100330  
H     7.8780710   -4.1949070   -2.0179820  
H     5.8541870   -5.3349640   -0.1700330  
H     8.2338120   -1.6565640   -2.8394290  
H     6.4449970   -0.2210800   -1.7791320  
