64


C    -4.3084750   -0.0959990    0.0771210  
C    -4.6969130   -1.2930730    0.6865380  
C    -6.0102210   -1.5997180    0.2370000  
C    -6.3967440   -0.5565410   -0.6549540  
N    -5.3557630    0.3333880   -0.7243280  
C    -7.6409500   -0.5368350   -1.2970910  
C    -8.5086620   -1.5855710   -1.0387510  
O    -9.7311470   -1.6189540   -1.6362410  
C    -8.1388760   -2.6387250   -0.1508060  
O    -9.1163320   -3.6026890   -0.0035440  
C    -6.9144180   -2.6576030    0.4830040  
H    -4.0732520   -1.9265260    1.3012980  
H    -5.2566500    1.1337430   -1.3365000  
H    -7.9392050    0.2537210   -1.9773380  
H   -10.1803370   -2.4279690   -1.3353870  
H    -8.7980690   -4.3012780    0.5871210  
H    -6.6538030   -3.4719450    1.1561310  
C    -1.0931150   -0.1318500    3.0659050  
C    -0.2067350    0.6920780    2.4442470  
C    -0.8132390    1.1359790    1.2122560  
C    -2.1299440    0.4883920    1.1577820  
N    -2.2261950   -0.3120340    2.2826920  
C    -3.0753170    0.6535010    0.1680430  
C    -2.7440650    1.7020450   -0.8106300  
O    -3.5209570    2.0978810   -1.6701150  
C    -1.3332980    2.4110200   -0.7568590  
O    -1.1713240    3.3147260   -1.5806100  
C    -0.3498200    2.0097620    0.2377300  
H     0.7681530    0.9779510    2.8059310  
H    -1.0146620   -0.6311080    4.0225620  
H    -3.1151350   -0.6446260    2.6292600  
C     3.5888020   -0.1112750    0.5376000  
C     2.2512770    0.1878740    0.4428090  
C     2.1418230    1.6180930    0.3630000  
C     3.4658640    2.1324030    0.3872650  
N     4.3299000    1.0575550    0.5001180  
C     3.7614320    3.4912210    0.2640950  
C     2.6865830    4.3505570    0.0887920  
O     2.8958050    5.6869110   -0.0510910  
C     1.3512340    3.8704010    0.0472550  
O     0.4140790    4.8640730   -0.1145950  
C     1.0404970    2.5149310    0.2148390  
H     1.4539770   -0.5380740    0.3960840  
H     5.3244010    1.1105580    0.6585440  
H     4.7741090    3.8807550    0.2742550  
H     2.0105690    6.0715580   -0.2039240  
H    -0.2387070    4.5341590   -0.7770560  
C     3.7810260   -2.3515270    1.5627810  
C     4.6063470   -3.4363370    1.4732740  
C     5.6220930   -3.1207360    0.5071130  
C     5.3528970   -1.8130020    0.0298060  
N     4.2179430   -1.3485700    0.6976440  
C     6.1307680   -1.1966910   -0.9594930  
C     7.2151860   -1.9053750   -1.4552290  
O     8.0063700   -1.3474110   -2.4175770  
C     7.5105350   -3.2078690   -0.9752480  
O     8.6231800   -3.7809790   -1.5619980  
C     6.7290450   -3.8193440   -0.0121210  
H     4.5107860   -4.3535480    2.0382760  
H     5.9075480   -0.2147960   -1.3612180  
H     8.6900360   -2.0014990   -2.6430020  
H     8.7425840   -4.6789720   -1.2194410  
H     6.9661620   -4.8240440    0.3327550  
H     2.9151890   -2.1700150    2.1825120  
