60


C    -3.1669370    0.8847040   -1.8278170  
C    -4.4425280    1.3236860   -2.0120640  
C    -5.2861970    0.5902960   -1.1050470  
C    -4.4578130   -0.3110180   -0.3942500  
N    -3.1426290   -0.1217960   -0.8507090  
C    -4.9536760   -1.1372980    0.6189460  
C    -6.3123340   -1.0752280    0.8930210  
O    -6.8406690   -1.8710440    1.8667060  
C    -7.1579270   -0.1928050    0.1745300  
O    -8.4818610   -0.2437920    0.5602930  
C    -6.6600180    0.6386850   -0.8139790  
H    -4.7558940    2.0726700   -2.7266930  
H    -4.3371880   -1.8347220    1.1707830  
H    -7.7985370   -1.7043170    1.8896050  
H    -9.0087810    0.3359460   -0.0093490  
H    -7.3190570    1.3241500   -1.3429510  
H    -2.2530130    1.1526650   -2.3358130  
C     0.8171420    1.4645780    0.2077150  
C    -0.5103750    1.3216190   -0.1285010  
C    -0.8102760   -0.0803990   -0.1689610  
C     0.4433340   -0.7807340    0.1697450  
N     1.3801580    0.1887070    0.3868770  
C     0.5847690   -2.1458180    0.2558490  
C    -0.6057040   -2.9595470    0.0636450  
O    -0.6385820   -4.1693460    0.2388380  
C    -1.9418620   -2.2470390   -0.3704850  
O    -2.8845630   -2.9517220   -0.6757230  
C    -1.9814690   -0.7649730   -0.4176840  
H    -1.1894220    2.1391230   -0.3025690  
H     2.3564350    0.0323060    0.5951530  
C    -0.3040880    5.7029790   -0.1877290  
C     0.8633350    6.3245200    0.0875490  
C     1.8135260    5.2518140    0.3569550  
C     1.0105850    3.9979400    0.1924330  
N    -0.2175870    4.2729580   -0.1257070  
C     1.6035050    2.6682010    0.3793780  
C     2.9363570    2.6649920    0.7110840  
O     3.6547530    1.5461630    0.9245150  
C     3.7509120    3.9080020    0.8768240  
O     4.9375870    3.7664000    1.1772790  
C     3.1198800    5.2213420    0.6809990  
H     1.0712100    7.3850690    0.1087000  
H     4.5703590    1.8592870    1.1194320  
H     3.7449190    6.0998670    0.8081190  
H    -1.2594220    6.1460610   -0.4398900  
C     1.9536460   -3.7732830    1.5583400  
C     3.2348960   -4.2044640    1.6414910  
C     4.0020030   -3.4843800    0.6501600  
C     3.0408800   -2.5865390   -0.0409210  
N     1.8072560   -2.7787030    0.5746470  
C     3.3727380   -1.7768510   -1.0822010  
C     4.7643950   -1.7450050   -1.5258050  
O     5.1513390   -1.0348640   -2.4419950  
C     5.8027150   -2.6594210   -0.7810710  
O     6.9745510   -2.6249190   -1.1234640  
C     5.3137910   -3.5206850    0.2973680  
H     3.6134700   -4.9555790    2.3194490  
H     2.6567220   -1.1643360   -1.6177710  
H     6.0310450   -4.1752930    0.7833380  
H     1.0830970   -4.0833050    2.1160100  
