60


C    -6.5798080    1.9118190   -1.2526920  
C    -5.7191960    1.0914120   -0.5389720  
C    -6.5243920   -0.0133260   -0.0537100  
C    -7.8466220    0.2038120   -0.5140410  
N    -7.8430370    1.3842960   -1.2387620  
C    -8.9096330   -0.6555170   -0.2181320  
C    -8.6359700   -1.7620180    0.5714460  
O    -9.6324470   -2.6330410    0.8864300  
C    -7.3227980   -1.9875390    1.0652290  
O    -7.2146700   -3.1144960    1.8516510  
C    -6.2771400   -1.1317070    0.7691760  
H    -8.6386840    1.7709150   -1.7235250  
H    -9.9212520   -0.4856170   -0.5717730  
H    -9.2483110   -3.3266880    1.4505110  
H    -6.3039890   -3.2129530    2.1669480  
H    -5.2892340   -1.3182880    1.1828280  
H    -6.3578170    2.8153520   -1.8024220  
C    -3.6872700    2.5587570   -0.1522990  
C    -4.3085560    1.3608660   -0.3470970  
C    -3.1884480    0.3891170   -0.4280370  
C    -1.9659000    1.2091550   -0.2346040  
N    -2.2744210    2.4664500   -0.0845390  
C    -0.6268690    0.6197870   -0.2421980  
C    -0.5808120   -0.7305480   -0.4908180  
O     0.5580800   -1.4541210   -0.5419640  
C    -1.7950580   -1.5586920   -0.7393480  
O    -1.6254930   -2.7622100   -0.9519270  
C    -3.1231450   -0.9258470   -0.7061770  
H     0.2659810   -2.3743810   -0.7474790  
H    -3.9848250   -1.5567010   -0.8983580  
H    -4.1505560    3.5294440   -0.0291580  
C     0.5553640    1.4316260   -0.0157380  
C     0.6686320    2.7760260    0.2304010  
C     2.0669310    3.0829960    0.3604070  
C     2.7958470    1.8045560    0.1926240  
N     1.8444110    0.8544590   -0.0150140  
C     4.1718890    1.6595070    0.2405860  
C     4.9410370    2.9103420    0.3541780  
O     6.1616880    2.9719180    0.2529990  
C     4.1802910    4.2604120    0.6162540  
O     4.8417030    5.2644030    0.8257700  
C     2.7226840    4.2560240    0.5841560  
H    -0.1571370    3.4654360    0.2962360  
H     2.2067740    5.1992810    0.7328750  
H     2.0232930   -0.0953950   -0.3095920  
C     4.8409700    0.3747630    0.1531620  
C     4.3501210   -0.9062630    0.3368640  
C     5.4370260   -1.8273790    0.1643490  
C     6.6319910   -0.9999160   -0.1389170  
N     6.2017720    0.3070690   -0.1433020  
C     7.8738000   -1.5033140   -0.3582890  
C     8.0581000   -2.9500630   -0.2983430  
O     9.1376710   -3.4926850   -0.4835700  
C     6.8042940   -3.8467970    0.0188820  
O     6.9437880   -5.0612090    0.0692280  
C     5.5205620   -3.1869810    0.2393340  
H     3.3560890   -1.1831050    0.6534200  
H     8.7374240   -0.8829190   -0.5764860  
H     4.6632650   -3.8154550    0.4621010  
H     6.7677980    1.1462630   -0.1895620  
