62


C    -3.3262070   -1.7638640    0.1106630  
C    -4.3051860   -0.8148840   -0.0947020  
C    -3.6036690    0.4212590   -0.3826540  
C    -2.2147290    0.1416300   -0.3449980  
N    -2.0796190   -1.1980620   -0.0508560  
C    -1.2112630    1.1222890   -0.5340820  
C    -1.6754430    2.4221590   -0.7637180  
O    -0.7874540    3.4367930   -0.9836440  
C    -3.0619320    2.7183770   -0.7964690  
O    -3.3317190    4.0519450   -1.0363700  
C    -4.0263340    1.7468950   -0.6132220  
H    -1.1982280   -1.6590180    0.1168760  
H    -1.3103630    4.2403510   -1.1551030  
H    -4.2895450    4.1861180   -1.0915930  
H    -5.0827570    2.0003090   -0.6378230  
H    -3.4313150   -2.8149360    0.3381440  
C     0.8044240   -0.3333410   -1.0555380  
C     0.2115110    0.7667420   -0.5127710  
C     1.3237430    1.4600020    0.1688930  
C     2.5250130    0.6104740   -0.0926120  
N     2.1993710   -0.4277230   -0.8099390  
C     3.8602860    0.9432480    0.4155750  
C     3.9223780    2.0895510    1.1843590  
O     5.0189470    2.5902060    1.7476740  
C     2.7066070    2.9343500    1.4748130  
O     2.8726820    3.9341070    2.1743380  
C     1.3937180    2.5646310    0.9294150  
H     4.7110770    3.4022850    2.2166070  
H     0.5557210    3.2170900    1.1425730  
H     0.3381950   -1.0992220   -1.6647730  
C     5.0031200    0.1001560    0.1179940  
C     5.0497910   -1.0260390   -0.6655720  
C     6.4206280   -1.4750200   -0.6287040  
C     7.1119660   -0.4822730    0.2546230  
N     6.2948740    0.4270760    0.6862200  
C     8.5205820   -0.5864440    0.5484480  
C     9.2017920   -1.6160720   -0.0048340  
O    10.5122520   -1.8423380    0.1758970  
C     8.5308530   -2.6325360   -0.9007380  
O     9.2390510   -3.5329640   -1.3545020  
C     7.0975080   -2.5077190   -1.1849570  
H     4.2265150   -1.4780370   -1.1936790  
H     8.9977480    0.1449370    1.1911760  
H    10.7047450   -2.6521250   -0.3488390  
H     6.6502290   -3.2564020   -1.8316390  
C    -6.9387080   -2.7572510    2.9941630  
C    -5.8660470   -2.2525730    2.3064750  
C    -6.3690680   -1.6985510    1.0797190  
C    -7.7754580   -1.8956790    1.0854360  
N    -8.0924260   -2.5460410    2.2611880  
C    -8.6106490   -1.4613220    0.0489340  
C    -8.0070060   -0.8165210   -1.0184120  
O    -8.7645060   -0.3831400   -2.0703780  
C    -6.6049240   -0.6086530   -1.0448280  
O    -6.1606610    0.0324840   -2.1898240  
C    -5.7624390   -1.0325240   -0.0181170  
H    -4.8383720   -2.2602440    2.6401510  
H    -9.0210220   -2.8176720    2.5426760  
H    -9.6849780   -1.6148280    0.0493790  
H    -8.1471820   -0.0210460   -2.7296410  
H    -5.1918320   -0.0317690   -2.2259400  
H    -6.9819380   -3.2522790    3.9541320  
