62


C     3.5470490   -1.4168580   -1.5015760  
C     3.9745510   -2.7043850   -1.3748460  
C     5.0944600   -2.7021980   -0.4724760  
C     5.3159420   -1.3581320   -0.0826900  
N     4.3577640   -0.5699370   -0.7360000  
C     6.2948850   -1.0046560    0.8515550  
C     7.0837270   -2.0206010    1.3741130  
O     8.0580230   -1.7186080    2.2842830  
C     6.8893890   -3.3656680    0.9777210  
O     7.7506070   -4.2629850    1.5819060  
C     5.9054400   -3.7147260    0.0680510  
H     3.5366450   -3.5653890   -1.8614440  
H     6.4700550    0.0146930    1.1679400  
H     8.4962520   -2.5536100    2.5217950  
H     7.5686020   -5.1551460    1.2519860  
H     5.7570020   -4.7563730   -0.2105870  
H     2.7186100   -1.0039740   -2.0542930  
C     0.7242220    1.7479480   -0.2985880  
C     1.2400710    3.0137700   -0.1991090  
C     2.6719880    2.8726330   -0.3453230  
C     2.8755050    1.3991650   -0.5023410  
N     1.7510420    0.7534440   -0.4779580  
C     4.2067900    0.8225410   -0.6596520  
C     5.2472610    1.7053630   -0.7386240  
O     6.5229950    1.3422610   -0.9560910  
C     5.0595440    3.1804630   -0.5837370  
O     6.0664590    3.8897260   -0.6636540  
C     3.7128810    3.7320720   -0.3756790  
H     0.6970750    3.9469700   -0.1336810  
H     7.0284020    2.1869460   -0.9489220  
H     3.6270310    4.8088140   -0.2679210  
C    -2.4833410    3.2374270    2.2911540  
C    -3.4912550    2.4229060    1.8406290  
C    -2.9373040    1.6039810    0.8027430  
C    -1.5771410    1.9711320    0.6679460  
N    -1.3338050    2.9778310    1.5750830  
C    -0.6662110    1.3299310   -0.2070970  
C    -1.1942780    0.2766550   -0.9725990  
O    -0.4326390   -0.3473660   -1.9023130  
C    -2.5545100   -0.1064280   -0.8574710  
O    -2.8983360   -1.1219350   -1.7189090  
C    -3.4494830    0.5357210    0.0107810  
H    -4.5005200    2.3979630    2.2231220  
H    -0.4162110    3.3472020    1.7746010  
H    -0.9994190   -1.0112450   -2.3358720  
H    -3.8659680   -1.2548960   -1.7032570  
H    -2.4911360    3.9926990    3.0639450  
C    -4.8488320    0.1470400    0.0658820  
C    -5.9713470    0.9039980    0.2581610  
C    -7.1276650    0.0485700    0.1893040  
C    -6.6107180   -1.3157870   -0.0516250  
N    -5.2175560   -1.2068260   -0.2040320  
C    -7.3783200   -2.4258960   -0.1089800  
C    -8.8303430   -2.2741440    0.0395030  
O    -9.5973310   -3.2216570   -0.0014780  
C    -9.4069130   -0.8262090    0.2399470  
O   -10.6158050   -0.6840630    0.3472770  
C    -8.4633600    0.2886290    0.3041240  
H    -5.9872910    1.9783030    0.3710700  
H    -6.9827620   -3.4229980   -0.2779440  
H    -8.8682860    1.2827760    0.4667510  
H    -4.6380710   -1.9428330    0.1896610  
