60


C    -3.1583510   -1.7744170   -0.6671570  
C    -1.9976340   -2.5046670   -0.3893390  
C    -2.4486420   -3.8459490   -0.0359800  
C    -3.8621220   -3.8435140   -0.1334750  
N    -4.2482930   -2.5713400   -0.5327990  
C    -4.6639850   -4.9458220    0.1666740  
C    -4.0246210   -6.1007830    0.5956410  
O    -4.7533270   -7.2090790    0.9026330  
C    -2.6137650   -6.1257870    0.7219000  
O    -2.1170290   -7.3346390    1.1684230  
C    -1.8289270   -5.0263270    0.4223730  
H    -5.2009980   -2.2686100   -0.6706850  
H    -5.7459340   -4.9260560    0.0863700  
H    -4.1256020   -7.9000020    1.1776630  
H    -1.1496670   -7.2946090    1.1998170  
H    -0.7514100   -5.0849500    0.5174270  
H    -3.2484460   -0.7332580   -0.9312300  
C    -0.7531500    1.6710790   -0.1265670  
C     0.6224920    1.5462320   -0.1735770  
C     0.8891080    0.1491490   -0.2940120  
C    -0.4627810   -0.4873150   -0.3146250  
N    -1.4018330    0.4018730   -0.1880670  
C    -0.6632030   -1.9379670   -0.4512650  
C     0.4948060   -2.6458390   -0.6789680  
O     0.5061520   -3.9718620   -0.9635870  
C     1.8362480   -2.0508300   -0.6885320  
O     2.7881180   -2.8081760   -0.9734500  
C     2.0370170   -0.6078620   -0.3778720  
H     1.3448770    2.3480350   -0.1895930  
H     1.4539000   -4.1789260   -1.1235350  
C    -1.5329660    2.8705810   -0.0533270  
C    -1.0777450    4.1648850    0.0856330  
C    -2.2518460    4.9938180    0.1015200  
C    -3.3869690    4.0242390   -0.0436840  
N    -2.9689370    2.7966690   -0.1328170  
C    -4.7558230    4.4729580   -0.0752000  
C    -4.9854380    5.8027700    0.0342050  
O    -6.2031020    6.3608770    0.0225170  
C    -3.8612850    6.8032750    0.1830390  
O    -4.1750370    7.9907500    0.2742980  
C    -2.4748980    6.3276590    0.2103640  
H    -0.0538100    4.5002410    0.1757340  
H    -5.5614280    3.7551380   -0.1809950  
H    -6.0456430    7.3274280    0.1186210  
H    -1.6931680    7.0736930    0.3151220  
C     3.3763700   -0.0935720   -0.1878450  
C     3.7741510    1.0675250    0.4516000  
C     5.2069290    1.1153270    0.4312050  
C     5.6517020   -0.1165160   -0.2677930  
N     4.5052750   -0.7887180   -0.6235120  
C     6.9524060   -0.4462030   -0.4765190  
C     7.9880310    0.4611010    0.0071920  
O     9.1828480    0.2488860   -0.1343570  
C     7.5385250    1.7749430    0.7460360  
O     8.3895790    2.5492020    1.1567670  
C     6.1042990    2.0212220    0.9160880  
H     3.1262820    1.7765550    0.9423220  
H     7.2617830   -1.3524530   -0.9874430  
H     5.8045310    2.9293960    1.4304480  
H     4.4280270   -1.7290310   -0.9920180  
