60


C     3.0962630   -2.4993800    0.8120520  
C     3.7335290   -1.3403320    0.3997380  
C     5.0992300   -1.7124050    0.0820730  
C     5.2142940   -3.1010690    0.3328760  
N     3.9771940   -3.5445610    0.7733510  
C     6.3961330   -3.8195030    0.1227730  
C     7.4903300   -3.1196610   -0.3610670  
O     8.6653850   -3.7681050   -0.5834730  
C     7.3908990   -1.7296210   -0.6412100  
O     8.5546120   -1.1813380   -1.1345640  
C     6.2189170   -1.0254540   -0.4303030  
H     3.7653330   -4.4907900    1.0517160  
H     6.4808310   -4.8845020    0.3119560  
H     9.2936210   -3.1201340   -0.9473420  
H     8.4027940   -0.2613930   -1.3980190  
H     6.1642080    0.0289240   -0.6895810  
H     2.0828720   -2.6351390    1.1613090  
C     3.1206510   -0.0372580    0.3362130  
C     1.8047330    0.3212820    0.1554320  
C     1.7113110    1.7519810    0.2043060  
C     3.0922470    2.2409830    0.4330290  
N     3.9055820    1.1182750    0.4548570  
C     3.4448490    3.5421760    0.5691610  
C     2.4024110    4.5555780    0.4472400  
O     2.6265600    5.7527880    0.5309530  
C     0.9298430    4.0752160    0.1964980  
O     0.0404340    4.9104080    0.1922380  
C     0.6631180    2.6286160    0.0470930  
H     0.9967270   -0.3607930   -0.0628700  
H     4.4668670    3.8713740    0.7310650  
H     4.8174600    1.1096560    0.8885430  
C    -2.2531720    0.0382940    2.1991630  
C    -1.1523220    0.7300660    1.8210310  
C    -1.4554580    1.3810710    0.5621170  
C    -2.8547080    1.0204730    0.2422340  
N    -3.2890180    0.1661340    1.2606530  
C    -3.5602220    1.5123890   -0.8089230  
C    -2.8823180    2.4186190   -1.7277200  
O    -3.4373550    2.9378350   -2.6835430  
C    -1.3640980    2.7232630   -1.4793880  
O    -0.7403940    3.3165670   -2.3386020  
C    -0.7205390    2.2171660   -0.2329170  
H    -0.2158030    0.7837340    2.3549370  
H    -4.6075650    1.2937240   -0.9832610  
H    -2.4201740   -0.5793040    3.0712420  
C    -5.3290510   -0.4028010    2.5464860  
C    -4.5685690   -0.3797670    1.4191480  
C    -5.3017990   -1.2067260    0.4403460  
C    -6.5238830   -1.6214950    1.1889550  
N    -6.5256050   -1.1537620    2.4078200  
C    -7.5341070   -2.4429860    0.5780090  
C    -7.3212610   -2.8772400   -0.6882220  
O    -8.1727050   -3.6610750   -1.3684220  
C    -6.0774630   -2.5138510   -1.4480900  
O    -5.9460670   -2.9546410   -2.5875470  
C    -5.0662410   -1.6376470   -0.8121730  
H    -8.4232440   -2.7112540    1.1377030  
H    -7.7561400   -3.8068690   -2.2457010  
H    -4.1969230   -1.3731560   -1.4056410  
H    -5.1129630    0.0739410    3.4950930  
