62


C     5.8824450   -2.9176370   -2.0653520  
C     5.0467420   -1.8877010   -1.7243540  
C     5.6940780   -1.1350370   -0.6873570  
C     6.9454990   -1.7645290   -0.4498270  
N     7.0274790   -2.8526580   -1.2928800  
C     7.8830270   -1.2890050    0.4731190  
C     7.5599260   -0.1281800    1.1558890  
O     8.4308860    0.4029020    2.0588970  
C     6.3273980    0.5381900    0.9305100  
O     6.1514570    1.6628390    1.7132790  
C     5.3635940    0.0443590    0.0405960  
H     4.0735670   -1.7007330   -2.1517140  
H     7.8185260   -3.4724700   -1.3646290  
H     8.8359340   -1.7769190    0.6519960  
H     7.9971930    1.2122340    2.3905150  
H     5.8669980    2.3971320    1.1288700  
H     5.7564410   -3.7041790   -2.7959310  
C     1.2360180   -1.4740900    0.2197960  
C     0.4798870   -0.3721310   -0.0611470  
C     1.4844380    0.7013270   -0.2461380  
C     2.7961970    0.0223350   -0.0569100  
N     2.6333290   -1.2406750    0.2197960  
C     4.0718480    0.7381430   -0.1349860  
C     3.9548360    2.0866970   -0.3115350  
O     5.0281030    2.9283210   -0.3707330  
C     2.6643720    2.7959090   -0.4766500  
O     2.6930660    4.0183520   -0.6530530  
C     1.4034070    2.0286940   -0.4387450  
H     4.6330290    3.8187220   -0.5231460  
H     0.4779330    2.5736140   -0.5815590  
H     0.8865910   -2.4855890    0.3921860  
C    -2.5147240   -2.2174600    2.5627950  
C    -3.6403030   -1.7308750    1.9508550  
C    -3.2083760   -0.9032140    0.8599180  
C    -1.7884700   -0.9496470    0.8513710  
N    -1.3978980   -1.7550490    1.8986280  
C    -0.9786120   -0.2689890   -0.0851450  
C    -1.6835680    0.4558440   -1.0563040  
O    -1.0099360    1.1280250   -2.0290870  
C    -3.0979100    0.4938050   -1.0938120  
O    -3.5948710    1.2633060   -2.1253940  
C    -3.8939680   -0.1434920   -0.1348050  
H    -4.6571450   -1.9362340    2.2496940  
H    -0.4403810   -1.8927050    2.1838360  
H    -1.7024290    1.5014220   -2.6105250  
H    -4.3064500    0.7409090   -2.5537680  
H    -2.4145500   -2.8676030    3.4202200  
C    -6.9524850    0.7934580    2.9958980  
C    -5.7661130    0.6507960    2.3614590  
C    -6.1036720    0.2425380    0.9982090  
C    -7.5923480    0.1921610    1.0031670  
N    -8.0860920    0.5028540    2.1676770  
C    -8.3477400   -0.1655940   -0.1708540  
C    -7.6573250   -0.4102260   -1.3063440  
O    -8.2336890   -0.7195620   -2.4832240  
C    -6.1640010   -0.2993040   -1.3552950  
O    -5.6461040   -0.4357060   -2.4728470  
C    -5.3673090   -0.0406090   -0.1154490  
H    -4.7736390    0.8133820    2.7537090  
H    -9.4302980   -0.2095520   -0.1309180  
H    -7.5011030   -0.7990200   -3.1293350  
H    -7.1299800    1.0992570    4.0198080  
