64


C    -4.9086600   -3.8953740    1.0227180  
C    -6.1989310   -4.0310230    0.5806840  
C    -6.6311970   -2.7346140    0.1438830  
C    -5.5409000   -1.8435910    0.3393530  
N    -4.5106510   -2.5808520    0.8842290  
C    -5.5987510   -0.4607320    0.0451550  
C    -6.8300560   -0.0145740   -0.4322400  
O    -7.0096300    1.3296750   -0.7100010  
C    -7.9283130   -0.8822910   -0.6368510  
O    -9.0542180   -0.2417480   -1.1233110  
C    -7.8447910   -2.2333130   -0.3646780  
H    -6.7788140   -4.9435330    0.5761350  
H    -3.5984170   -2.2131520    1.1063630  
H    -7.9200210    1.4311730   -1.0436340  
H    -9.7636910   -0.8868450   -1.2589480  
H    -8.7007720   -2.8855560   -0.5238310  
H    -4.2309540   -4.6308800    1.4327960  
C    -1.3048890   -0.7719540   -1.1907750  
C    -2.6453520   -0.9556240   -1.0384650  
C    -3.1445000    0.1171040   -0.2115100  
C    -2.0393180    0.9452150    0.1031890  
N    -0.9066680    0.3856600   -0.5113110  
C    -2.1536450    2.0846880    0.9077340  
C    -3.4303070    2.4217260    1.3341080  
O    -3.6198760    3.5339880    2.0900480  
C    -4.5588040    1.6240120    1.0084890  
O    -5.7404930    2.0931970    1.5319550  
C    -4.4405900    0.4418340    0.2731140  
H    -3.2276390   -1.7434790   -1.4936420  
H    -1.3113980    2.6937620    1.2114100  
H    -4.5815830    3.5817540    2.2534560  
H    -6.4305920    2.0094620    0.8374020  
H    -0.5782160   -1.3231350   -1.7681470  
C     0.3956360    0.8528870   -0.4971740  
C     1.5657810    0.1498710   -0.5674860  
C     2.6489510    1.1017870   -0.5795230  
C     2.0174650    2.4359220   -0.4980270  
N     0.6475860    2.2243940   -0.4175150  
C     2.6763820    3.6226870   -0.4969020  
C     4.1263130    3.5845250   -0.5278660  
O     4.8302640    4.5834870   -0.4935110  
C     4.8358280    2.1775170   -0.5833160  
O     6.0569130    2.1711720   -0.6047740  
C     4.0181750    0.9411190   -0.6278050  
H     1.6599290   -0.9238010   -0.5269680  
H     2.1783080    4.5855430   -0.4425050  
H    -0.0383830    2.9253280   -0.6585790  
C     4.1775120   -1.3754000   -1.6041000  
C     4.6604120   -0.3639580   -0.7900220  
C     5.8624830   -0.8940680   -0.1685460  
C     6.0266980   -2.2203350   -0.6395850  
N     4.9867110   -2.4809720   -1.5143780  
C     7.0723920   -3.0571770   -0.2307670  
C     7.9799060   -2.5414980    0.6799620  
O     9.0276670   -3.3028290    1.1096490  
C     7.8311260   -1.2170710    1.1693710  
O     8.8122650   -0.8415590    2.0692030  
C     6.7943710   -0.3992930    0.7650580  
H     4.8834150   -3.3225800   -2.0594660  
H     7.1946030   -4.0704840   -0.5997580  
H     9.5548370   -2.7454940    1.7084210  
H     8.7462880    0.1111680    2.2329800  
H     6.7242700    0.6190850    1.1315640  
H     3.3342680   -1.3630300   -2.2793710  
