60


C     3.7268340   -4.2667630    1.5588930  
C     3.5712650   -2.9214690    1.3317860  
C     4.5919450   -2.5266400    0.4061090  
C     5.3511590   -3.6894640    0.1138290  
N     4.7954020   -4.7331400    0.8239590  
C     6.4611260   -3.6843960   -0.7373050  
C     6.8235110   -2.4757110   -1.3107340  
O     7.8869980   -2.4228010   -2.1592390  
C     6.0934440   -1.2923110   -1.0365380  
O     6.5727120   -0.1913920   -1.7084580  
C     4.9746780   -1.2864620   -0.1856960  
H     2.8274770   -2.2893140    1.7927630  
H     5.1300810   -5.6840780    0.8178960  
H     7.0336790   -4.5776010   -0.9653470  
H     7.9473500   -1.5099610   -2.4916950  
H     5.9362310    0.5440710   -1.6322970  
H     3.1593360   -4.9354570    2.1903680  
C     4.2174280   -0.0683260    0.0452930  
C     2.8740260    0.1220560    0.2390720  
C     2.6129820    1.5290640    0.3825380  
C     3.9261870    2.1940950    0.2678280  
N     4.8701000    1.1950750   -0.0086820  
C     4.1412820    3.5232290    0.3946900  
C     2.9827350    4.3826110    0.6172190  
O     3.0635050    5.5950740    0.7237030  
C     1.5634500    3.7123690    0.6992410  
O     0.6009710    4.4375810    0.8956020  
C     1.4501010    2.2435580    0.5697060  
H     2.1287050   -0.6570560    0.1922720  
H     5.1200210    3.9853760    0.3103410  
H     5.8007420    1.2821840    0.3876480  
C    -0.1256040    0.5193460    1.5206580  
C     0.1407410    1.6037210    0.7325620  
C    -1.1295610    1.9540610    0.0880710  
C    -2.1318940    0.9849150    0.5787610  
N    -1.4650390    0.1696990    1.4676100  
C    -3.4522360    0.9108090    0.1915100  
C    -3.8662410    1.8884780   -0.8343310  
O    -4.9918710    1.9314970   -1.3055240  
C    -2.8166010    2.9378400   -1.3584080  
O    -3.1768280    3.7338590   -2.2099880  
C    -1.4567100    2.9038530   -0.8264210  
H    -0.7551440    3.6477570   -1.1831190  
H     0.5466650   -0.0242400    2.1707690  
H    -1.8708160   -0.6624580    1.8704670  
C    -4.4049230   -0.5183390    2.0560700  
C    -4.3869260   -0.0472570    0.7680560  
C    -5.4916320   -0.7960610    0.1117350  
C    -6.0257750   -1.6736450    1.1893350  
N    -5.3909110   -1.4936720    2.3183260  
C    -7.1151540   -2.5855750    0.9641130  
C    -7.6466500   -2.6434520   -0.2804280  
O    -8.6577660   -3.4523010   -0.6367240  
C    -7.1232600   -1.7826370   -1.3929230  
O    -7.6451910   -1.8967730   -2.5004650  
C    -6.0140230   -0.8369850   -1.1285260  
H    -7.4792790   -3.2023950    1.7782400  
H    -8.8161510   -3.2660030   -1.5884280  
H    -5.7002830   -0.2014270   -1.9470040  
H    -3.7899370   -0.1801670    2.8828100  
