64


C    -3.9586740   -1.5562900    2.5695000  
C    -3.9428930   -1.0495200    1.2916330  
C    -4.8405070   -1.8448870    0.4948000  
C    -5.3769710   -2.8298100    1.3613300  
N    -4.8165740   -2.6346600    2.6098560  
C    -6.2958630   -3.7938040    0.9262820  
C    -6.6747340   -3.7597140   -0.4059930  
O    -7.5702210   -4.6718680   -0.8823030  
C    -6.1393950   -2.7811960   -1.2881270  
O    -6.6103360   -2.8840590   -2.5824360  
C    -5.2324590   -1.8320730   -0.8584850  
H    -5.0168750   -3.1846560    3.4301770  
H    -6.7133340   -4.5491400    1.5842130  
H    -7.7092760   -4.4725280   -1.8243550  
H    -6.2534840   -2.1577250   -3.1150060  
H    -4.8340630   -1.0908340   -1.5466290  
H    -3.4263400   -1.2231570    3.4483830  
C    -1.7766010    0.0741240    0.9005050  
C    -1.3022250    1.2861370    0.4182600  
C    -2.4803790    2.0402400    0.0179200  
C    -3.6066720    1.2283680    0.2989910  
N    -3.1463210    0.0294570    0.8479820  
C    -4.9235400    1.6208450    0.0396430  
C    -5.1147060    2.8614280   -0.5502770  
O    -6.3778800    3.2984860   -0.8316720  
C    -4.0025300    3.6790230   -0.8673020  
O    -4.3414260    4.8821890   -1.4612110  
C    -2.7035000    3.2877140   -0.5973350  
H    -5.7754750    0.9948950    0.2788790  
H    -6.2911170    4.1895490   -1.2122880  
H    -3.5429000    5.4203170   -1.5662840  
H    -1.8745450    3.9466900   -0.8283920  
H    -1.2219860   -0.7791600    1.2541680  
C     2.1542730   -1.3288460   -0.1288460  
C     3.2103760   -0.4641910   -0.0657230  
C     2.5744740    0.8613500    0.1221990  
C     1.1180950    0.5766640    0.1707240  
N     0.8972150   -0.7014870   -0.0014590  
C     0.1128860    1.6300930    0.3442470  
C     0.6211090    2.9051290    0.4350900  
O    -0.1428020    4.0061630    0.6620750  
C     2.0551130    3.2171390    0.3370450  
O     2.4183740    4.3984430    0.4483570  
C     3.0329790    2.1244800    0.1474900  
H     0.5095410    4.7416180    0.6986480  
H     4.0745720    2.4115330    0.0382650  
H     2.1916800   -2.4048440   -0.2462750  
C     4.6163410   -0.7473800   -0.1868630  
C     5.2629320   -1.7951600   -0.8242260  
C     6.6651200   -1.6277380   -0.6309310  
C     6.8402920   -0.4474010    0.1448990  
N     5.5876910    0.0867010    0.3706650  
C     8.0985120    0.0135850    0.5453340  
C     9.2045400   -0.7226670    0.1476060  
O    10.4543560   -0.3201340    0.5106990  
C     9.0513030   -1.8967190   -0.6427150  
O    10.2480710   -2.5085680   -0.9604540  
C     7.8082730   -2.3510390   -1.0350120  
H     4.7736760   -2.5638700   -1.4066370  
H     5.3866650    0.7851940    1.0703100  
H     8.2375590    0.9105910    1.1399100  
H    11.0849230   -0.9576460    0.1329520  
H    10.0771820   -3.2966630   -1.4970380  
H     7.7146130   -3.2527760   -1.6366930  
