60


C     6.1625420   -2.3213660   -2.5794790  
C     5.2711490   -1.4823860   -1.9649400  
C     5.9286870   -0.9226350   -0.8185180  
C     7.2429050   -1.4621880   -0.8011590  
N     7.3524390   -2.3187350   -1.8761390  
C     8.2038950   -1.1161180    0.1543850  
C     7.8373710   -0.1766900    1.1039820  
O     8.7267830    0.2191710    2.0565320  
C     6.5403320    0.3986520    1.1059540  
O     6.3299350    1.2928810    2.1368950  
C     5.5564730    0.0241920    0.1795430  
H     4.2565850   -1.3018360   -2.2854960  
H     8.1849380   -2.8255630   -2.1316110  
H     9.2049410   -1.5354500    0.1640750  
H     8.2542320    0.8848890    2.5917250  
H     5.9384220    2.1076980    1.7571120  
H     6.0481530   -2.9320100   -3.4639140  
C     1.5944000   -1.9059730    0.2156260  
C     0.7356490   -0.8501080    0.2250220  
C     1.6247160    0.3314030    0.2511720  
C     3.0029430   -0.2390230    0.2157210  
N     2.9673270   -1.5400840    0.2151500  
C     4.2009900    0.6044710    0.2408760  
C     3.9530270    1.9388380    0.3941060  
O     4.9425600    2.8762030    0.4744740  
C     2.5985430    2.5323810    0.4750810  
O     2.5045330    3.7580360    0.5940300  
C     1.4153000    1.6511460    0.3955250  
H     4.4647630    3.7339170    0.5601260  
H     0.4391420    2.1204490    0.4663230  
H     1.3399170   -2.9591200    0.1945230  
C    -1.4712200   -1.6946920    1.0919010  
C    -0.7181050   -0.8763730    0.2999950  
C    -1.6718250   -0.0882960   -0.4771940  
C    -3.0317030   -0.5074230   -0.0368520  
N    -2.8286690   -1.4582470    0.9348160  
C    -4.2279890    0.0158120   -0.4998720  
C    -4.0786330    1.0177770   -1.5666500  
O    -5.0209070    1.6113080   -2.0863620  
C    -2.6503430    1.4096250   -2.1015110  
O    -2.5829240    2.2121620   -3.0171460  
C    -1.4810690    0.8200660   -1.4663100  
H    -0.5002880    1.1111230   -1.8262920  
H    -1.1355090   -2.4350140    1.8060760  
H    -3.5506610   -2.1508500    1.1174150  
C    -7.8968880    2.3787310    0.3785440  
C    -8.6997400    1.3987710    0.8576320  
C    -7.9497550    0.1645200    0.7831000  
C    -6.6125620    0.5189650    0.2243150  
N    -6.6380120    1.8805100    0.0408020  
C    -5.5714120   -0.3699020    0.0056580  
C    -5.8892170   -1.7682670    0.3285100  
O    -5.0882610   -2.6952450    0.2200780  
C    -7.3124630   -2.1628370    0.8795220  
O    -7.5264760   -3.3410970    1.1116740  
C    -8.2875970   -1.1090330    1.1073030  
H    -9.7090550    1.5063310    1.2269210  
H    -9.2576270   -1.3814740    1.5106990  
H    -8.0990430    3.4340730    0.2510170  
H    -6.0428770    2.2991330   -0.6684260  
