64


C     2.5727290    2.0603210   -1.1238430  
C     3.4082340    1.2613120   -0.3774500  
C     2.5462470    0.3874140    0.3882880  
C     1.2084230    0.7170430    0.0513770  
N     1.2518090    1.7325530   -0.8761410  
C     0.1062670    0.0597560    0.6290400  
C     0.3727320   -0.9468460    1.5576950  
O    -0.6590940   -1.6205030    2.1576470  
C     1.7069500   -1.2847380    1.8902830  
O     1.7991690   -2.3061020    2.8192980  
C     2.7886130   -0.6324130    1.3278520  
H     0.4476610    2.2131750   -1.2493550  
H    -0.2513920   -2.2238640    2.8049820  
H     2.7044210   -2.3512380    3.1614390  
H     3.8049210   -0.9044000    1.6010290  
H     2.8222010    2.8329650   -1.8370470  
C    -2.1827060   -0.5653390   -0.1183070  
C    -3.4271530   -0.0298920   -0.2477590  
C    -3.2950540    1.3859100    0.0921590  
C    -1.8704130    1.6025780    0.4480080  
N    -1.2306930    0.3798530    0.2814270  
C    -1.3564490    2.7895200    0.8689570  
C    -2.2494550    3.9394290    0.9629530  
O    -1.8768910    5.0454000    1.3276370  
C    -3.7578860    3.7352080    0.5742410  
O    -4.5192320    4.6881730    0.6356810  
C    -4.1949130    2.3993020    0.1557380  
H    -0.3214430    2.9175880    1.1660210  
H    -5.2377540    2.2667780   -0.1069050  
H    -1.8611400   -1.5819420   -0.2950690  
C    -4.8913510   -3.7687100    1.5172260  
C    -6.0351780   -3.9024200    0.7738680  
C    -6.0883370   -2.7819750   -0.1222210  
C    -4.9319920   -1.9983970    0.1254380  
N    -4.2165980   -2.6278450    1.1247240  
C    -4.6471450   -0.7930880   -0.5559530  
C    -5.5801220   -0.3978090   -1.5150280  
O    -5.3720980    0.7450670   -2.2367440  
C    -6.7415160   -1.1704220   -1.7736570  
O    -7.5521240   -0.6329170   -2.7580440  
C    -7.0047400   -2.3478710   -1.1006360  
H    -6.7566770   -4.7039140    0.8544080  
H    -3.3771310   -2.2625960    1.5512380  
H    -6.1313720    0.8443080   -2.8374880  
H    -8.3312070   -1.1955110   -2.8774190  
H    -7.9038890   -2.9199600   -1.3208770  
H    -4.4905150   -4.3987640    2.2988160  
C     5.6447160    2.4354740   -0.1642830  
C     4.8723450    1.3105430   -0.3489980  
C     5.7965730    0.2103190   -0.5181460  
C     7.1084280    0.7414190   -0.4211850  
N     6.9837380    2.1002610   -0.2116450  
C     8.2569030   -0.0500990   -0.5502290  
C     8.0782470   -1.4037860   -0.7892150  
O     9.1639680   -2.2212330   -0.9244270  
C     6.7728730   -1.9511330   -0.9028180  
O     6.7570310   -3.3137450   -1.1475150  
C     5.6412930   -1.1673110   -0.7735470  
H     7.7489980    2.7432690   -0.0836220  
H     9.2619530    0.3534910   -0.4794930  
H     8.8274220   -3.1123340   -1.1216760  
H     5.8519010   -3.5920220   -1.3509020  
H     4.6511330   -1.6062660   -0.8745480  
H     5.3353080    3.4545740    0.0205730  
