62


C     2.5193240   -1.3617430   -0.5115440  
C     3.5240430   -0.5582140   -0.0115210  
C     2.9210290    0.7354230    0.2234410  
C     1.5576410    0.6416080   -0.1478340  
N     1.3394930   -0.6489880   -0.5844350  
C     0.6621990    1.7335210   -0.1014720  
C     1.1942170    2.9439950    0.3466350  
O     0.3836700    4.0300780    0.4714300  
C     2.5566010    3.0498490    0.7268760  
O     2.9121450    4.3136060    1.1635070  
C     3.4195160    1.9736590    0.6703770  
H     0.4632720   -0.9983480   -0.9398450  
H     0.9499780    4.7860460    0.7053730  
H     3.8697050    4.3437550    1.3058210  
H     4.4537530    2.0724450    0.9863720  
H     2.5456550   -2.4101970   -0.7745910  
C    -2.6807380   -0.8235820    1.2763900  
C    -1.4888870   -0.2013500    1.1160540  
C    -1.6296300    0.7346170    0.0170330  
C    -3.0257430    0.6075750   -0.4550880  
N    -3.6265620   -0.3745690    0.3413960  
C    -3.5863350    1.3809050   -1.4174420  
C    -2.7499590    2.3850180   -2.0621370  
O    -3.1726050    3.1676630   -2.8996920  
C    -1.2327960    2.4624940   -1.6613700  
O    -0.4982020    3.1825990   -2.3108980  
C    -0.7452620    1.6234370   -0.5315160  
H    -0.5954700   -0.3664870    1.6995910  
H    -4.6213050    1.2990520   -1.7280380  
H    -2.9698980   -1.5912470    1.9813060  
C    -6.8278030   -0.7133220    3.3116190  
C    -5.6655650   -0.4115670    2.6727740  
C    -5.7902530   -0.8887830    1.3140310  
C    -7.1335510   -1.5036760    1.2089020  
N    -7.7040060   -1.3741170    2.4613710  
C    -7.6598160   -2.0472670    0.0802910  
C    -6.8457640   -2.0469960   -1.1256590  
O    -7.2349990   -2.4631940   -2.2052010  
C    -5.3793980   -1.4808580   -1.0354810  
O    -4.6393130   -1.6018030   -1.9940040  
C    -4.9441660   -0.8552100    0.2371250  
H    -4.8200520    0.1086440    3.0968120  
H    -8.6570690   -2.4724020    0.0299830  
H    -7.1217230   -0.5044250    4.3316730  
H    -8.6419900   -1.6587710    2.6963940  
C     6.2540450   -2.6187270   -2.7706680  
C     7.3454350   -2.7030210   -1.9451440  
C     6.9823370   -2.0845150   -0.7010140  
C     5.6392970   -1.6465920   -0.8324390  
N     5.2179430   -1.9981270   -2.0991940  
C     4.9275460   -0.9663370    0.1806530  
C     5.6406750   -0.7296610    1.3575940  
O     5.0402780   -0.0849460    2.4077070  
C     6.9850850   -1.1579600    1.5066080  
O     7.5334160   -0.8411700    2.7404860  
C     7.6602120   -1.8325950    0.5079510  
H     8.2971230   -3.1530810   -2.1930400  
H     4.3373000   -1.7102130   -2.4979380  
H     5.6873230   -0.0766090    3.1345030  
H     8.4058410   -1.2544000    2.8164890  
H     8.6921170   -2.1469710    0.6522360  
H     6.1210380   -2.9596130   -3.7879000  
