62


C     0.9893440   -2.6478470   -2.1058750  
C     1.1358460   -3.7985420   -1.3710750  
C     2.1923840   -3.5649320   -0.4260850  
C     2.6468410   -2.2364730   -0.6287590  
N     1.8992410   -1.7065310   -1.6619730  
C     3.6968550   -1.6453760    0.1137460  
C     4.2826970   -2.4603380    1.0875360  
O     5.2505220   -1.9547020    1.8958030  
C     3.8453890   -3.7958450    1.2941140  
O     4.5292460   -4.4509150    2.3021280  
C     2.8168960   -4.3537410    0.5608390  
H     0.5823140   -4.7176920   -1.5096230  
H     2.0034350   -0.7710730   -2.0228970  
H     5.5950330   -2.6893330    2.4326870  
H     4.2912530   -5.3895870    2.2958720  
H     2.4992050   -5.3779900    0.7461800  
H     0.3295220   -2.4232970   -2.9325140  
C     1.4933620    2.2149960   -0.0209860  
C     1.8839160    0.8961670    0.1215790  
C     3.2924560    0.8130580   -0.1109060  
C     3.7454080    2.1986840   -0.3764200  
N     2.6185640    2.9886690   -0.3225540  
C     5.0373040    2.5530560   -0.6029820  
C     6.0453110    1.5032660   -0.6055530  
O     7.2392560    1.7219110   -0.7539690  
C     5.5763340    0.0101340   -0.4297230  
O     6.3962620   -0.8740840   -0.6099870  
C     4.1550870   -0.2605390   -0.1109670  
H     1.2553420    0.0792470    0.4298700  
H     5.3561680    3.5778880   -0.7657060  
H     2.5813350    3.9988200   -0.3421020  
C    -2.6794880    0.5323530   -0.0196100  
C    -1.2864330    0.6636590   -0.1320080  
C    -0.9998790    2.0175090    0.0795020  
C    -2.3518450    2.6470770    0.3057570  
N    -3.3210750    1.7694410    0.2565090  
C    -2.5027850    4.0527410    0.5247990  
C    -1.3791430    4.8091190    0.4757030  
O    -1.3659910    6.1327910    0.6265830  
C     0.0039640    4.2213380    0.2312750  
O     0.9172450    5.0648350    0.1721550  
C     0.1722460    2.7864300    0.0963010  
H    -0.5960230   -0.1266490   -0.3789720  
H    -3.4821860    4.4846240    0.6962950  
H    -0.4173250    6.3882710    0.5248750  
C    -2.9443310   -1.9252310   -0.4173380  
C    -3.4576520   -0.6443860   -0.1528150  
C    -4.8995880   -0.8010970   -0.0502610  
C    -5.1829440   -2.1675020   -0.2595780  
N    -3.9643130   -2.8116960   -0.4795470  
C    -6.4747560   -2.6966940   -0.2346250  
C    -7.5138970   -1.8084760    0.0113890  
O    -8.7953390   -2.2617280    0.0486700  
C    -7.2485180   -0.4296990    0.2243520  
O    -8.3791250    0.3217420    0.4549420  
C    -5.9626070    0.0828480    0.1966530  
H    -3.8557000   -3.8013850   -0.6507330  
H    -6.6909380   -3.7475640   -0.3955720  
H    -9.3699390   -1.4980750    0.2331570  
H    -8.1313940    1.2479130    0.5968520  
H    -5.7600660    1.1366860    0.3598420  
H    -1.9202240   -2.2430840   -0.5630440  
