60


C    -7.1395570   -1.4261140    2.8236040  
C    -6.0094730   -1.0447210    2.1429680  
C    -6.4266710   -0.5696470    0.8483650  
C    -7.8424030   -0.6812010    0.8169920  
N    -8.2427040   -1.2197080    2.0236740  
C    -8.6202210   -0.2595760   -0.2659120  
C    -7.9481050    0.3161740   -1.3315010  
O    -8.6382110    0.7714610   -2.4089490  
C    -6.5312030    0.4449730   -1.3348820  
O    -6.0365960    1.0099140   -2.4843100  
C    -5.7395250   -0.0241730   -0.2805270  
H    -5.0058440   -1.0580570    2.5432870  
H    -9.2001520   -1.3751010    2.2985370  
H    -9.7023160   -0.3382610   -0.2842230  
H    -7.9700630    1.1654610   -3.0029290  
H    -5.3244340    1.6376600   -2.2172690  
H    -7.2490010   -1.8216780    3.8234440  
C    -2.8420340   -3.1710270    0.6140650  
C    -1.6724650   -2.4981840    0.4425650  
C    -2.0057170   -1.1525090    0.0330270  
C    -3.4861130   -1.0946020   -0.0089670  
N    -3.9240920   -2.3572050    0.3220770  
C    -4.2593920    0.0008880   -0.3275430  
C    -3.4952960    1.1699590   -0.7496610  
O    -3.9970230    2.1837550   -1.2352590  
C    -1.9255880    1.1812840   -0.6171700  
O    -1.3540430    2.2315990   -0.8573290  
C    -1.2202820   -0.0611830   -0.2585080  
H    -0.6812450   -2.8940580    0.6002760  
H    -3.0059100   -4.1948620    0.9230160  
H    -4.8933580   -2.5737430    0.5095400  
C     0.9944240   -1.0931180   -0.8507170  
C     0.2441270   -0.1085170   -0.2776090  
C     1.2036130    0.8409330    0.3031640  
C     2.5510930    0.2943100    0.0318430  
N     2.3556990   -0.8797220   -0.6460260  
C     3.7497670    0.8824470    0.3880170  
C     3.6464870    2.2129650    1.0088250  
O     4.6066360    2.9439420    1.2217230  
C     2.2306070    2.7394340    1.4292040  
O     2.1653080    3.7558280    2.0973210  
C     1.0441500    1.9977980    0.9931570  
H     0.0751490    2.4257940    1.2170820  
H     0.6655350   -1.9539310   -1.4165440  
H     3.0951760   -1.3535060   -1.1469380  
C     5.0416300    0.2666580    0.1440730  
C     5.3700010   -1.0571250   -0.0894930  
C     6.7968270   -1.1406310   -0.2388550  
C     7.3065710    0.2442500   -0.0773790  
N     6.2007110    1.0384730    0.1344400  
C     8.6182310    0.5875090   -0.1390250  
C     9.6013130   -0.4651150   -0.3811670  
O    10.8020760   -0.2509570   -0.4531780  
C     9.0827800   -1.9402320   -0.5571580  
O     9.8936770   -2.8320420   -0.7624320  
C     7.6443780   -2.1834600   -0.4683300  
H     4.7055560   -1.9068350   -0.0371570  
H     8.9738580    1.6057490   -0.0167760  
H     7.2985500   -3.2059960   -0.5880390  
H     6.1848920    2.0098170    0.4220850  
