64


C     5.7735370    0.7941440   -2.6855710  
C     5.1676570    0.1571190   -1.6283540  
C     6.2086590   -0.3766010   -0.7882140  
C     7.4379240   -0.0239070   -1.3995850  
N     7.1415620    0.6747880   -2.5545230  
C     8.6783760   -0.3801680   -0.8542970  
C     8.6728470   -1.1040910    0.3271330  
O     9.8524340   -1.4717160    0.9054550  
C     7.4472380   -1.4695650    0.9485440  
O     7.6096540   -2.1943870    2.1137030  
C     6.2247220   -1.1201330    0.4085010  
H     7.8202720    1.0647550   -3.1891820  
H     9.6235740   -0.1096940   -1.3138390  
H     9.6338470   -1.9459350    1.7263500  
H     6.7481070   -2.3199800    2.5383930  
H     5.2974310   -1.4067610    0.8983260  
H     5.3296180    1.3243210   -3.5155000  
C     2.8984910   -0.5760480   -2.3408100  
C     1.6184510   -0.5157720   -1.8592790  
C     1.6765370    0.1461240   -0.5859230  
C     3.0370320    0.4764230   -0.3561370  
N     3.7752640    0.0186520   -1.4417490  
C     3.4668570    1.1796330    0.7756010  
C     2.5002970    1.5373000    1.7017530  
O     2.8582520    2.2164060    2.8304780  
C     1.1359050    1.1976080    1.5074720  
O     0.3257460    1.5721950    2.5651590  
C     0.6967970    0.5077100    0.3765940  
H     0.7368360   -0.8899370   -2.3603050  
H     4.5031070    1.4535810    0.9368490  
H     2.0349790    2.4019330    3.3162220  
H    -0.6012540    1.6187120    2.2802390  
H     3.2874020   -1.0066190   -3.2524820  
C    -1.2083570   -1.1007800   -0.1004470  
C    -0.7204020    0.1411770    0.2008680  
C    -1.8843810    1.0140600    0.3097300  
C    -3.0751500    0.1662660    0.0715850  
N    -2.5922640   -1.1090420   -0.1641970  
C    -4.3707670    0.5961050    0.0642080  
C    -4.5869360    2.0294850    0.3765410  
O    -5.6929670    2.5101370    0.5407140  
C    -3.3324320    2.9639210    0.5452310  
O    -3.5134640    4.1631770    0.6872290  
C    -2.0028990    2.3565280    0.5284210  
H    -1.1445590    3.0157870    0.6216060  
H    -0.6524130   -2.0148430   -0.2620880  
H    -3.1696060   -1.8900130   -0.4367250  
C    -5.7230480   -3.0856360    2.1431340  
C    -6.8149380   -3.3461790    1.3594690  
C    -6.8733480   -2.3180280    0.3575280  
C    -5.7709840   -1.4545770    0.5838210  
N    -5.0718100   -1.9591030    1.6655480  
C    -5.5165810   -0.3007210   -0.1906660  
C    -6.4208100   -0.0430880   -1.2247070  
O    -6.2144590    1.0193650   -2.0474380  
C    -7.5253590   -0.9005350   -1.4650390  
O    -8.3071650   -0.5069540   -2.5349870  
C    -7.7590980   -2.0258680   -0.6977980  
H    -7.5004000   -4.1739950    1.4788950  
H    -4.3378070   -1.4660070    2.1504040  
H    -6.9883030    1.0875310   -2.6335590  
H    -9.1198630   -1.0334740   -2.5529040  
H    -8.6124540   -2.6677960   -0.9068940  
H    -5.3370260   -3.6158820    3.0022850  
