62


C     5.7490070   -1.8267060    2.0415130  
C     5.1291860   -0.7951740    1.3761770  
C     6.1571270    0.0397820    0.8108660  
C     7.3943250   -0.5483810    1.1742990  
N     7.1141770   -1.6719580    1.9292520  
C     8.6271200   -0.0017120    0.7945690  
C     8.6054130    1.1573720    0.0358060  
O     9.7763890    1.7289290   -0.3658390  
C     7.3713540    1.7612920   -0.3321510  
O     7.5189860    2.9119780   -1.0812050  
C     6.1564990    1.2224890    0.0448620  
H     7.8016350   -2.2983550    2.3175590  
H     9.5783190   -0.4482380    1.0656010  
H     9.5479130    2.5125330   -0.8953010  
H     6.6488620    3.2256790   -1.3691440  
H     5.2229930    1.6976070   -0.2465110  
H     5.3165150   -2.6572720    2.5801040  
C     2.8937450   -0.3919030    2.3968100  
C     1.5989760   -0.2432910    1.9766310  
C     1.6151810   -0.3380730    0.5447730  
C     2.9616740   -0.5569700    0.1529430  
N     3.7340280   -0.5830080    1.3072700  
C     3.3469370   -0.7481130   -1.1795890  
C     2.3514540   -0.6957340   -2.1434890  
O     2.6632380   -0.8702610   -3.4578400  
C     0.9987640   -0.4423530   -1.7917950  
O     0.1390020   -0.3372200   -2.8651780  
C     0.6263110   -0.2649980   -0.4606880  
H     0.7382340   -0.0918950    2.6125530  
H     4.3734270   -0.9432130   -1.4675510  
H     1.8234320   -0.8230870   -3.9503250  
H    -0.7372200   -0.6989260   -2.6379390  
H     3.3150070   -0.3697660    3.3916120  
C    -1.1650440    1.1626730    0.5526420  
C    -2.5140750    1.1903410    0.6662000  
C    -3.0261290   -0.0019730    0.0266270  
C    -1.8353580   -0.7432580   -0.4605060  
N    -0.7284870    0.0109900   -0.1218450  
C    -1.8757340   -1.9516730   -1.0945100  
C    -3.1756730   -2.5663600   -1.3174680  
O    -3.3211160   -3.6671980   -1.8264560  
C    -4.4562540   -1.7711890   -0.8773880  
O    -5.5475760   -2.2168870   -1.1814270  
C    -4.2924050   -0.4920930   -0.1336440  
H    -3.1032530    1.9728270    1.1169210  
H    -0.9846030   -2.5200640   -1.3442890  
H    -0.4249950    1.8775800    0.8847840  
C    -5.9155420    3.5238420   -0.9930000  
C    -7.0940530    3.5042680   -0.3305260  
C    -7.1452610    2.1957740    0.3137090  
C    -5.8568530    1.5387120   -0.0897660  
N    -5.1482300    2.3208620   -0.8503690  
C    -5.5124560    0.1910730    0.3376070  
C    -6.4214330   -0.4339250    1.1406410  
O    -6.2346430   -1.6534300    1.6571580  
C    -7.7178450    0.2067350    1.5606190  
O    -8.4614430   -0.4444820    2.2914580  
C    -8.0424170    1.5668760    1.0957260  
H    -7.8502740    4.2752400   -0.2810260  
H    -7.0524320   -1.8551200    2.1640740  
H    -8.9911640    1.9890830    1.4126620  
H    -5.5047550    4.3216420   -1.6003210  
