60


C    -3.6942320    0.3062050   -1.3598620  
C    -3.1909460   -0.7645500   -0.6218580  
C    -4.3534130   -1.5137250   -0.1669690  
C    -5.4981540   -0.8336470   -0.6498140  
N    -5.0574210    0.2588660   -1.3783830  
C    -6.8093410   -1.2419930   -0.3829560  
C    -6.9744290   -2.3754880    0.3968450  
O    -8.2246330   -2.8297740    0.6845790  
C    -5.8419490   -3.0719250    0.8964860  
O    -6.1623590   -4.1806380    1.6525290  
C    -4.5507470   -2.6584150    0.6308990  
H    -5.6509060    0.9099410   -1.8702630  
H    -7.6789030   -0.7136500   -0.7596930  
H    -8.1221100   -3.6401700    1.2138190  
H    -5.3559420   -4.6776020    1.8571770  
H    -3.7074790   -3.2305300    1.0002830  
H    -3.1680250    1.0620270   -1.9252660  
C     0.0599520    2.0857520   -0.0360130  
C     1.1267320    1.1835640   -0.0219020  
C     0.6081390   -0.1300790   -0.1536650  
C    -0.8481470    0.0211880   -0.2579230  
N    -1.1057050    1.3780340   -0.2045780  
C    -1.7737000   -0.9913050   -0.3849350  
C    -1.1981090   -2.3530870   -0.3115080  
O    -1.8642900   -3.3668410   -0.4251560  
C     0.3481900   -2.5425600   -0.0863960  
O     0.7136730   -3.6952160    0.1421470  
C     1.2352580   -1.3864580   -0.1562650  
H     2.1706590    1.4383600    0.0265910  
H    -2.0125070    1.8262570   -0.2254840  
C     2.6671330   -1.5652880   -0.1719480  
C     3.6836450   -0.6900010   -0.5322840  
C     4.9323430   -1.3733930   -0.4006430  
C     4.6031370   -2.7439090    0.0673000  
N     3.2346730   -2.7880290    0.1908130  
C     5.5272170   -3.7093690    0.3082190  
C     6.9368710   -3.3925230    0.1012040  
O     7.8358820   -4.1980940    0.2962390  
C     7.3094320   -1.9460830   -0.3927150  
O     8.4894130   -1.6655780   -0.5628390  
C     6.2279230   -0.9965920   -0.6225880  
H     3.5592560    0.2993420   -0.9430230  
H     5.2691120   -4.7078500    0.6472410  
H     6.4960530   -0.0025140   -0.9687480  
H     2.6511290   -3.5942170    0.3830560  
C     3.0599960    4.9146750    1.5426700  
C     2.4396950    6.0798750    1.2410990  
C     1.1701360    5.7441190    0.6294590  
C     1.1106680    4.2653910    0.5801880  
N     2.2853710    3.8248220    1.1262210  
C     0.0503960    3.5275520    0.0807080  
C    -1.1390470    4.3046600   -0.3136980  
O    -2.2127970    3.7947930   -0.6130890  
C    -1.0505730    5.8716350   -0.3578480  
O    -1.9974340    6.4901610   -0.8128160  
C     0.1530650    6.5161130    0.1613920  
H     2.8116750    7.0766250    1.4270160  
H     0.1870500    7.6009580    0.1635450  
H     4.0149380    4.7382640    2.0186840  
H     2.4550930    2.8663730    1.3957330  
