62


C     0.9144690   -0.1749050    0.0845930  
C     0.7026130   -1.5425340    0.0193020  
C     1.8254730   -2.0887450   -0.7335290  
C     2.6570440   -1.0067310   -1.1024140  
N     2.0779950    0.1495430   -0.5791250  
C     3.8164320   -1.1372860   -1.8697770  
C     4.1533370   -2.4176410   -2.2821260  
O     5.2762250   -2.6224320   -3.0240920  
C     3.3345250   -3.5234600   -1.9312840  
O     3.7978440   -4.7323490   -2.4108420  
C     2.1873800   -3.3763720   -1.1754410  
H     4.4421210   -0.2923450   -2.1338480  
H     5.3482750   -3.5812940   -3.1752880  
H     3.2859200   -5.4535340   -2.0145420  
H     1.5998980   -4.2425660   -0.8937510  
H     0.3671190    0.5913800    0.6122540  
C    -3.5682150   -0.3112220    0.3967630  
C    -2.2293790   -0.4287600    0.0545320  
C    -1.7121200   -1.6237400    0.6458540  
C    -2.8483640   -2.2436270    1.3636730  
N    -3.9157240   -1.3948180    1.2053130  
C    -2.8008930   -3.4308150    2.0276620  
C    -1.5526280   -4.1620260    2.0197480  
O    -1.3943730   -5.2531910    2.5497740  
C    -0.3174200   -3.5278690    1.2720880  
O     0.7267080   -4.1607550    1.2772860  
C    -0.4543500   -2.2048540    0.6104850  
H    -1.6948490    0.2083770   -0.6296220  
H    -3.6546150   -3.8579190    2.5435770  
H    -4.8815110   -1.5734130    1.4527810  
C    -3.2251460    3.8289850   -1.2534160  
C    -2.9596990    2.6195030   -0.6784950  
C    -4.2105470    1.9261590   -0.5201640  
C    -5.2448790    2.8416030   -1.0400590  
N    -4.5784360    3.9644270   -1.4961290  
C    -6.5838950    2.5978020   -1.0569670  
C    -7.0532630    1.3522670   -0.4841860  
O    -8.2275800    1.0162050   -0.4530410  
C    -5.9904190    0.3846360    0.1492150  
O    -6.4221360   -0.5872250    0.7576850  
C    -4.5429100    0.6795440    0.0001100  
H    -1.9859730    2.2819830   -0.3642080  
H    -7.3125200    3.2861110   -1.4731750  
H    -2.5429230    4.6279230   -1.5112620  
H    -5.0289980    4.7887010   -1.8619930  
C     2.3539000    2.2871450   -1.7429850  
C     3.0449870    3.4451010   -1.5243530  
C     3.7518510    3.3014990   -0.2785740  
C     3.4554610    2.0143860    0.2316360  
N     2.5916850    1.4148330   -0.6808200  
C     3.9716850    1.5248970    1.4348030  
C     4.8165880    2.3648030    2.1448550  
O     5.3546790    1.9458910    3.3245900  
C     5.1293720    3.6621590    1.6553980  
O     5.9801100    4.3755140    2.4774760  
C     4.6113600    4.1354900    0.4641830  
H     3.0574480    4.3062840   -2.1786340  
H     3.7442640    0.5346330    1.8134440  
H     5.9247850    2.6618230    3.6542080  
H     6.1963590    5.2239610    2.0634980  
H     4.8660090    5.1324760    0.1098770  
H     1.7146220    1.9739080   -2.5554520  
