60


C     3.3272150   -0.1221490    1.5028540  
C     4.6650830   -0.3685270    1.5528960  
C     4.9382450   -1.4798850    0.6801670  
C     3.7026440   -1.8902700    0.1235700  
N     2.7070940   -1.0489990    0.6502870  
C     3.6192490   -2.9007710   -0.8385650  
C     4.7979020   -3.5351100   -1.2119560  
O     4.7581910   -4.5358130   -2.1417510  
C     6.0361870   -3.1544430   -0.6443980  
O     7.1188190   -3.8739830   -1.1125510  
C     6.1176460   -2.1336550    0.2896480  
H     5.3836990    0.1861520    2.1406650  
H     2.6873370   -3.2174460   -1.2859800  
H     5.6697110   -4.8534690   -2.2602020  
H     7.9236370   -3.5731260   -0.6655190  
H     7.0813460   -1.8360390    0.6984140  
H     2.7378580    0.6418430    1.9836030  
C    -0.0164390    2.2414930    0.0423220  
C    -1.1777750    1.5628970   -0.2456520  
C    -0.8525200    0.1616840   -0.1405080  
C     0.5921180    0.1461260    0.1955970  
N     1.0743050    1.3474200    0.2958880  
C     1.3342380   -1.0971730    0.3950360  
C     0.6060840   -2.2543160    0.3442330  
O     1.1252680   -3.4733740    0.5944120  
C    -0.8326260   -2.2797980   -0.0074730  
O    -1.3821610   -3.3815570   -0.0959740  
C    -1.5630730   -0.9992340   -0.2386180  
H    -2.1609350    1.9845160   -0.3966140  
H     0.3876140   -4.1033940    0.4382550  
C    -1.6878580    5.7309980   -2.1609500  
C    -1.4008460    4.4753100   -1.7164790  
C    -0.4332270    4.5998730   -0.6538080  
C    -0.1628630    6.0487210   -0.5217130  
N    -0.9740260    6.6786650   -1.4480920  
C     0.7394770    6.6056860    0.3278180  
C     1.5097230    5.7161200    1.1845110  
O     2.3979840    6.1040420    1.9268360  
C     1.1610610    4.1848420    1.1654660  
O     1.6301380    3.4877280    2.0447820  
C     0.2160180    3.6684000    0.1319570  
H    -1.8090630    3.5574880   -2.1082630  
H     0.9367980    7.6721490    0.3763000  
H    -2.3605920    6.0412420   -2.9495080  
H    -0.9752380    7.6703660   -1.6293690  
C    -3.3773760   -0.2785310   -1.7439450  
C    -4.7075250   -0.4461770   -1.9242000  
C    -5.1754730   -1.3576020   -0.9032290  
C    -3.9859240   -1.7297290   -0.0993520  
N    -2.8933550   -1.0472100   -0.6718680  
C    -4.0415220   -2.5169660    0.9992520  
C    -5.3389210   -3.0762120    1.3946310  
O    -5.4701950   -3.7932740    2.3727850  
C    -6.5984710   -2.7321680    0.5256610  
O    -7.6818750   -3.2022880    0.8336640  
C    -6.4137230   -1.8372020   -0.6183360  
H    -5.3081790    0.0020460   -2.7027340  
H    -3.1785130   -2.7868710    1.5936640  
H    -7.2915250   -1.5690510   -1.1983060  
H    -2.6717860    0.3092180   -2.3141430  
