64


C    -1.5544500    0.0169670    1.1666150  
C    -2.9110850    0.1190660    0.9797360  
C    -3.1539190    1.3131380    0.2127200  
C    -1.8886700    1.8967030   -0.0377230  
N    -0.9200070    1.0971550    0.5640750  
C    -1.7391810    3.0728190   -0.7822680  
C    -2.8904470    3.6702370   -1.2688940  
O    -2.8034140    4.8183410   -2.0015680  
C    -4.1687510    3.1023440   -1.0141510  
O    -5.2158900    3.8196970   -1.5592590  
C    -4.3141180    1.9393730   -0.2832210  
H    -0.7727900    3.5236830   -0.9738630  
H    -3.7102720    5.0734040   -2.2440260  
H    -6.0497790    3.3612430   -1.3779050  
H    -5.2976050    1.5134750   -0.1010480  
H    -0.9836170   -0.7202520    1.7127800  
C     2.0263810   -1.4706180   -1.3299860  
C     3.1521540   -0.7423890   -1.0082080  
C     2.6925360    0.4058950   -0.2561740  
C     1.2839900    0.3003740   -0.1670720  
N     0.9044380   -0.8457340   -0.8304080  
C     0.4875040    1.2591860    0.4856660  
C     1.1369520    2.3519760    1.0550270  
O     0.4225770    3.3014440    1.7147570  
C     2.5480770    2.4799970    0.9449970  
O     3.0378380    3.6246630    1.5408750  
C     3.3256890    1.5344160    0.3040260  
H    -0.0457110   -1.1746000   -0.9147130  
H     1.0581360    3.9640080    2.0388540  
H     4.0059730    3.5946820    1.5616890  
H     4.4021010    1.6661040    0.2324770  
H     1.9462040   -2.4090700   -1.8601520  
C    -4.0539670   -1.0624220    2.8502750  
C    -5.0618230   -1.9752790    3.0031360  
C    -5.5595830   -2.2777740    1.6908780  
C    -4.8000490   -1.5078950    0.7715840  
N    -3.8798190   -0.7631940    1.5024050  
C    -4.9991050   -1.5736750   -0.6140560  
C    -5.9942880   -2.4199280   -1.0783910  
O    -6.2334780   -2.5190800   -2.4218100  
C    -6.7711080   -3.1893000   -0.1734850  
O    -7.7253460   -3.9823610   -0.7879500  
C    -6.5654170   -3.1294440    1.1926300  
H    -5.4147240   -2.3798120    3.9420830  
H    -4.4122700   -0.9932180   -1.3170830  
H    -6.9545230   -3.1617950   -2.5351110  
H    -8.2011820   -4.4901790   -0.1145000  
H    -7.1695590   -3.7342390    1.8667050  
H    -3.4363960   -0.5652920    3.5846930  
C     4.9486370   -1.4456250   -2.6393940  
C     4.5227850   -1.0731850   -1.3980410  
C     5.7036100   -1.1124840   -0.5371310  
C     6.8410160   -1.5334910   -1.3946050  
N     6.3097850   -1.7435790   -2.6496090  
C     8.1212790   -1.6692960   -0.9623650  
C     8.4129690   -1.4003590    0.4414120  
O     9.5332560   -1.4897230    0.9212250  
C     7.2188810   -0.9794250    1.3751840  
O     7.4415110   -0.7500070    2.5538480  
C     5.8796140   -0.8688270    0.7880670  
H     8.9392890   -1.9759820   -1.6071820  
H     5.0623630   -0.5851560    1.4431080  
H     4.3724840   -1.5217940   -3.5521430  
H     6.8480060   -1.9680000   -3.4715800  
