60


C    -4.0039910   -2.5823130    2.6187800  
C    -4.8489560   -3.4148360    1.9331260  
C    -5.3391750   -2.6804230    0.8002820  
C    -4.7428510   -1.3944470    0.8474110  
N    -3.9247310   -1.3669930    1.9596650  
C    -5.0242170   -0.3704250   -0.0870210  
C    -5.9306220   -0.7009750   -1.1003870  
O    -6.2048630    0.2029120   -2.0770530  
C    -6.5266850   -1.9869590   -1.1652520  
O    -7.3824180   -2.1461900   -2.2399880  
C    -6.2460910   -2.9718160   -0.2380680  
H    -5.1011740   -4.4306020    2.2055160  
H    -3.4426390   -0.5473250    2.2942450  
H    -6.9248060   -0.1642460   -2.6191800  
H    -7.8837160   -2.9680290   -2.1340950  
H    -6.7187980   -3.9492190   -0.3116490  
H    -3.4445410   -2.7482240    3.5287910  
C    -0.7994640    1.0505440    0.1062870  
C    -1.9612090    0.3047010    0.0023230  
C    -3.0773250    1.2006410    0.0706330  
C    -2.5043550    2.5597780    0.2051040  
N    -1.1383160    2.3979990    0.2448160  
C    -3.2343630    3.7050340    0.2491830  
C    -4.6822300    3.5983210    0.1667110  
O    -5.4288240    4.5661280    0.1482260  
C    -5.3243280    2.1626310    0.1140930  
O    -6.5340150    2.0675830    0.2180020  
C    -4.4338740    0.9762960    0.0032020  
H    -2.0280450   -0.7534480   -0.1881980  
H    -2.7895860    4.6926660    0.3181050  
H    -0.4334010    3.1238910    0.2101050  
C     1.1840030   -2.8987260    0.7251140  
C     0.2883430   -1.8699650    0.6912080  
C     0.9897820   -0.6957170    0.2442180  
C     2.3813430   -1.1182570    0.0214400  
N     2.4228330   -2.4804420    0.2766300  
C     3.4305570   -0.3163880   -0.3577410  
C     3.1115400    1.1102080   -0.5076410  
O     3.9231160    1.9471280   -0.8651490  
C     1.6490670    1.6027500   -0.2063330  
O     1.4795660    2.8163230   -0.1910120  
C     0.5800690    0.6197640    0.0464630  
H    -0.7453500   -1.9326470    0.9909030  
H     1.0356800   -3.9245630    1.0349870  
H     3.2870560   -2.9867630    0.4040950  
C     5.0393730   -1.9364600   -1.4235000  
C     4.7667410   -0.8280180   -0.6651510  
C     6.0694060   -0.2945710   -0.2438380  
C     7.0946140   -1.1963330   -0.8220430  
N     6.3987410   -2.1714760   -1.5164260  
C     8.4343620   -1.0537130   -0.6666540  
C     8.9217230    0.0577380    0.1454940  
O    10.1072630    0.2680460    0.3468820  
C     7.8555160    1.0117320    0.7936340  
O     8.2338200    1.9293870    1.5017550  
C     6.4305250    0.7594140    0.5288650  
H     9.1620440   -1.7283190   -1.1072290  
H     5.7150100    1.4536450    0.9529860  
H     4.3441090   -2.5800440   -1.9473340  
H     6.8259370   -2.8761950   -2.0978140  
