64


C     1.8928710   -0.5695230    0.0516930  
C     3.1820450   -0.0868310    0.0481380  
C     3.0831180    1.3222060   -0.2649230  
C     1.7128040    1.6231230   -0.4489090  
N     0.9884970    0.4502580   -0.2406800  
C     1.2552720    2.9088080   -0.7595970  
C     2.2070570    3.9059590   -0.8991360  
O     1.8203710    5.1787460   -1.2038970  
C     3.5875030    3.6194440   -0.7254040  
O     4.4115130    4.7174990   -0.8926610  
C     4.0331240    2.3498630   -0.4143580  
H     0.2082570    3.1383940   -0.9174810  
H     2.6296030    5.7127290   -1.2819620  
H     5.3349760    4.4397220   -0.8022560  
H     5.0900850    2.1526180   -0.2603250  
H     1.5311710   -1.5728670    0.2309810  
C    -1.5630580   -0.9134650    2.9504790  
C    -2.7576810   -0.9151040    2.3046590  
C    -2.5262580   -0.4183070    0.9594700  
C    -1.0780020   -0.1360740    0.8821560  
N    -0.5517180   -0.4472370    2.1158070  
C    -0.4157910    0.3092400   -0.2290990  
C    -1.2070990    0.5233600   -1.4421140  
O    -0.7213810    0.8265220   -2.5191170  
C    -2.7706790    0.3565990   -1.3392820  
O    -3.4398110    0.7537920   -2.2738970  
C    -3.3695560   -0.2135610   -0.1017180  
H    -3.7053040   -1.2400480    2.7063580  
H    -1.3270040   -1.2160140    3.9619900  
H     0.4269840   -0.3673020    2.3492950  
C    -6.5138920    1.4339090    2.5683270  
C    -7.5854660    0.8000440    1.9970290  
C    -7.0753900   -0.0111170    0.9274530  
C    -5.6679500    0.1701960    0.9024920  
N    -5.3550840    1.0543210    1.9145270  
C    -4.8245990   -0.4466030   -0.0491670  
C    -5.4535830   -1.2784350   -0.9798070  
O    -4.7024420   -1.9528330   -1.8931640  
C    -6.8574050   -1.4757670   -0.9603610  
O    -7.3087300   -2.3416480   -1.9405470  
C    -7.6692470   -0.8580370   -0.0285220  
H    -8.6191930    0.9009560    2.2979520  
H    -4.4286540    1.3958840    2.1160000  
H    -5.3187090   -2.3889310   -2.5071720  
H    -8.2759560   -2.3096040   -1.9774350  
H    -8.7443670   -1.0262870   -0.0365120  
H    -6.4721330    2.1287030    3.3952540  
C     4.4165430   -3.8277850   -1.8989430  
C     5.5916300   -4.0266660   -1.2209620  
C     5.7384670   -2.9331370   -0.3019530  
C     4.6023090   -2.0990740   -0.4663370  
N     3.8088190   -2.6761190   -1.4370000  
C     4.3945660   -0.9011560    0.2523240  
C     5.3996550   -0.5611130    1.1594020  
O     5.2849430    0.5762390    1.9157510  
C     6.5429690   -1.3821590    1.3367510  
O     7.4332760   -0.8944510    2.2810910  
C     6.7240560   -2.5563300    0.6315100  
H     6.2735280   -4.8546170   -1.3593890  
H     2.9881950   -2.2386850   -1.8285090  
H     6.0656250    0.6044060    2.4959600  
H     8.1542480   -1.5302170    2.3980620  
H     7.6127230   -3.1645820    0.7892070  
H     3.9503970   -4.4188130   -2.6748010  
