64


C     5.1931850    2.3572410    0.6069970  
C     6.5031920    2.4407070    0.2410650  
C     6.9014390    1.1428890   -0.2333600  
C     5.7754960    0.2902900   -0.1171730  
N     4.7261310    1.0530130    0.4137680  
C     5.7972240   -1.0378420   -0.5549660  
C     6.9843490   -1.5208200   -1.0879930  
O     7.0537070   -2.8161560   -1.5210180  
C     8.1244060   -0.6876520   -1.1911390  
O     9.2314430   -1.3092260   -1.7404380  
C     8.0937620    0.6324690   -0.7749970  
H     7.1188460    3.3282820    0.2957590  
H     4.9434210   -1.6978140   -0.4808700  
H     7.9561930   -2.9573760   -1.8544110  
H     9.9666880   -0.6799830   -1.7771220  
H     8.9741480    1.2639950   -0.8794290  
H     4.5228940    3.1088860    0.9908950  
C     0.9756470    2.9932040   -0.4998300  
C     0.0603590    2.0755760   -0.0617440  
C     0.8894300    0.9789300    0.5017410  
C     2.2836460    1.4303510    0.2819530  
N     2.3140930    2.6053780   -0.2912560  
C     3.4204410    0.6231760    0.6971950  
C     3.1445290   -0.5381510    1.3701230  
O     4.0936380   -1.3585370    1.8679410  
C     1.7588770   -0.9857890    1.6288300  
O     1.5917510   -2.0334830    2.2636500  
C     0.6204390   -0.1631930    1.1603820  
H     3.5912210   -2.0885860    2.2931880  
H    -0.3739260   -0.5277180    1.4010990  
H     0.7757280    3.9379100   -0.9896180  
C    -1.3747710    2.1494890   -0.0958040  
C    -2.2090940    3.2594950   -0.1147740  
C    -3.5546870    2.7953720   -0.1453610  
C    -3.5040690    1.3739630   -0.1497190  
N    -2.1752820    1.0077320   -0.0841240  
C    -4.6424740    0.5471970   -0.2173250  
C    -5.8707330    1.2115820   -0.2502970  
O    -7.0261650    0.5009010   -0.2746710  
C    -5.9420200    2.6352710   -0.2311800  
O    -7.2359980    3.1165790   -0.2610880  
C    -4.8157100    3.4288890   -0.1772930  
H    -1.8767490    4.2871540   -0.0592010  
H    -1.8462590    0.0771500   -0.2971290  
H    -7.7582870    1.1400390   -0.3274220  
H    -7.2222550    4.0846030   -0.2921930  
H    -4.9003450    4.5133740   -0.1677450  
C    -2.8367880   -2.2472890    2.6937140  
C    -3.0549150   -3.4096700    2.0028950  
C    -3.7277790   -3.0586810    0.7835110  
C    -3.8894180   -1.6491860    0.7888690  
N    -3.3234630   -1.1777810    1.9584940  
C    -4.5249340   -0.9319280   -0.2480920  
C    -4.9983010   -1.6936380   -1.3180190  
O    -5.5890250   -1.0807910   -2.3817110  
C    -4.8476310   -3.1055600   -1.3358400  
O    -5.3695790   -3.7012550   -2.4705720  
C    -4.2226810   -3.7916510   -0.3127010  
H    -2.7634180   -4.4011010    2.3210920  
H    -3.3857000   -0.2237180    2.2790940  
H    -5.8580210   -1.7819610   -3.0002430  
H    -5.2358270   -4.6591620   -2.4219630  
H    -4.1187750   -4.8740610   -0.3566390  
H    -2.3605980   -2.0828160    3.6499430  
