60


C     7.1657950   -1.6522910    0.2247770  
C     6.2143870   -0.6579480    0.2482040  
C     4.9799860   -1.2319420   -0.1966740  
C     5.2492860   -2.5952860   -0.4670440  
N     6.5856990   -2.8195410   -0.2104880  
C     4.2742930   -3.5077210   -0.8925800  
C     2.9814910   -3.0405520   -1.0402640  
O     1.9933130   -3.8845640   -1.4407220  
C     2.6560730   -1.6809580   -0.7811370  
O     1.3514780   -1.3991720   -0.9891800  
C     3.6419950   -0.7362580   -0.3764550  
H     6.3952270    0.3509580    0.5824900  
H     7.0573090   -3.7041510   -0.3180420  
H     4.4962450   -4.5496410   -1.1011030  
H     1.1811700   -3.3505900   -1.5171780  
H     1.2115740   -0.4290280   -0.7639930  
H     8.2134200   -1.6176590    0.4873040  
C     3.2903510    0.6428120   -0.1842950  
C     4.0637080    1.7711880    0.0094550  
C     3.1664000    2.8676450    0.1258970  
C     1.7933120    2.2677800   -0.0055030  
N     1.8877010    0.9840140   -0.1988040  
C     0.5730440    3.0556800    0.0594950  
C     0.7770960    4.4103520    0.2318870  
O    -0.1786160    5.3118890    0.3610220  
C     2.1633980    5.0428310    0.3489220  
O     2.1704950    6.2701420    0.5047980  
C     3.3375280    4.2114040    0.2898600  
H     5.1385530    1.8440110    0.0095480  
H     0.3115610    6.1686660    0.4708780  
H     4.3076510    4.6892280    0.3770850  
C    -0.7406240    2.4438410   -0.0485760  
C    -1.0997470    1.1372820    0.1743760  
C    -2.5173280    1.0673610   -0.0806780  
C    -2.8834580    2.4617680   -0.4808400  
N    -1.8560530    3.2574260   -0.4574150  
C    -4.2248300    2.8170320   -0.8648770  
C    -5.1598520    1.8405710   -0.8395930  
O    -6.4502990    2.0232100   -1.1537280  
C    -4.8372770    0.4308230   -0.4047400  
O    -5.7829910   -0.3470410   -0.3088250  
C    -3.4385720    0.0601510   -0.0603000  
H    -0.4661420    0.3265270    0.4929810  
H    -4.4561010    3.8352800   -1.1565700  
H    -6.8766580    1.1485930   -1.0089420  
C    -1.6006400   -1.9513200    3.4746790  
C    -2.0938340   -1.0335800    2.6025390  
C    -2.5597560   -1.7526060    1.4362820  
C    -2.3010870   -3.1883220    1.7108200  
N    -1.7084980   -3.2364760    2.9575220  
C    -2.6240250   -4.2129970    0.8802300  
C    -3.2736230   -3.8940550   -0.3828390  
O    -3.6377520   -4.7411880   -1.1836800  
C    -3.5039520   -2.3808290   -0.7338360  
O    -3.9101060   -2.0973010   -1.8464840  
C    -3.1613510   -1.3440950    0.2745240  
H    -2.1253280    0.0349600    2.7491470  
H    -2.4409950   -5.2562220    1.1184690  
H    -1.1653740   -1.8003980    4.4536950  
H    -1.4373570   -4.0828570    3.4326180  
