62


C    -3.8131330    1.2866860    2.7426280  
C    -3.1239830    1.0796200    1.5703860  
C    -4.0698930    0.6381270    0.5784990  
C    -5.3316810    0.5970480    1.2228250  
N    -5.1413460    0.9850970    2.5358180  
C    -6.5027950    0.2069260    0.5604660  
C    -6.3945730   -0.1459590   -0.7747790  
O    -7.5035220   -0.5273910   -1.4682370  
C    -5.1344680   -0.1125530   -1.4345390  
O    -5.1937230   -0.4954630   -2.7589680  
C    -3.9799060    0.2694150   -0.7790260  
H    -5.8674660    1.0621100    3.2306500  
H    -7.4722390    0.1759910    1.0469800  
H    -7.2236760   -0.7201470   -2.3799250  
H    -4.3268600   -0.3737470   -3.1737970  
H    -3.0271700    0.2928270   -1.3023560  
H    -3.4540480    1.6318790    3.7011950  
C    -0.7592360    0.5766890    2.1428950  
C     0.4906470    0.9919880    1.7513320  
C     0.3105470    1.9616030    0.7007500  
C    -1.0907680    2.1007550    0.5238810  
N    -1.7284620    1.2322440    1.4045890  
C    -1.6616770    3.0245060   -0.3581360  
C    -0.7886320    3.8316700   -1.0683380  
O    -1.2693690    4.7646880   -1.9309220  
C     0.6225470    3.7113230   -0.9276630  
O     1.3238380    4.5659310   -1.7371280  
C     1.2062130    2.7605120   -0.0813520  
H     1.4221030    0.6878510    2.2069560  
H    -2.7332380    3.1419270   -0.4702460  
H    -0.4851820    5.2350460   -2.2747490  
H     2.1050780    4.8868870   -1.2232980  
H    -1.0577300   -0.1304380    2.9039660  
C     3.4328430   -0.9913390   -0.1518460  
C     4.7122230   -0.5236400    0.0038110  
C     4.6440630    0.9149940    0.0745800  
C     3.2116050    1.2703900   -0.0501230  
N     2.5417930    0.0815650   -0.1937210  
C     2.6705670    2.5361190   -0.0234730  
C     3.6615010    3.6125950    0.0420640  
O     3.3901200    4.8059380   -0.0964680  
C     5.1817050    3.2688500    0.2838760  
O     5.9555240    4.1945450    0.4671200  
C     5.5972700    1.8721120    0.2510330  
H     5.6011500   -1.1270720    0.1156720  
H     6.6504790    1.6476800    0.3839720  
H     1.5502400    0.0223480   -0.3721770  
C     2.9253770   -2.3421160   -0.1926880  
C     3.5532590   -3.5052350   -0.5465720  
C     2.6018010   -4.5791090   -0.4092080  
C     1.3426150   -3.9566150    0.0689870  
N     1.5796060   -2.5896880    0.1299630  
C     0.2158730   -4.6454290    0.3718160  
C     0.2202180   -6.0973650    0.1916500  
O    -0.7475000   -6.7990870    0.4378450  
C     1.5310980   -6.7733140   -0.3536140  
O     1.5483630   -7.9822930   -0.5225790  
C     2.6899230   -5.9194890   -0.6291420  
H     4.5652900   -3.5908190   -0.9154820  
H    -0.6954080   -4.1759110    0.7292060  
H     3.5955910   -6.3980250   -0.9890630  
H     1.0351900   -1.9664380    0.7147710  
