62


C     5.2918360    0.2330190   -2.1136040  
C     6.2775030   -0.6658120   -2.4160980  
C     6.4478660   -1.5115860   -1.2686810  
C     5.5181890   -1.0736060   -0.2891080  
N     4.8166730    0.0054200   -0.8239940  
C     5.3882240   -1.6965570    0.9622590  
C     6.2256100   -2.7695550    1.2324330  
O     6.1400820   -3.4106440    2.4340020  
C     7.1691730   -3.2124540    0.2687600  
O     7.9307030   -4.2872910    0.6868840  
C     7.2841000   -2.6041380   -0.9681370  
H     6.8258600   -0.7156110   -3.3469300  
H     4.6512520   -1.3923520    1.6976890  
H     6.7945390   -4.1301970    2.4236950  
H     8.5362930   -4.5500770   -0.0218300  
H     8.0079700   -2.9685360   -1.6946710  
H     4.8817010    1.0487200   -2.6913560  
C     0.5874910    0.7808060   -1.8678480  
C     1.8728300    0.3240430   -1.8629370  
C     2.5220910    0.9031750   -0.7186780  
C     1.5746260    1.7241070   -0.0612660  
N     0.3781620    1.6402040   -0.7841320  
C     1.8531070    2.3796000    1.1421150  
C     3.1258560    2.2298240    1.6718630  
O     3.4515010    2.8564530    2.8368240  
C     4.1080550    1.4458230    1.0146340  
O     5.3322300    1.4311370    1.6370620  
C     3.8168030    0.7787430   -0.1734560  
H     2.3166500   -0.3373850   -2.5932890  
H     1.1341630    3.0043080    1.6560080  
H     4.3746950    2.6252890    3.0403490  
H     5.8973240    0.7439900    1.2447280  
H    -0.2105920    0.6157530   -2.5762420  
C    -3.7062990    0.0158480   -0.5866340  
C    -2.3408580    0.1754040   -0.6924750  
C    -2.0332120    1.5606040   -0.5039820  
C    -3.3227130    2.2463220   -0.2780870  
N    -4.2939730    1.2567280   -0.2919660  
C    -3.4787110    3.5791820   -0.0782500  
C    -2.2864890    4.4115480   -0.0525070  
O    -2.3055690    5.6127930    0.1642950  
C    -0.8902170    3.7277010   -0.3011020  
O     0.1004390    4.4338060   -0.3642030  
C    -0.8458150    2.2589110   -0.4878420  
H    -1.6257450   -0.6244430   -0.8131280  
H    -4.4418320    4.0500960    0.0906590  
H    -5.2658340    1.4587260   -0.4771440  
C    -4.1783910   -2.3376360   -1.3632970  
C    -4.4956630   -1.1758340   -0.7017700  
C    -5.8320320   -1.4431680   -0.1293730  
C    -6.1427400   -2.8303530   -0.5773410  
N    -5.1629660   -3.3340020   -1.2903410  
C    -7.3675620   -3.4841490   -0.2212300  
C    -8.2447510   -2.8071310    0.5631620  
O    -9.4236670   -3.2988210    0.9684860  
C    -7.9501770   -1.4198740    1.0573360  
O    -8.7880270   -0.8682870    1.7677270  
C    -6.6770740   -0.7690100    0.6747880  
H    -7.5650280   -4.4918040   -0.5693660  
H    -9.8304110   -2.5966320    1.5221340  
H    -6.4937370    0.2190880    1.0850270  
H    -3.2780220   -2.5333470   -1.9337900  
