60


C    -6.0790980   -3.3773710    1.6356860  
C    -7.3775920   -3.2068950    1.2368500  
C    -7.4303490   -1.9725640    0.5048020  
C    -6.1191020   -1.4285570    0.5137020  
N    -5.3205040   -2.2886990    1.2409510  
C    -5.7914870   -0.1919370   -0.0924810  
C    -6.8303610    0.4285040   -0.8029230  
O    -6.5913420    1.5644150   -1.5155810  
C    -8.1408020   -0.1126250   -0.8224310  
O    -9.0399270    0.6450980   -1.5541030  
C    -8.4588110   -1.2827950   -0.1641640  
H    -8.2036800   -3.8743500    1.4411340  
H    -4.3206240   -2.3210170    1.0813050  
H    -7.4442290    1.8488430   -1.8883800  
H    -9.9129860    0.2275780   -1.5221770  
H    -9.4754310   -1.6708840   -0.1840920  
H    -5.6214110   -4.1872670    2.1867140  
C    -1.6667570   -1.6937140   -0.6790130  
C    -0.9141190   -0.5667380   -0.5589870  
C    -1.8940060    0.4862820   -0.2362660  
C    -3.2170210   -0.2182370   -0.2304640  
N    -3.0563940   -1.4933160   -0.4729640  
C    -4.4723950    0.4703740    0.0233910  
C    -4.3498510    1.7920760    0.3696310  
O    -5.3798610    2.5634350    0.7363160  
C    -3.0417800    2.5217880    0.3660140  
O    -3.0442050    3.7148690    0.6686250  
C    -1.7988860    1.8006950    0.0254410  
H    -4.9940280    3.4520240    0.9032610  
H    -0.8729180    2.3663710    0.0394320  
H    -1.3135630   -2.6958650   -0.8937710  
C     1.2265790   -0.9255050   -1.8287000  
C     0.5212880   -0.4218330   -0.7723060  
C     1.4996530    0.2329910    0.0959670  
C     2.8166440    0.0749400   -0.5617420  
N     2.5753980   -0.6129360   -1.7362610  
C     4.0135860    0.5178050   -0.0672950  
C     3.9670440    1.2032150    1.2403200  
O     4.9583890    1.6641880    1.7808690  
C     2.5804350    1.3558820    1.9678390  
O     2.5554610    1.8908510    3.0639810  
C     1.3820740    0.8425160    1.3055710  
H     0.4350320    0.9482390    1.8239440  
H     0.8542680   -1.4750370   -2.6831340  
H     3.3062000   -0.9975330   -2.3160140  
C     5.4993170    0.7170430   -2.0998390  
C     5.2817760    0.3774810   -0.7932550  
C     6.5558510   -0.1515150   -0.2929580  
C     7.5084830   -0.0880330   -1.4275190  
N     6.7986190    0.4355080   -2.4936070  
C     8.8053640   -0.4834860   -1.3754130  
C     9.3112020   -1.0321430   -0.1210160  
O    10.4604700   -1.4189380    0.0239630  
C     8.3134610   -1.1353560    1.0888470  
O     8.7039910   -1.6177460    2.1387540  
C     6.9368930   -0.6513680    0.9085190  
H     9.4836690   -0.4197860   -2.2207800  
H     6.2751690   -0.6955480    1.7657240  
H     4.8126860    1.1771580   -2.7991970  
H     7.2048120    0.6982810   -3.3782570  
