60


C     4.1552220   -1.1429000   -2.5959670  
C     5.3411940   -1.8107120   -2.7119050  
C     5.9759040   -1.7809390   -1.4229290  
C     5.1145520   -1.0707080   -0.5498470  
N     3.9975270   -0.6799550   -1.2880060  
C     5.4045270   -0.8741480    0.8059260  
C     6.5990750   -1.3906450    1.2847940  
O     6.9323680   -1.2253780    2.5980650  
C     7.4806560   -2.0950430    0.4229620  
O     8.6271760   -2.5491470    1.0476430  
C     7.1835920   -2.2960180   -0.9123970  
H     5.7260650   -2.2646190   -3.6149400  
H     4.7450070   -0.3368620    1.4781500  
H     7.8084670   -1.6284270    2.7251740  
H     9.2131000   -2.9551230    0.3919770  
H     7.8701110   -2.8470790   -1.5522950  
H     3.3962050   -0.9192170   -3.3320450  
C     1.5990690   -0.4122900   -0.7970420  
C     2.8852690    0.0288220   -0.8066500  
C     2.8827910    1.3946380   -0.3026520  
C     1.4687870    1.7098560    0.0002650  
N     0.7216880    0.5724450   -0.3330710  
C     1.0557060    2.8805130    0.5413160  
C     2.0561250    3.9145650    0.8105120  
O     1.7739710    4.9913090    1.3116390  
C     3.5541700    3.6147530    0.4442720  
O     4.3966010    4.4758610    0.6377260  
C     3.8794510    2.2941640   -0.1057260  
H     0.0201570    3.1043370    0.7683770  
H     4.9185760    2.0727830   -0.3258670  
H     1.2092020   -1.3679530   -1.1193240  
C    -1.6635630   -2.5251570    1.6286440  
C    -0.6419760   -1.7265410    1.2143830  
C    -1.2266850   -0.6486120    0.4509940  
C    -2.6867720   -0.8793410    0.4546960  
N    -2.8816590   -2.0380780    1.1852840  
C    -3.6231120   -0.0935240   -0.1577050  
C    -3.1143590    1.1115800   -0.8441590  
O    -3.8428950    1.9829910   -1.2801650  
C    -1.5622480    1.3245310   -0.9660910  
O    -1.1473060    2.2194070   -1.6791040  
C    -0.6730860    0.4134490   -0.2179210  
H     0.4060200   -1.8668010    1.4321000  
H    -1.6275470   -3.4259100    2.2269360  
H    -3.7836890   -2.4533370    1.3591020  
C    -6.6580840   -0.6416750    3.0772310  
C    -5.5049730   -0.4337390    2.3862090  
C    -5.8260550   -0.5147070    0.9753480  
C    -7.2825390   -0.7865730    0.9038850  
N    -7.7185100   -0.8760350    2.2145190  
C    -8.0014910   -0.8915850   -0.2424520  
C    -7.2999110   -0.7351330   -1.5104380  
O    -7.8584000   -0.7801050   -2.5946470  
C    -5.7451440   -0.5181480   -1.4730870  
O    -5.1272940   -0.5406100   -2.5213030  
C    -5.0677740   -0.3627040   -0.1569980  
H    -4.5388410   -0.2110070    2.8133870  
H    -9.0727070   -1.0663390   -0.2633420  
H    -6.8240540   -0.6405880    4.1465540  
H    -8.6830860   -0.9733030    2.4913390  
