60


C    -4.1662180   -3.1189250    2.4449300  
C    -5.1551250   -3.8494880    1.8404260  
C    -5.7362050   -3.0145890    0.8271260  
C    -5.0465340   -1.7746900    0.8636190  
N    -4.1004250   -1.8659050    1.8624190  
C    -5.3749290   -0.6821230    0.0274730  
C    -6.4151490   -0.8945380   -0.8829250  
O    -6.7431080    0.0829670   -1.7714660  
C    -7.1045920   -2.1322740   -0.9359890  
O    -8.0944700   -2.1714250   -1.9005330  
C    -6.7852160   -3.1831290   -0.0976440  
H    -5.4433200   -4.8611070    2.0909920  
H    -3.4361860   -1.1434830    2.0939070  
H    -7.5242710   -0.2247740   -2.2635840  
H    -8.5901340   -2.9998210   -1.8230810  
H    -7.3332560   -4.1213970   -0.1570070  
H    -3.4959730   -3.3824340    3.2509300  
C    -1.0908130    0.6617700   -0.1654620  
C    -2.2234460   -0.1194320   -0.1765770  
C    -3.3245930    0.7792310    0.0445690  
C    -2.6778730    2.1218190    0.1775460  
N    -1.3817170    2.0464620    0.0585670  
C    -3.4421780    3.3213070    0.3891000  
C    -4.7854430    3.1898630    0.4689340  
O    -5.6313140    4.2077640    0.6653460  
C    -5.4765420    1.8415910    0.3770140  
O    -6.6881950    1.8437780    0.5756940  
C    -4.6818360    0.6150670    0.1139960  
H    -2.2969800   -1.1831330   -0.3532700  
H    -2.9451280    4.2809920    0.4749030  
H    -6.5221580    3.7915800    0.7215280  
C     0.7328910   -1.0037410   -0.6116400  
C     0.2833570    0.2699420   -0.3585850  
C     1.4785320    1.1234600   -0.3260810  
C     2.6302940    0.2349050   -0.5934210  
N     2.0995110   -1.0316640   -0.7767860  
C     3.9458560    0.6066260   -0.6351740  
C     4.2247970    2.0327490   -0.3725870  
O     5.3527670    2.4970110   -0.3741840  
C     3.0140990    2.9967950   -0.0914590  
O     3.2523690    4.1726410    0.1281880  
C     1.6545740    2.4498030   -0.0954670  
H     0.8187740    3.1112180    0.0957590  
H     0.1612940   -1.9182580   -0.6983010  
H     2.6628400   -1.8653410   -0.8588670  
C     5.0810290   -1.1504630   -2.0527620  
C     5.0340830   -0.3221170   -0.9662450  
C     6.2738590   -0.5605360   -0.2189120  
C     7.0210690   -1.5983330   -0.9693030  
N     6.2338800   -1.9223350   -2.0601660  
C     8.2301660   -2.0971230   -0.6080890  
C     8.8454990   -1.5987690    0.6180290  
O     9.9272290   -1.9890440    1.0292420  
C     8.0605140   -0.5171550    1.4454460  
O     8.5406140   -0.1068380    2.4888280  
C     6.7665170   -0.0428500    0.9333460  
H     8.7597440   -2.8528960   -1.1800750  
H     6.2579410    0.7310960    1.4965600  
H     4.3704600   -1.2366350   -2.8652360  
H     6.5277960   -2.5142530   -2.8217050  
