60


C    -2.7158360    5.6031990   -0.1206670  
C    -2.2076430    4.3333440    0.0396390  
C    -0.7878260    4.4135560   -0.1213870  
C    -0.4922770    5.7759660   -0.3704220  
N    -1.6827480    6.4718860   -0.3721560  
C     0.8072130    6.2672530   -0.5517310  
C     1.8510680    5.3637180   -0.4683780  
O     3.1340860    5.7863040   -0.6294170  
C     1.6127890    3.9867110   -0.2169440  
O     2.7423520    3.2478780   -0.1714640  
C     0.2934910    3.4659010   -0.0588900  
H    -2.8025140    3.4654970    0.2737190  
H    -1.7751440    7.4648520   -0.5216950  
H     1.0169640    7.3144550   -0.7457210  
H     3.6975440    4.9939450   -0.5604850  
H     2.4662090    2.2934910    0.0097160  
H    -3.7368730    5.9535390   -0.0731080  
C     0.0938960    2.0589840    0.1280500  
C    -1.0607810    1.2852650    0.1417750  
C    -0.6596180   -0.0558210    0.3499190  
C     0.8335990    0.0040720    0.4451070  
N     1.2505430    1.2352500    0.3155030  
C     1.6729390   -1.1582530    0.6312030  
C     0.9882710   -2.3397970    0.7143890  
O     1.5777200   -3.5133590    0.9377660  
C    -0.5235410   -2.4604220    0.6227580  
O    -0.9572380   -3.5969880    0.8090770  
C    -1.3474710   -1.2605160    0.4085180  
H    -2.0656120    1.6158140   -0.0514110  
H     0.8286130   -4.1607130    0.9773340  
C    -2.7836320   -1.3753880    0.2989450  
C    -3.7385270   -0.4586490    0.6754610  
C    -5.0078150   -1.0503810    0.3398860  
C    -4.6452590   -2.3679220   -0.2760100  
N    -3.3602180   -2.5590070   -0.2912900  
C    -5.6550000   -3.2671410   -0.7749440  
C    -6.9491010   -2.8915080   -0.6468620  
O    -7.9933710   -3.6262810   -1.0556360  
C    -7.3454840   -1.5766080   -0.0143020  
O    -8.5506750   -1.3272120    0.0526480  
C    -6.3026720   -0.6709300    0.4736940  
H    -3.5846280    0.4783530    1.1904010  
H    -5.3678230   -4.2113680   -1.2237820  
H    -8.7873400   -3.0921830   -0.8262200  
H    -6.6243430    0.2680240    0.9138360  
C     3.7948780   -0.0413070    1.4021160  
C     3.1306000   -1.0362430    0.7374290  
C     4.1619690   -1.8935600    0.1492070  
C     5.4663990   -1.3117840    0.5545540  
N     5.1659110   -0.1987330    1.3166800  
C     6.6811770   -1.8063710    0.2079220  
C     6.7296990   -2.9933440   -0.6395190  
O     7.7735120   -3.5135020   -1.0026610  
C     5.3640880   -3.6128000   -1.1078620  
O     5.3778820   -4.5953130   -1.8321150  
C     4.1157800   -2.9856150   -0.6568730  
H     7.6189590   -1.3568800    0.5200280  
H     3.1877220   -3.4405220   -0.9798350  
H     3.3800420    0.7913370    1.9521120  
H     5.8474060    0.4227080    1.7236960  
