60


C    -2.8380640   -2.2623260    0.5686030  
C    -3.6302800   -3.3530960    0.7149780  
C    -4.9999400   -2.9300180    0.5402640  
C    -4.9869880   -1.5403440    0.2845500  
N    -3.6287680   -1.1269560    0.3028890  
C    -6.1585290   -0.8129990    0.0664200  
C    -7.3620320   -1.5100730    0.1100460  
O    -8.5282620   -0.8383810   -0.0966280  
C    -7.3896060   -2.9017220    0.3655790  
O    -8.6528250   -3.4489570    0.3768360  
C    -6.2206050   -3.6169090    0.5805100  
H    -3.2874310   -4.3567240    0.9280120  
H    -6.1468420    0.2498170   -0.1266050  
H    -9.2548030   -1.4810200   -0.0230380  
H    -8.6003810   -4.3965610    0.5715970  
H    -6.2541770   -4.6864940    0.7758310  
H    -1.7662590   -2.1674660    0.6325280  
C    -3.1145090    0.1210580    0.1120540  
C    -1.7637100    0.4887090    0.1256920  
C    -1.7545540    1.8772120   -0.1051760  
C    -3.2121720    2.2380040   -0.2405020  
N    -3.9911540    1.1897310   -0.1187260  
C    -3.6521050    3.5760870   -0.4539510  
C    -2.6891950    4.5307110   -0.5172540  
O    -2.9342960    5.8202330   -0.7109360  
C    -1.1934710    4.2217930   -0.4075580  
O    -0.4644610    5.1972660   -0.5830310  
C    -0.7513240    2.8427610   -0.1727180  
H    -0.9120590   -0.1415430    0.3205860  
H    -4.7073640    3.8049260   -0.5500840  
H    -2.0367030    6.2390740   -0.7419320  
C     0.6548860    2.5415720   -0.0442530  
C     1.3097390    1.3730560   -0.3746100  
C     2.6863820    1.5701960   -0.0156190  
C     2.7111540    2.9437840    0.5685430  
N     1.5419460    3.5133570    0.5349310  
C     3.9170550    3.5185440    1.1081700  
C     5.0403210    2.7690160    1.0575720  
O     6.2333290    3.1656040    1.5270140  
C     5.0613240    1.3886610    0.4458980  
O     6.1515130    0.8133680    0.4324330  
C     3.8206000    0.8015120   -0.1115630  
H     0.8835180    0.5006420   -0.8454980  
H     3.9019140    4.5147670    1.5354650  
H     6.8472300    2.4224330    1.3322800  
C     3.2257890   -0.7535270   -1.9761260  
C     3.8668600   -0.4905870   -0.7943800  
C     4.5230190   -1.7441100   -0.4016680  
C     4.1940140   -2.7333240   -1.4588800  
N     3.4042360   -2.0638030   -2.3762190  
C     4.6048590   -4.0261350   -1.4739670  
C     5.4177510   -4.5070600   -0.3617070  
O     5.8324100   -5.6531260   -0.2824370  
C     5.7553470   -3.4908120    0.7871860  
O     6.4128240   -3.8731900    1.7413060  
C     5.2640720   -2.1105430    0.6740750  
H     4.3495010   -4.7236430   -2.2659020  
H     5.5389640   -1.4202410    1.4620060  
H     2.6535590   -0.0711830   -2.5902450  
H     3.0891260   -2.4501800   -3.2528190  
