60


C     3.3272390   -0.7454670   -0.1679460  
C     2.9011810   -2.0609320   -0.2466120  
C     4.0567220   -2.8859630   -0.3841630  
C     5.1861780   -2.0209110   -0.3861410  
N     4.7181400   -0.7320720   -0.2260060  
C     6.4971600   -2.4891690   -0.5184720  
C     6.6750790   -3.8589460   -0.6442040  
O     7.9292480   -4.3696840   -0.7784500  
C     5.5583470   -4.7427900   -0.6309860  
O     5.9064440   -6.0720100   -0.7597300  
C     4.2654360   -4.2772880   -0.5009150  
H     1.8744150   -2.3914420   -0.1646550  
H     5.2678550    0.1009920   -0.3735200  
H     7.3616000   -1.8334970   -0.5229510  
H     7.8447380   -5.3367930   -0.8453270  
H     5.1093310   -6.6219390   -0.7381730  
H     3.4270920   -4.9707940   -0.4954710  
C     1.2939370    0.6718200   -0.5416050  
C     2.5571340    0.4735180   -0.0536610  
C     2.9519220    1.7299830    0.5768980  
C     1.8184840    2.6658210    0.3939490  
N     0.8235630    1.9588020   -0.2963850  
C     1.7872750    3.9249590    0.8898440  
C     2.9516000    4.4152350    1.6306250  
O     3.0053710    5.5367130    2.1084160  
C     4.1654090    3.4433040    1.8294520  
O     5.1444560    3.8267950    2.4489070  
C     4.0635820    2.0920190    1.2695240  
H     0.9513390    4.6001940    0.7565150  
H     4.8833690    1.4099120    1.4694370  
H     0.6781560   -0.0129690   -1.1079520  
C    -3.2023840    0.2551400    0.2737310  
C    -1.8469960    0.5321660    0.3378730  
C    -1.5926050    1.7137710   -0.4158810  
C    -2.8972900    2.1544490   -0.9526990  
N    -3.8230810    1.1994070   -0.5554390  
C    -3.1046630    3.2892080   -1.6648260  
C    -1.9556860    4.1332230   -1.9678960  
O    -2.0399060    5.1944250   -2.5639450  
C    -0.5308240    3.6460800   -1.5161960  
O     0.4490150    4.2763460   -1.8788030  
C    -0.4440880    2.4307190   -0.6884970  
H    -1.1152180   -0.0753270    0.8494620  
H    -4.0801780    3.5992780   -2.0257320  
H    -4.8098000    1.4057840   -0.4927480  
C    -3.5814000   -1.5495200    1.9922170  
C    -3.9437870   -0.7974510    0.8939130  
C    -5.2659870   -1.3343250    0.5141380  
C    -5.5212800   -2.3994240    1.5222810  
N    -4.5199760   -2.5082170    2.3709450  
C    -6.7143270   -3.1881610    1.5042290  
C    -7.6182450   -2.9509650    0.5171880  
O    -8.7739180   -3.6145450    0.3847510  
C    -7.3803560   -1.9067500   -0.5344050  
O    -8.2392600   -1.7532110   -1.4022730  
C    -6.1375900   -1.1089090   -0.4910540  
H    -6.8716600   -3.9519620    2.2574900  
H    -9.2084500   -3.2370310   -0.4118200  
H    -5.9937100   -0.3931090   -1.2942610  
H    -2.6760980   -1.4420340    2.5787260  
