62


C    -6.7194250    2.1163880   -0.7493320  
C    -8.0039850    1.6669360   -0.6491810  
C    -7.9587760    0.3828790   -0.0032660  
C    -6.5974100    0.0995610    0.2691460  
N    -5.8403840    1.1732770   -0.2101070  
C    -6.1927770   -1.0533350    0.9532980  
C    -7.1774640   -1.9549960    1.3308220  
O    -6.8310020   -3.0960320    1.9927780  
C    -8.5429650   -1.6991660    1.0415790  
O    -9.4010170   -2.6885910    1.4781030  
C    -8.9406110   -0.5456070    0.3894680  
H    -8.8847930    2.1825300   -1.0068100  
H    -5.1595300   -1.2598590    1.2069420  
H    -7.6518960   -3.5834310    2.1792910  
H   -10.3147590   -2.4403110    1.2739810  
H    -9.9946670   -0.3588220    0.1939070  
H    -6.3194140    3.0167420   -1.1925490  
C    -3.7735200    2.4579010    0.2502000  
C    -4.4571420    1.3460370   -0.1216000  
C    -3.4251700    0.3966390   -0.5776940  
C    -2.1420200    1.1252910   -0.3616120  
N    -2.3669070    2.3189690    0.1114260  
C    -0.8380860    0.5230640   -0.6593670  
C    -0.8905370   -0.7228470   -1.2504710  
O     0.1651760   -1.4358860   -1.6626060  
C    -2.1827600   -1.4325890   -1.5280350  
O    -2.1199570   -2.5399770   -2.0666420  
C    -3.4661400   -0.8161540   -1.1523070  
H    -0.2290480   -2.2618190   -2.0310100  
H    -4.3733950   -1.3783800   -1.3479540  
H    -4.1780950    3.3914310    0.6202880  
C     0.3915320    1.2333140   -0.3574170  
C     0.5530640    2.5315550    0.0469160  
C     1.9777390    2.7240340    0.1889250  
C     2.5786510    1.3990380   -0.1566600  
N     1.6547310    0.5429490   -0.4635360  
C     4.0301540    1.1524520   -0.1254740  
C     4.7824680    2.2572410    0.1858170  
O     6.1370210    2.2708680    0.1921410  
C     4.2073200    3.5825560    0.5309280  
O     4.9941610    4.5030510    0.7918080  
C     2.7499170    3.7744270    0.5329980  
H    -0.2245480    3.2566940    0.2236830  
H     6.3621820    3.1994250    0.4326250  
H     2.3724300    4.7572060    0.7985200  
C     3.8863190   -1.0970730   -1.2316940  
C     4.5559990   -0.1719640   -0.4375460  
C     5.7904510   -0.8254680   -0.0193150  
C     5.7931900   -2.1164690   -0.6057730  
N     4.6280130   -2.2373930   -1.3440870  
C     6.8079850   -3.0568530   -0.4051940  
C     7.8573280   -2.6961120    0.4258840  
O     8.8787580   -3.5711240    0.6600170  
C     7.8698130   -1.4194560    1.0394320  
O     8.9703730   -1.1991390    1.8491040  
C     6.8614700   -0.4948640    0.8354510  
H     4.3466530   -3.0595460   -1.8554440  
H     6.7959010   -4.0407480   -0.8632180  
H     9.5037880   -3.1243400    1.2567900  
H     8.9366040   -0.2937380    2.1915700  
H     6.9109050    0.4785820    1.3090150  
H     2.9177380   -1.0097480   -1.6966780  
