62


C    -0.2683600    3.9205590    1.7551580  
C    -1.0431000    5.0251720    1.9340650  
C    -2.1859760    4.8997720    1.0670580  
C    -2.0519300    3.6761100    0.3684910  
N    -0.8638570    3.0715340    0.8110420  
C    -2.9703070    3.2688340   -0.6067360  
C    -4.0635510    4.0906840   -0.8444270  
O    -4.9870600    3.7251640   -1.7783960  
C    -4.2259780    5.3062850   -0.1329960  
O    -5.3596960    6.0082040   -0.4808300  
C    -3.2983760    5.7194960    0.8075140  
H    -0.8364780    5.8363360    2.6186170  
H    -2.8519940    2.3685260   -1.1964080  
H    -5.6571860    4.4297930   -1.8157690  
H    -5.4031150    6.8351320    0.0220660  
H    -3.4268400    6.6648870    1.3301660  
H     0.6456140    3.6140690    2.2410860  
C    -0.3330690    1.8551090    0.4273050  
C     0.9728100    1.4431460    0.4016020  
C     0.9863400    0.0560440    0.0276080  
C    -0.4173920   -0.3267900   -0.1656570  
N    -1.1773140    0.8245500    0.0129190  
C    -0.9007470   -1.5806310   -0.4477820  
C     0.1111020   -2.6301060   -0.5578990  
O    -0.1423640   -3.7929080   -0.8324220  
C     1.6233940   -2.2603070   -0.3170160  
O     2.4051260   -3.2041510   -0.2702410  
C     2.0260910   -0.8503710   -0.1423160  
H     1.8273640    2.0587950    0.6267020  
H    -2.1483060    0.7720900    0.2944510  
C     3.4273240   -0.4954580   -0.1152290  
C     4.0594770    0.7423880   -0.2691200  
C     5.4601960    0.5253850   -0.2046210  
C     5.6542300   -0.8748900   -0.0092250  
N     4.4165710   -1.4580010    0.0435880  
C     6.9265370   -1.4510260    0.0962770  
C     8.0196500   -0.6054440    0.0007010  
O     9.2806510   -1.1104840    0.0942860  
C     7.8452910    0.7968320   -0.1963730  
O     9.0355410    1.4944550   -0.2690390  
C     6.5938580    1.3653060   -0.2987970  
H     3.5712080    1.6823250   -0.4769810  
H     4.1876270   -2.4436960    0.0837860  
H     7.0798130   -2.5147150    0.2439540  
H     9.8994990   -0.3659490   -0.0027770  
H     8.8519800    2.4329220   -0.4230280  
H     6.4848810    2.4376370   -0.4490740  
C    -3.1680490   -1.1330520   -1.4709350  
C    -2.3215280   -1.8633140   -0.6829840  
C    -3.1322380   -2.9491970   -0.1176940  
C    -4.5062610   -2.7660440   -0.6472790  
N    -4.4559410   -1.6489040   -1.4574130  
C    -5.5645590   -3.5651910   -0.3557760  
C    -5.3568760   -4.6829290    0.5568760  
O    -6.2457280   -5.4548370    0.8846940  
C    -3.9149220   -4.8864000    1.1485830  
O    -3.7221340   -5.7987450    1.9354930  
C    -2.8481690   -3.9624370    0.7378980  
H    -6.5588190   -3.4097270   -0.7634220  
H    -1.8528960   -4.1426040    1.1263920  
H    -2.9419280   -0.2710260   -2.0850220  
H    -5.2307920   -1.2878420   -1.9917030  
