66


C    -2.6260170    1.6124500    0.2254830  
C    -1.2732940    1.4268690    0.0299510  
C    -0.6196940    2.6729850    0.2960420  
C    -1.6323710    3.6057930    0.6419540  
N    -2.8490620    2.9504930    0.5577470  
C    -1.3654530    4.9391220    0.9636900  
C    -0.0390740    5.3451280    0.9285480  
O     0.2871430    6.6293820    1.2541990  
C     0.9896610    4.4423600    0.5653940  
O     2.2533350    5.0073760    0.5800410  
C     0.7347110    3.1053260    0.2408630  
H    -0.8166130    0.5119970   -0.3182840  
H    -3.6856360    3.2667710    1.0268910  
H    -2.1394420    5.6490920    1.2362870  
H     1.2579120    6.6909400    1.2147970  
H     2.9170360    4.2941620    0.5832870  
C    -3.7271490    0.6855840    0.1002580  
C    -3.7697780   -0.6837250    0.2602940  
C    -5.1163080   -1.1078310    0.0188770  
C    -5.8707550    0.0561140   -0.2871440  
N    -5.0162240    1.1417290   -0.1910440  
C    -7.2333550    0.0139030   -0.5987210  
C    -7.8546430   -1.2266840   -0.5915050  
O    -9.1833650   -1.3237460   -0.8910200  
C    -7.1224180   -2.3993550   -0.2691570  
O    -7.8816970   -3.5553600   -0.2946240  
C    -5.7743270   -2.3545570    0.0361160  
H    -2.9345530   -1.3005070    0.5630480  
H    -5.1912430    2.0303440   -0.6379450  
H    -7.8119350    0.9006340   -0.8371800  
H    -9.4250420   -2.2633430   -0.8218940  
H    -7.3275370   -4.3099930   -0.0472440  
H    -5.2353390   -3.2685770    0.2786370  
C     1.8178630    2.1849130   -0.1010550  
C     1.9766640    0.8477470    0.1786570  
C     3.2167620    0.4156780   -0.3982090  
C     3.8013090    1.5446030   -1.0204510  
N     2.9703730    2.6362560   -0.7806530  
C     5.0178410    1.4900430   -1.7055610  
C     5.6589040    0.2604850   -1.7632540  
O     6.8386100    0.1388790   -2.4366080  
C     5.0994040   -0.8797600   -1.1313130  
O     5.8479680   -2.0268660   -1.2847340  
C     3.8876320   -0.8332340   -0.4370000  
H     1.3014100    0.2464470    0.7685020  
H     2.9192210    3.4150700   -1.4260430  
H     5.4646220    2.3526190   -2.1892910  
H     7.0957070   -0.7989570   -2.3948590  
H     5.3249790   -2.7842390   -0.9684170  
C     0.0664520   -3.1426350   -1.1011220  
C     1.0856400   -2.2289070   -1.1828210  
C     2.0652620   -2.5995870   -0.1997240  
C     1.5798460   -3.7648750    0.4506080  
N     0.3601630   -4.0708860   -0.1182390  
C     2.2853540   -4.4208270    1.4674030  
C     3.5061720   -3.8837330    1.8411300  
O     4.2333350   -4.4684300    2.8372130  
C     4.0129890   -2.7205500    1.2039820  
O     5.2312400   -2.2996520    1.6990020  
C     3.3224390   -2.0623600    0.1847300  
H     1.1369220   -1.3910530   -1.8627670  
H    -0.2198390   -4.8542770    0.1372630  
H     1.9127280   -5.3088070    1.9678920  
H     5.0191510   -3.9122230    2.9796740  
H     5.4182980   -1.4108410    1.3506140  
H    -0.8517410   -3.2139590   -1.6670530  
