60


C    -4.8335960    1.1714640    1.8051400  
C    -6.0543230    0.7918700    2.2737550  
C    -6.5943150   -0.1658640    1.3450010  
C    -5.6520950   -0.3191160    0.3001830  
N    -4.5606450    0.5156200    0.5940650  
C    -5.8389500   -1.2291860   -0.7449830  
C    -7.0123810   -1.9688230   -0.7508400  
O    -7.2416480   -2.8603500   -1.7560000  
C    -7.9761650   -1.8107000    0.2782820  
O    -9.0872410   -2.6150570    0.1335520  
C    -7.7781000   -0.9241970    1.3217010  
H    -6.5319170    1.1665040    3.1690260  
H    -5.1319190   -1.3588230   -1.5541080  
H    -8.1151680   -3.2581950   -1.5988010  
H    -9.7227670   -2.4236560    0.8390820  
H    -8.5185480   -0.8271830    2.1129660  
H    -4.1357130    1.9054210    2.1795740  
C    -0.3859170    0.5212530    1.9128870  
C    -1.7305910    0.3979860    1.8523500  
C    -2.1434640    0.6643750    0.4843600  
C    -0.9202990    0.9540750   -0.2805330  
N     0.1198930    0.8894460    0.6494530  
C    -0.8421430    1.1898460   -1.6150890  
C    -2.0818690    1.1743860   -2.3719680  
O    -2.1425610    1.3041660   -3.5840490  
C    -3.4317690    0.9735750   -1.5852090  
O    -4.4803280    1.1102300   -2.1825190  
C    -3.3728770    0.6627150   -0.1244320  
H    -2.3831880    0.1354490    2.6711480  
H     0.0893440    1.3774280   -2.1372340  
H     0.3014630    0.3912250    2.7372060  
C     2.2065610   -0.1312730   -0.1367210  
C     3.4877820    0.2637700   -0.3625970  
C     3.5828310    1.6849250   -0.0405080  
C     2.2304790    2.1002850    0.3881670  
N     1.4447780    0.9474600    0.3315670  
C     1.8876770    3.3541090    0.7621870  
C     2.9319170    4.3825950    0.7554210  
O     2.7228910    5.5399590    1.0754490  
C     4.3830210    3.9618500    0.3212200  
O     5.2691850    4.7981400    0.3164530  
C     4.6167810    2.5625610   -0.0673060  
H     0.8847090    3.6321280    1.0672310  
H     5.6239570    2.2818410   -0.3588700  
H     1.7444610   -1.1008410   -0.2594940  
C     5.3575430   -0.2679170   -1.9200970  
C     6.3090790   -1.2157470   -2.0877490  
C     6.1456040   -2.1900010   -1.0280610  
C     4.9995090   -1.7238570   -0.2098940  
N     4.5523480   -0.5395690   -0.7995350  
C     4.5342750   -2.3664590    0.8896090  
C     5.1962800   -3.6017200    1.3069250  
O     4.8474810   -4.2398920    2.2875160  
C     6.4049130   -4.1207450    0.4473860  
O     6.9621600   -5.1562870    0.7723330  
C     6.8154920   -3.3300880   -0.7180220  
H     7.0509280   -1.2449840   -2.8726020  
H     3.7004160   -2.0100350    1.4845040  
H     7.6578500   -3.6914070   -1.2999660  
H     5.1466160    0.6114620   -2.5137700  
