64


C    -6.2201520    2.1014340    2.7405200  
C    -7.4309880    2.0317910    2.1007160  
C    -7.2225540    1.2902620    0.8903430  
C    -5.8483910    0.9282570    0.8554030  
N    -5.2634180    1.4519940    1.9884470  
C    -5.2532190    0.2051920   -0.2061580  
C    -6.1230110   -0.1283990   -1.2440230  
O    -5.6476730   -0.8236340   -2.3435500  
C    -7.4939410    0.2196460   -1.2309500  
O    -8.1843460   -0.2067610   -2.3538570  
C    -8.0566980    0.9185340   -0.1815580  
H    -8.3599660    2.4659520    2.4438510  
H    -4.3103750    1.2723750    2.2678240  
H    -6.4075680   -0.9674730   -2.9365910  
H    -9.1193410    0.0296840   -2.2673230  
H    -9.1123160    1.1819780   -0.1926840  
H    -5.9530170    2.5692580    3.6777300  
C    -2.5957660   -1.7425430    2.8458640  
C    -3.6746570   -1.2512900    2.1567250  
C    -3.1729990   -0.7130490    0.9195390  
C    -1.7655250   -0.9056450    0.9349020  
N    -1.4391060   -1.5006890    2.1343850  
C    -0.9095730   -0.5101170   -0.1236850  
C    -1.5784220   -0.0438800   -1.2680030  
O    -0.8930540    0.2288330   -2.4058550  
C    -2.9852650    0.1491590   -1.3028750  
O    -3.4361350    0.6786990   -2.4959750  
C    -3.8062780   -0.1229790   -0.2107240  
H    -4.7068260   -1.2938510    2.4733350  
H    -0.5797400   -2.0431180    2.2070990  
H    -1.5711080    0.5321090   -3.0421960  
H    -4.2475840    0.1876350   -2.7517440  
H    -2.5549900   -2.2555660    3.7967860  
C     2.0099750   -3.5509300    1.3128770  
C     3.1767520   -3.0452210    0.8464870  
C     2.8215970   -1.7695150    0.2387340  
C     1.3500980   -1.6719600    0.3990620  
N     0.8937270   -2.7144680    1.0498530  
C     0.5670450   -0.5364640   -0.0863120  
C     1.3138700    0.5271730   -0.5220420  
O     0.7838740    1.7109750   -0.8721870  
C     2.7932730    0.4864590   -0.6815090  
O     3.3455380    1.4691420   -1.1763230  
C     3.5513430   -0.7399210   -0.2716270  
H     4.1688110   -3.4624600    0.9387530  
H     1.5336060    2.2410570   -1.2189660  
H     1.8493110   -4.4768420    1.8515880  
C     5.5320190   -1.9663720   -1.0443710  
C     6.8780860   -1.7872270   -1.1126880  
C     7.1675130   -0.4794840   -0.5840490  
C     5.9348900    0.1160880   -0.2241870  
N     4.9191520   -0.8152750   -0.5208230  
C     5.8710490    1.3676440    0.3958330  
C     7.0641420    2.0413630    0.6147100  
O     7.0434400    3.2709020    1.2051930  
C     8.3030490    1.4685890    0.2330330  
O     9.3987430    2.2585600    0.5134200  
C     8.3656680    0.2189060   -0.3580120  
H     7.5903310   -2.4954370   -1.5139780  
H     4.9419690    1.8413440    0.6818530  
H     7.9632660    3.5818410    1.2605080  
H    10.2043500    1.8195330    0.2027430  
H     9.3249550   -0.2186550   -0.6266490  
H     4.9130940   -2.7870350   -1.3737520  
