60


C    -3.4197180    0.9940290   -1.8553760  
C    -3.7668800    0.1856300   -0.7801560  
C    -4.9615450    0.7834780   -0.2014030  
C    -5.2690250    1.9284620   -0.9789150  
N    -4.3181020    2.0142270   -1.9820260  
C    -6.3390340    2.7851860   -0.7035980  
C    -7.1260670    2.4889230    0.3985800  
O    -8.1866290    3.2866150    0.7169530  
C    -6.8301090    1.3590160    1.2012530  
O    -7.6928900    1.1917860    2.2698330  
C    -5.7685110    0.5173830    0.9231450  
H    -4.2713630    2.7410330   -2.6794940  
H    -6.5640140    3.6578340   -1.3083170  
H    -8.6063620    2.9009480    1.5053400  
H    -7.4763440    0.3663930    2.7281090  
H    -5.5801590   -0.3480920    1.5480170  
H    -2.5804310    0.9021620   -2.5247710  
C     0.4913350   -0.6289410   -1.1756400  
C     0.6452170   -1.8674150   -0.6116900  
C    -0.7335180   -2.2355440   -0.2088610  
C    -1.5665110   -1.0677660   -0.6085910  
N    -0.8316700   -0.1456900   -1.1740500  
C    -3.0134200   -0.9964120   -0.3734820  
C    -3.5499260   -2.1031280    0.2351010  
O    -4.8715390   -2.2575070    0.4902260  
C    -2.7437600   -3.2673580    0.6580570  
O    -3.3235300   -4.2161490    1.2002250  
C    -1.2852110   -3.2938190    0.4079810  
H    -4.9340330   -3.1496730    0.9007560  
H    -0.7459250   -4.1848560    0.7036340  
H     1.2550510   -0.0274470   -1.6553020  
C     4.6350530   -0.4076210    0.4672550  
C     5.3076010   -1.6019770    0.4621560  
C     4.3798780   -2.6377590    0.0959650  
C     3.0824350   -1.9670100   -0.1258250  
N     3.3117950   -0.6118760    0.0518400  
C     1.8935120   -2.5944590   -0.4084180  
C     1.9695470   -4.0700840   -0.5342290  
O     0.9966340   -4.7657070   -0.7741270  
C     3.3609970   -4.7921070   -0.3724600  
O     3.3934700   -6.0068890   -0.5047620  
C     4.5255300   -3.9868490   -0.0484810  
H     6.3643950   -1.7350000    0.6455620  
H     5.4741310   -4.4941060    0.0961350  
H     2.5574420    0.0325590    0.2522370  
C     6.0959710    1.1807740    1.7322850  
C     5.1059680    0.9142510    0.8219350  
C     4.6527670    2.2083500    0.3118200  
C     5.4634620    3.2332250    1.0143710  
N     6.3220470    2.5336630    1.8494610  
C     5.3507030    4.5704280    0.8299770  
C     4.3663540    5.0562290   -0.1379640  
O     4.1859050    6.2412610   -0.3627190  
C     3.5200380    3.9910660   -0.9221480  
O     2.7134100    4.3686360   -1.7546700  
C     3.7363930    2.5684250   -0.6237980  
H     5.9584420    5.3005340    1.3554620  
H     3.1558690    1.8507770   -1.1935720  
H     6.6571010    0.4796000    2.3357630  
H     6.9718960    2.9590580    2.4931150  
