60


C     3.3020300   -3.8197190    1.7167580  
C     4.4110580   -4.4411590    1.2062470  
C     5.0713010   -3.4887940    0.3608140  
C     4.3051140   -2.2981500    0.3882890  
N     3.2294580   -2.5325350    1.2162170  
C     4.6764890   -1.1073600   -0.2958100  
C     5.8746320   -1.1804250   -1.0378500  
O     6.2929260   -0.1354200   -1.7848490  
C     6.6386370   -2.3781010   -1.0757440  
O     7.7718120   -2.2773610   -1.8602660  
C     6.2581190   -3.5181900   -0.3980750  
H     4.7241740   -5.4561780    1.4081950  
H     2.5662410   -1.8266300    1.4982110  
H     7.1216200   -0.4067050   -2.2196670  
H     8.2239390   -3.1329760   -1.8949710  
H     6.8664880   -4.4189780   -0.4495970  
H     2.5417200   -4.1886700    2.3904390  
C     3.8642120    0.0907690   -0.2224850  
C     2.4990860    0.1733760   -0.0368480  
C     2.1864030    1.5738500    0.0083970  
C     3.5157640    2.2455470   -0.1615350  
N     4.4829050    1.3860070   -0.2944590  
C     3.6428780    3.6784540   -0.1826000  
C     2.5079830    4.4065000   -0.0720610  
O     2.4679440    5.7454230   -0.0808500  
C     1.1508180    3.7653070    0.1140360  
O     0.2042730    4.5284110    0.3010710  
C     1.0281710    2.2909310    0.1316240  
H     1.7822350   -0.6345380   -0.0594660  
H     4.6180080    4.1373430   -0.3004590  
H     1.5180280    5.9732620    0.0411820  
C    -0.7015150   -0.5530550    3.0896270  
C     0.1248990    0.2668250    2.3888290  
C    -0.6439960    0.8259250    1.2947020  
C    -2.0065450    0.2691160    1.4271950  
N    -1.9811440   -0.5423530    2.5483670  
C    -3.0705310    0.5330170    0.6052270  
C    -2.8096210    1.4630950   -0.5062370  
O    -3.6725820    1.8211710   -1.2904760  
C    -1.3574830    2.0356580   -0.6967170  
O    -1.1307850    2.6904410   -1.6973740  
C    -0.3109230    1.7082130    0.2993530  
H     1.1573880    0.4859610    2.6147170  
H    -0.4956810   -1.1467310    3.9706880  
H    -2.7253710   -1.1803960    2.7871720  
C    -5.0986170    0.0277670    2.0251940  
C    -4.4192390    0.0044090    0.8386260  
C    -5.3088330   -0.6529610   -0.1258710  
C    -6.5431070   -1.0052150    0.6165130  
N    -6.3422750   -0.5767370    1.9164300  
C    -7.6217260   -1.6284250    0.0783710  
C    -7.5715320   -2.0039480   -1.3309230  
O    -8.4879230   -2.5724370   -1.9043570  
C    -6.2631680   -1.6653940   -2.1333790  
O    -6.1853220   -1.9960470   -3.3047850  
C    -5.1723510   -0.9666370   -1.4379290  
H    -8.5165990   -1.8686860    0.6443440  
H    -4.2943600   -0.7068500   -2.0178520  
H    -4.7939700    0.4664820    2.9669070  
H    -7.0496490   -0.5771920    2.6349340  
