60


C     4.6814080    0.3790580   -0.5741820  
C     5.3990990    0.9741130   -1.5911000  
C     6.7877370    0.7343450   -1.3423940  
C     6.8692000   -0.0247870   -0.1452790  
N     5.5764730   -0.2557390    0.2864760  
C     8.0870840   -0.4327910    0.4108870  
C     9.2464360   -0.0730040   -0.2585120  
O    10.4602480   -0.4407910    0.2401410  
C     9.1847410    0.6753740   -1.4666520  
O    10.4236460    0.9465510   -2.0132360  
C     7.9808980    1.0765300   -2.0124150  
H     4.9699980    1.4797780   -2.4457130  
H     5.3346070   -0.5816360    1.2102590  
H     8.1544410   -1.0105540    1.3269340  
H    11.1387850   -0.0999420   -0.3680470  
H    10.3149170    1.4609550   -2.8266960  
H     7.9585560    1.6500580   -2.9368510  
C     2.3589820    1.3456840   -0.6235070  
C     3.2484830    0.3512990   -0.3386340  
C     2.4628750   -0.7614220    0.1986140  
C     1.0522730   -0.3057280    0.2057500  
N     1.0482140    0.9517150   -0.3442180  
C     0.0080510   -1.0564880    0.6809500  
C     0.2927710   -2.4247030    1.1324780  
O    -0.5777290   -3.1868410    1.5244930  
C     1.7800130   -2.9306480    1.0761840  
O     2.0130320   -4.0726000    1.4341650  
C     2.8115590   -2.0155550    0.5894710  
H     3.8305400   -2.3843380    0.5430020  
H     2.5509580    2.3320170   -1.0226330  
H     0.2617690    1.5845360   -0.3025380  
C    -2.4292000   -1.3296520    0.2714600  
C    -3.5975600   -0.6532200    0.4368150  
C    -3.2542350    0.6201280    1.0637370  
C    -1.7832870    0.6104500    1.2526920  
N    -1.3235150   -0.5940400    0.7282440  
C    -1.0892750    1.6064080    1.8682490  
C    -1.8221560    2.7750630    2.3542950  
O    -1.2750900    3.7117750    2.9147060  
C    -3.3762030    2.8114470    2.1436540  
O    -4.0064120    3.7807490    2.5312580  
C    -4.0138350    1.6590730    1.4937650  
H    -0.0262090    1.5571960    2.0754620  
H    -5.0938120    1.6763930    1.3894740  
H    -2.2679180   -2.3062140   -0.1587950  
C    -5.4484550   -2.3601950    0.4638260  
C    -4.9311310   -1.1495820    0.1008590  
C    -5.9486950   -0.4957610   -0.7191510  
C    -7.0951310   -1.4360620   -0.7885920  
N    -6.7175810   -2.5495770   -0.0612580  
C    -8.2506550   -1.1930570   -1.4563870  
C    -8.3836110    0.0708180   -2.1771170  
O    -9.3851970    0.3780950   -2.8040030  
C    -7.1690330    1.0687970   -2.1459090  
O    -7.2476210    2.1181580   -2.7635330  
C    -5.9784670    0.6943760   -1.3734000  
H    -9.0793160   -1.8936570   -1.4912320  
H    -5.1509880    1.3962120   -1.3568050  
H    -4.9962340   -3.1242580    1.0828640  
H    -7.3083310   -3.3456720    0.1219640  
