60


C     1.0019370   -2.9860280   -1.4183690  
C     1.8780490   -2.2399820   -0.6367030  
C     2.8590600   -3.1833380   -0.1280110  
C     2.5054210   -4.4610370   -0.6264830  
N     1.3767320   -4.3026000   -1.4125400  
C     3.2115810   -5.6294730   -0.3187560  
C     4.3108920   -5.5051330    0.5157750  
O     5.0461530   -6.6032330    0.8443860  
C     4.6821200   -4.2338900    1.0299390  
O     5.7981540   -4.2683890    1.8418450  
C     3.9759310   -3.0867070    0.7258090  
H     0.9303950   -5.0344920   -1.9437640  
H     2.9355390   -6.6046100   -0.7064640  
H     5.7806520   -6.2987470    1.4058300  
H     6.0784630   -3.3629800    2.0439230  
H     4.3017680   -2.1251730    1.1065920  
H     0.1792920   -2.6529050   -2.0352860  
C    -1.6741290    0.2617770   -0.1533620  
C    -1.0684090    1.5007530   -0.0833780  
C     0.3467080    1.2997840   -0.1455850  
C     0.5499280   -0.1569030   -0.2865650  
N    -0.7097510   -0.7206450   -0.2978480  
C     1.7581010   -0.8042300   -0.4042480  
C     2.9454090    0.0763610   -0.3530470  
O     4.0880390   -0.3354660   -0.4636880  
C     2.7589230    1.6258690   -0.1501710  
O     3.7645700    2.2899610    0.0456610  
C     1.4040380    2.1930210   -0.1248630  
H    -1.5743260    2.4492410    0.0126410  
H    -0.9226000   -1.7073180   -0.2502560  
C    -0.7001510    5.0864970    2.6139980  
C    -0.2678000    3.9246080    2.0630000  
C     0.5260120    4.3224530    0.9061960  
C     0.4634250    5.8134090    0.9291770  
N    -0.2558030    6.2531320    1.9263350  
C     1.1621460    6.6223130   -0.0356160  
C     1.8921860    5.9855190   -0.9790160  
O     2.5874810    6.6094650   -1.9444330  
C     1.9495670    4.4839330   -1.0599340  
O     2.5189650    4.0004030   -2.0324670  
C     1.2583130    3.6458490   -0.0227360  
H    -0.4485020    2.9166170    2.4072170  
H     1.0957630    7.7035640    0.0128710  
H     2.9687280    5.8909170   -2.4954370  
H    -1.3150240    5.2127380    3.4977300  
C    -3.0593990   -0.1187830   -0.1010040  
C    -4.1785430    0.6577190    0.0299970  
C    -5.2878950   -0.2659080    0.0260920  
C    -4.6490210   -1.6175130   -0.1186190  
N    -3.3531570   -1.5251190   -0.1926250  
C    -5.4338940   -2.8225890   -0.1627630  
C    -6.7792610   -2.6977660   -0.0700620  
O    -7.6332630   -3.7258840   -0.0968740  
C    -7.4536970   -1.3487110    0.0759990  
O    -8.6808730   -1.3427670    0.1521440  
C    -6.6322210   -0.1331530    0.1197920  
H    -4.2342520    1.7334730    0.1194870  
H    -4.9500950   -3.7873110   -0.2657930  
H    -8.5286630   -3.3269300   -0.0100390  
H    -7.1490450    0.8154810    0.2259980  
