64


C     5.7451940   -1.9480200   -1.1942180  
C     5.1575810   -0.9201050   -0.4736960  
C     6.2531630   -0.0875700   -0.0047840  
C     7.4554040   -0.6815680   -0.4625590  
N     7.1104410   -1.8089240   -1.1871120  
C     8.7252150   -0.1658210   -0.1760730  
C     8.7853400    0.9835350    0.5950450  
O     9.9926110    1.5417420    0.9002450  
C     7.5935960    1.5920740    1.0690250  
O     7.8105560    2.7314740    1.8229810  
C     6.3446950    1.0747080    0.7858900  
H     7.7568880   -2.3982330   -1.6881270  
H     9.6415520   -0.6241020   -0.5340600  
H     9.8096640    2.3480430    1.4134370  
H     6.9639110    3.1763850    1.9779790  
H     5.4504070    1.5790820    1.1357280  
H     5.2752800   -2.7434610   -1.7540220  
C     1.9442760   -3.9011360    0.2474100  
C     3.1382930   -3.2726190    0.0876740  
C     2.8741150   -1.8541560   -0.0514650  
C     1.4118230   -1.7051340    0.0648300  
N     0.9079860   -2.9779760    0.2618980  
C     0.6914860   -0.5359140   -0.0076220  
C     1.4959010    0.6685300   -0.2124420  
O     1.0300410    1.7980230   -0.2793440  
C     3.0686360    0.5430770   -0.3410110  
O     3.6835470    1.5811080   -0.5286630  
C     3.7184000   -0.7825920   -0.2589840  
H     4.1107810   -3.7394640    0.1003600  
H     1.7325130   -4.9535250    0.3829020  
H    -0.0780860   -3.1865380    0.1985130  
C    -1.5004960   -1.2185100    1.0677920  
C    -0.7651890   -0.4798590    0.1533070  
C    -1.7309420    0.3018790   -0.5944550  
C    -3.0128660   -0.0170800   -0.0865270  
N    -2.8399380   -0.9376010    0.9289390  
C    -4.2190470    0.5195050   -0.5860570  
C    -4.0905590    1.4163820   -1.6451610  
O    -5.1927380    2.0165210   -2.1704880  
C    -2.8114470    1.7446880   -2.1714720  
O    -2.8607680    2.6556500   -3.2115570  
C    -1.6438050    1.2078870   -1.6694710  
H    -3.5902030   -1.3329950    1.4750180  
H    -4.8819320    2.6082100   -2.8779530  
H    -1.9604490    2.9395860   -3.4294680  
H    -0.6806790    1.5061410   -2.0702600  
H    -1.1559500   -1.8696710    1.8593540  
C    -5.7311680    1.2128130    3.4900810  
C    -6.9573750    0.6158400    3.3513600  
C    -7.0407330    0.1283390    2.0026110  
C    -5.8166130    0.4600060    1.3668570  
N    -5.0311990    1.1072590    2.3015860  
C    -5.5274100    0.1629660    0.0178200  
C    -6.5308080   -0.4981700   -0.6905190  
O    -6.3274890   -0.8509690   -1.9911210  
C    -7.7625180   -0.8380230   -0.0698800  
O    -8.6421000   -1.4989780   -0.9112840  
C    -8.0279870   -0.5418130    1.2533570  
H    -7.7141690    0.5329000    4.1195430  
H    -4.1472570    1.5477750    2.0958030  
H    -7.1566490   -1.2470170   -2.3104150  
H    -9.4931340   -1.6080930   -0.4622990  
H    -8.9812820   -0.8185960    1.6998010  
H    -5.2864580    1.7028360    4.3448630  
