66


C    -0.2946080    1.7689870    0.1102400  
C    -1.2795810    0.8107940    0.2242090  
C    -2.4966060    1.4743610    0.5870010  
C    -2.2015110    2.8604540    0.6724910  
N    -0.8662930    3.0233610    0.3416480  
C    -3.1587070    3.8230800    1.0058760  
C    -4.4465950    3.3714720    1.2532770  
O    -5.4242590    4.2594410    1.6036720  
C    -4.7667540    1.9941390    1.1583040  
O    -6.0891280    1.7123790    1.4515380  
C    -3.8224570    1.0235790    0.8240440  
H    -1.1538800   -0.2406400    0.0095420  
H    -0.3208710    3.8307550    0.6073990  
H    -2.9345600    4.8823920    1.0782740  
H    -6.2277240    3.7375840    1.7744010  
H    -6.2012040    0.7476920    1.4943520  
C     1.1050970    1.6463160   -0.2266890  
C     1.9863630    0.6031920   -0.0414790  
C     3.2547120    1.0049610   -0.5684580  
C     3.0984180    2.3261440   -1.0648160  
N     1.7940970    2.7162040   -0.8083640  
C     4.1376500    3.0425170   -1.6649160  
C     5.3692400    2.4114830   -1.7595020  
O     6.4213690    3.0512350   -2.3518180  
C     5.5545070    1.1045910   -1.2436240  
O     6.8423140    0.6208920   -1.3977560  
C     4.5252540    0.3799250   -0.6427140  
H     1.7573260   -0.3314810    0.4487270  
H     1.3233440    3.4470600   -1.3227610  
H     4.0154000    4.0475050   -2.0559040  
H     7.1604590    2.4183250   -2.3695430  
H     6.8349900   -0.3354570   -1.2227220  
C    -3.5257960   -1.4404910    1.3830760  
C    -4.1913440   -0.4032190    0.7642710  
C    -5.3078420   -1.0080450    0.0618830  
C    -5.2544370   -2.4050970    0.3059750  
N    -4.1579730   -2.6357780    1.1115790  
C    -6.1787910   -3.3057670   -0.2379010  
C    -7.1757860   -2.7880170   -1.0495030  
O    -8.1044630   -3.6206600   -1.6029600  
C    -7.2386360   -1.3941830   -1.3172780  
O    -8.2812360   -1.0341720   -2.1499560  
C    -6.3252850   -0.5069570   -0.7797350  
H    -3.8654620   -3.5379040    1.4529530  
H    -6.1385700   -4.3745390   -0.0535000  
H    -8.6970390   -3.0703400   -2.1436850  
H    -8.2443620   -0.0811170   -2.3195590  
H    -6.3879470    0.5543730   -1.0068950  
H    -2.6505490   -1.4076440    2.0159360  
C     7.2993850   -0.9176320    2.5321740  
C     7.0219670   -2.2601020    2.5041510  
C     6.0263060   -2.4633350    1.4900110  
C     5.7392560   -1.1903090    0.9299410  
N     6.5301790   -0.2693360    1.5851050  
C     4.7904690   -0.9785780   -0.0976500  
C     4.1252460   -2.1204710   -0.5522350  
O     3.2052240   -2.0185070   -1.5543130  
C     4.3970060   -3.3999470    0.0010000  
O     3.6476570   -4.4170500   -0.5657070  
C     5.3295860   -3.5864480    1.0033460  
H     7.4714270   -3.0158020    3.1336590  
H     6.5303780    0.7213230    1.3965760  
H     2.8788510   -2.9173290   -1.7341670  
H     3.9325380   -5.2676470   -0.2007990  
H     5.5139640   -4.5801970    1.4070840  
H     7.9892430   -0.3609070    3.1506420  
