64


C     1.1935600    1.5742400   -0.0830380  
C     1.8349840    2.7837450   -0.3149110  
C     3.2408640    2.5416360   -0.3148520  
C     3.4189410    1.1490830   -0.0989240  
N     2.1723230    0.5918290    0.0362950  
C     4.6783720    0.5109590   -0.0549290  
C     5.7700530    1.3695850   -0.1556170  
O     7.0496780    0.8581520   -0.0710100  
C     5.6223720    2.7661800   -0.3542900  
O     6.8281020    3.4367750   -0.4469680  
C     4.3808510    3.3606690   -0.4576880  
H     1.3480520    3.7248950   -0.5192760  
H     1.9949700   -0.3555230    0.3367020  
H     7.6658890    1.6052680   -0.1804990  
H     6.6663980    4.3797900   -0.5973650  
H     4.2899980    4.4319330   -0.6227900  
C    -2.4178500    4.0451990    0.8961080  
C    -1.1340250    3.6138600    0.6926100  
C    -1.2084320    2.2446080    0.2627540  
C    -2.5822790    1.9017410    0.2276250  
N    -3.2926470    3.0208000    0.5939270  
C    -3.0800650    0.6000030   -0.0452820  
C    -2.0855620   -0.3714460   -0.2890230  
O    -2.4232040   -1.6353880   -0.6185280  
C    -0.7091740   -0.0388330   -0.2828230  
O     0.1121540   -1.1437910   -0.5205190  
C    -0.2265410    1.2522100   -0.0271230  
H    -0.2422940    4.1934350    0.8723480  
H    -4.2845100    3.0141270    0.7805280  
H    -1.5764010   -2.1083150   -0.7398010  
H     0.7607980   -0.9724870   -1.2290190  
H    -2.7882060    5.0046450    1.2278970  
C     2.7244010   -2.8293040   -2.3296260  
C     3.1796180   -1.6003140   -1.9167880  
C     4.0202110   -1.8208190   -0.7663160  
C     4.0440300   -3.2215120   -0.5427320  
N     3.2346690   -3.8054830   -1.4984670  
C     4.8115250   -3.8216350    0.4627330  
C     5.5940430   -2.9810590    1.2373770  
O     6.3914280   -3.4926170    2.2139720  
C     5.5855290   -1.5720660    1.0417500  
O     6.3966770   -0.8803830    1.9163690  
C     4.7831220   -0.9629170    0.0777700  
H     2.9990300   -0.6575910   -2.4145010  
H     3.0662300   -4.7951060   -1.5892910  
H     4.8345100   -4.8934600    0.6304120  
H     6.8564830   -2.7263810    2.6008720  
H     6.8687190   -0.1887780    1.4055660  
H     2.0944730   -3.0947450   -3.1672320  
C    -4.4975120    0.3146010   -0.0609990  
C    -5.5307670    1.1688930   -0.3913920  
C    -6.7415300    0.4197800   -0.2032600  
C    -6.2679640   -0.9171240    0.2877470  
N    -4.9713740   -0.9797080    0.3586050  
C    -7.1968250   -1.9662390    0.6237680  
C    -8.5150000   -1.7124670    0.4527460  
O    -9.4960480   -2.5887720    0.7116710  
C    -9.0214100   -0.3801470   -0.0616310  
O   -10.2453880   -0.2624300   -0.1767430  
C    -8.0652720    0.6732810   -0.3789260  
H    -5.4556830    2.1556680   -0.8275940  
H    -6.8317230   -2.9201000    0.9877600  
H   -10.3251170   -2.1062810    0.4859530  
H    -8.4632320    1.6182170   -0.7360510  
