60


C    -6.2360980    2.2230580    0.4354640  
C    -5.0077350    1.6129450    0.1825430  
C    -4.0948640    2.6827960   -0.1847650  
C    -4.8290970    3.8899070   -0.1306980  
N    -6.1256790    3.5669210    0.2533990  
C    -4.2809420    5.1377000   -0.4408010  
C    -2.9487880    5.1649910   -0.8273750  
O    -2.3604710    6.3485920   -1.1483780  
C    -2.1968000    3.9621920   -0.9001390  
O    -0.8897690    4.1492590   -1.3023330  
C    -2.7469670    2.7324120   -0.5846210  
H    -6.8706660    4.2329510    0.3961110  
H    -4.8496850    6.0608650   -0.4028530  
H    -1.4474220    6.1548550   -1.4244040  
H    -0.4939030    3.2945740   -1.5286600  
H    -2.1635260    1.8189470   -0.6421450  
H    -7.1674440    1.7805460    0.7586750  
C    -4.7498110    0.2093000    0.2819560  
C    -5.6311520   -0.8425170    0.4028320  
C    -4.8375530   -2.0249020    0.4836800  
C    -3.4186390   -1.5288790    0.4008740  
N    -3.3751030   -0.2367970    0.2750650  
C    -2.2708620   -2.4285600    0.4653760  
C    -2.5809370   -3.7505330    0.6036620  
O    -1.6736320   -4.7265890    0.7286880  
C    -4.0026040   -4.2780940    0.6587830  
O    -4.1125310   -5.5034910    0.7805760  
C    -5.1141590   -3.3533630    0.5954260  
H    -6.7114150   -0.7993580    0.4028030  
H    -2.2155380   -5.5510350    0.8118170  
H    -6.1177580   -3.7618460    0.6522400  
C    -0.5228800   -0.6971640    0.9770960  
C    -0.9061730   -1.8901670    0.4366150  
C     0.2924290   -2.4506520   -0.1943460  
C     1.3955180   -1.4992330    0.0776680  
N     0.8439040   -0.4831300    0.8055490  
C     2.7023420   -1.6265820   -0.3566220  
C     2.9610790   -2.7395110   -1.2822250  
O     4.0139460   -2.8906180   -1.8921590  
C     1.8265320   -3.7930380   -1.5308320  
O     2.0859250   -4.7733890   -2.2072110  
C     0.5007920   -3.5537330   -0.9585810  
H    -0.2707620   -4.2853110   -1.1595930  
H    -1.1293330    0.0380870    1.4835130  
H     1.3245980    0.3835200    1.0010340  
C     3.7529030   -0.6939900    0.0096520  
C     3.8311190    0.1926480    1.0690860  
C     5.0962710    0.8695780    0.9890610  
C     5.7793900    0.3190020   -0.2086340  
N     4.9123780   -0.6005150   -0.7571460  
C     7.0153350    0.6960640   -0.6242130  
C     7.7276970    1.7116090    0.1462590  
O     8.8414670    2.1152280   -0.1535680  
C     7.0210160    2.3111530    1.4178950  
O     7.6039220    3.1651980    2.0706910  
C     5.6890060    1.8208130    1.7653570  
H     3.1390930    0.2760130    1.8942390  
H     7.5010550    0.2806380   -1.5015900  
H     5.2131080    2.2386960    2.6476200  
H     5.1080410   -1.2725080   -1.4899240  
