66


C     0.7480300    0.9367220   -1.8873390  
C     2.1120490    0.8228110   -1.8843380  
C     2.5334110    0.8830390   -0.5142740  
C     1.3640500    1.0243580    0.2778920  
N     0.2739110    1.0619030   -0.5858390  
C     1.3944090    1.0673270    1.6805560  
C     2.6376980    0.9899020    2.2916480  
O     2.7308860    1.0280540    3.6505920  
C     3.8276180    0.8844920    1.5253500  
O     4.9813530    0.8771360    2.2757860  
C     3.7864750    0.8210660    0.1341000  
H     2.7443870    0.7085850   -2.7530190  
H     0.4965840    1.1157870    2.2869790  
H     3.6740320    0.9297410    3.8722760  
H     5.7218110    0.5301590    1.7488210  
H     0.0471280    0.9551410   -2.7092300  
C    -3.2974480   -1.4726070   -1.2976210  
C    -2.0147280   -0.9964390   -1.2525900  
C    -2.0643050    0.2707990   -0.5809560  
C    -3.4177170    0.5123070   -0.2339620  
N    -4.1638900   -0.5703420   -0.6853540  
C    -3.8304180    1.6434280    0.4789080  
C    -2.8557320    2.5614270    0.8345620  
O    -3.1978120    3.6863970    1.5269530  
C    -1.4958340    2.3654950    0.4760790  
O    -0.6574730    3.3903400    0.8555660  
C    -1.0926720    1.2317550   -0.2231910  
H    -1.1388750   -1.4838710   -1.6566440  
H    -4.8645760    1.8170960    0.7508510  
H    -2.3743860    4.1783230    1.6926020  
H     0.2680990    3.0969490    0.8107290  
H    -3.6950610   -2.3747930   -1.7408880  
C     5.4238050    1.6379960   -1.5662990  
C     6.6520860    1.2749430   -2.0463890  
C     7.0316010    0.0670620   -1.3701200  
C     5.9722930   -0.2611150   -0.4832160  
N     4.9919510    0.7192030   -0.6129470  
C     5.9928930   -1.4083900    0.3265790  
C     7.1125960   -2.2253970    0.2508170  
O     7.1817280   -3.3531460    1.0158010  
C     8.1856330   -1.9040200   -0.6205490  
O     9.2280410   -2.8108430   -0.5801900  
C     8.1538780   -0.7813430   -1.4280890  
H     7.2241170    1.8088060   -2.7929440  
H     5.1635530   -1.6935030    0.9652540  
H     8.0250470   -3.7908850    0.8074010  
H     9.9045510   -2.5547950   -1.2242540  
H     8.9840060   -0.5623770   -2.0971270  
H     4.8017170    2.4900280   -1.7990270  
C    -6.1531830   -3.6936990    1.6012090  
C    -7.4432080   -3.3107700    1.3397350  
C    -7.3781620   -2.1457350    0.5021710  
C    -6.0026710   -1.8742840    0.2896870  
N    -5.2785520   -2.8314650    0.9645810  
C    -5.5522040   -0.7905720   -0.4862100  
C    -6.5180650    0.0367570   -1.0553190  
O    -6.1419000    1.0957130   -1.8242370  
C    -7.8974470   -0.2191560   -0.8343370  
O    -8.7279880    0.6932620   -1.4585680  
C    -8.3358380   -1.2895240   -0.0778540  
H    -8.3368480   -3.8003120    1.7016030  
H    -4.2716640   -2.8613500    1.0146730  
H    -6.9570100    1.5445620   -2.1092210  
H    -9.6520210    0.4603180   -1.2861260  
H    -9.4005230   -1.4587820    0.0696130  
H    -5.7760180   -4.5170400    2.1911070  
