60


C     5.0298970   -2.2509710   -1.5621640  
C     6.3414070   -2.6057350   -1.5562830  
C     7.0346180   -1.6963570   -0.6796000  
C     6.0841070   -0.7716380   -0.1879570  
N     4.8357010   -1.1187400   -0.7486620  
C     6.4187690    0.2010780    0.7581250  
C     7.7410470    0.2686900    1.1748000  
O     8.1090280    1.2134110    2.0846270  
C     8.7100500   -0.6326060    0.6667840  
O     9.9757850   -0.4390340    1.1736800  
C     8.3688340   -1.6133580   -0.2488940  
H     6.7792490   -3.4123250   -2.1285620  
H     5.7096850    0.9130160    1.1580800  
H     9.0622120    1.1078640    2.2476230  
H    10.5892460   -1.0776420    0.7806760  
H     9.1164580   -2.3145410   -0.6131980  
H     4.1960830   -2.6471890   -2.1209690  
C     0.8399360   -2.8147020   -0.0105780  
C     2.1778720   -2.7201450   -0.2099930  
C     2.4431700   -1.2958770   -0.3560110  
C     1.1153120   -0.6605890   -0.2179850  
N     0.1867470   -1.5552810   -0.0106070  
C     0.9256180    0.7953140   -0.2749270  
C     2.0774120    1.5245570   -0.4322660  
O     2.1110040    2.8744390   -0.5024890  
C     3.4277980    0.9208460   -0.5804360  
O     4.3625000    1.6945520   -0.7959840  
C     3.5846560   -0.5629190   -0.5161800  
H     2.9067900   -3.5170300   -0.2219280  
H     3.0576330    3.0976010   -0.6659180  
H     0.2485430   -3.7065990    0.1542950  
C    -0.3863370    1.3973870   -0.1708930  
C    -1.6216530    0.7812970   -0.0536030  
C    -2.6219180    1.7956130    0.0078380  
C    -1.9062670    3.0850330   -0.1094920  
N    -0.5679110    2.7800930   -0.1894000  
C    -2.4996630    4.3067730   -0.1647960  
C    -3.9515210    4.3684780   -0.1042010  
O    -4.5843660    5.4060630   -0.2279740  
C    -4.7382980    3.0370170    0.1632140  
O    -5.9095260    3.1234700    0.4776390  
C    -4.0056040    1.7376400    0.1127370  
H    -1.7602910   -0.2854010   -0.0329450  
H    -1.9459920    5.2325270   -0.2875630  
H     0.1847380    3.4403180   -0.3173500  
C    -4.7404880    0.5001330    0.2264120  
C    -4.3495290   -0.6778890    0.8211980  
C    -5.4497360   -1.5920940    0.6486440  
C    -6.4656220   -0.8014330   -0.1178550  
N    -6.0600890    0.4085540   -0.3562170  
C    -7.7230870   -1.3829880   -0.5176390  
C    -7.9665900   -2.6640190   -0.1551680  
O    -9.0930400   -3.3319930   -0.4473410  
C    -6.9676220   -3.4797230    0.6316180  
O    -7.2825000   -4.6389910    0.9088230  
C    -5.6891390   -2.8748410    1.0155120  
H    -3.4411750   -0.8685160    1.3740550  
H    -8.4401670   -0.7928330   -1.0771410  
H    -8.9691650   -4.2244760   -0.0522960  
H    -4.9906330   -3.4943260    1.5697240  
