64


C     5.5264220   -2.2841020   -0.2607540  
C     6.8799940   -2.1590570   -0.3013850  
C     7.1877190   -0.7553770   -0.2116280  
C     5.9596710   -0.0553270   -0.1419310  
N     4.9291020   -1.0151490   -0.1787400  
C     5.9057530    1.3313120    0.0286890  
C     7.1079090    2.0215540    0.0859710  
O     7.0987500    3.3771910    0.2378010  
C     8.3448010    1.3359220   -0.0103350  
O     9.4504270    2.1578400    0.0619330  
C     8.3956480   -0.0394330   -0.1539040  
H     7.5864850   -2.9714190   -0.4052800  
H     4.9794230    1.8864080    0.0893130  
H     8.0247640    3.6743510    0.2471580  
H    10.2562800    1.6283550   -0.0304430  
H     9.3522540   -0.5552890   -0.2051040  
H     4.8976210   -3.1574010   -0.3430280  
C     1.7481670   -3.0838250    2.0606140  
C     2.9800210   -2.7108000    1.6354130  
C     2.7433340   -1.6130030    0.7038530  
C     1.2706040   -1.4438950    0.7048390  
N     0.6985540   -2.3124290    1.4925830  
C     0.5846470   -0.4269490   -0.1017330  
C     1.4123570    0.3248460   -0.8837600  
O     0.9555170    1.3065060   -1.7230070  
C     2.8818490    0.1917220   -0.9269250  
O     3.5021590    0.9195770   -1.7068630  
C     3.5539140   -0.8278330   -0.0573790  
H     3.9381340   -3.1165220    1.9260180  
H     1.7677140    1.6575320   -2.1560420  
H     1.4922730   -3.8658760    2.7649920  
C    -2.4869920   -0.0310250    3.1937580  
C    -1.3130150   -0.1537710    2.4984250  
C    -1.6430610   -0.1953540    1.1023950  
C    -3.0547730   -0.0744180    1.0164670  
N    -3.5417900    0.0230360    2.3032950  
C    -3.7816280   -0.0512030   -0.1912540  
C    -3.0131310   -0.1240720   -1.3529570  
O    -3.6085460   -0.0667980   -2.5725190  
C    -1.5980710   -0.2190390   -1.3051320  
O    -1.0104170   -0.2991960   -2.5518440  
C    -0.8827340   -0.2854610   -0.1000220  
H    -0.3291210   -0.2336980    2.9335330  
H    -4.5209520    0.0645230    2.5401920  
H    -2.8776510   -0.1249610   -3.2175160  
H    -0.2775640    0.3527900   -2.5826160  
H    -2.6636150    0.0216030    4.2587990  
C    -6.3430440    3.2110640    1.3083820  
C    -7.5594350    2.6721250    0.9779590  
C    -7.3050250    1.4016440    0.3581730  
C    -5.8978580    1.2212690    0.3452240  
N    -5.3378490    2.3357050    0.9394290  
C    -5.2575570    0.0919230   -0.2104340  
C    -6.0975940   -0.8774810   -0.7603950  
O    -5.5684900   -2.0156480   -1.2875620  
C    -7.5085020   -0.7128960   -0.7539770  
O    -8.1909860   -1.7708470   -1.3303990  
C    -8.1183330    0.3990630   -0.2062850  
H    -8.5249060    3.1267790    1.1535830  
H    -4.3469890    2.5111800    1.0052410  
H    -6.3080840   -2.5334170   -1.6495690  
H    -9.1370140   -1.5657450   -1.3553960  
H    -9.2025330    0.4945760   -0.2161330  
H    -6.1022860    4.1503440    1.7861910  
