62


C     3.4170210   -0.8500410   -1.5703330  
C     4.1415490   -0.1058990   -0.6588050  
C     5.0872580   -1.0202280   -0.0563210  
C     4.8784720   -2.2922370   -0.6468040  
N     3.8586680   -2.1557150   -1.5677550  
C     5.6129180   -3.4290200   -0.2841910  
C     6.5795830   -3.2768500    0.6961910  
O     7.3305910   -4.3481650    1.0875830  
C     6.8005870   -2.0106680    1.3010870  
O     7.7979840   -2.0181430    2.2610190  
C     6.0721510   -0.8934110    0.9430020  
H     3.4993070   -2.8911060   -2.1561370  
H     5.4531130   -4.4026810   -0.7361010  
H     7.9478330   -4.0294840    1.7684710  
H     7.9261760   -1.1174000    2.5929590  
H     6.2720700    0.0692420    1.4044660  
H     2.6512020   -0.5305230   -2.2634990  
C     0.3873650    2.0190850    0.1840070  
C     0.9188650    3.2839200    0.3389390  
C     2.3342530    3.1876370    0.1463320  
C     2.6211390    1.8282550   -0.1372210  
N     1.4208770    1.1447380   -0.1363600  
C     3.9193800    1.3205030   -0.3611270  
C     4.9466260    2.2644080   -0.2873180  
O     6.2434760    1.8843760   -0.4977630  
C     4.6789530    3.6321290   -0.0122470  
O     5.8167980    4.4213830    0.0160700  
C     3.3997760    4.1088210    0.1967170  
H     0.3488230    4.1851620    0.5218760  
H     1.3623180    0.1371420   -0.0958680  
H     6.7816370    2.6948200   -0.4705580  
H     5.5591810    5.3531490    0.0728440  
H     3.2278640    5.1619080    0.4095390  
C    -1.9339690    2.0503720    1.1576310  
C    -0.9856380    1.5594080    0.3058360  
C    -1.6382240    0.5013340   -0.4649160  
C    -3.0374620    0.4303630    0.0180150  
N    -3.1600540    1.4208600    0.9710230  
C    -3.9734500   -0.4699390   -0.4083640  
C    -3.5617250   -1.3979850   -1.4844260  
O    -4.3380120   -2.1679110   -2.0212240  
C    -2.0818700   -1.3374130   -2.0053630  
O    -1.7254820   -2.1318080   -2.8611590  
C    -1.1872340   -0.3248240   -1.4456630  
H    -0.1765590   -0.2770150   -1.8363270  
H    -1.8299510    2.8233750    1.9069770  
H    -3.9644190    1.5278470    1.5697510  
C    -7.3498690    2.4412860   -0.1539620  
C    -6.1496690    1.8472460   -0.3848150  
C    -6.2371930    0.4877560    0.1122390  
C    -7.6103830    0.3387660    0.6532470  
N    -8.2223680    1.5677350    0.4828590  
C    -8.1240440   -0.8048000    1.1744880  
C    -7.2673300   -1.9817990    1.2238310  
O    -7.6419920   -3.0669000    1.6397640  
C    -5.7813280   -1.8350840    0.7359170  
O    -5.0108200   -2.7562130    0.9317800  
C    -5.3447150   -0.5520160    0.1188080  
H    -5.2971810    2.2977200   -0.8700710  
H    -9.1436860   -0.8921070    1.5368670  
H    -7.6746720    3.4450810   -0.3945460  
H    -9.1940290    1.7541520    0.6759500  
