64


C    -0.3916690    0.2319590   -0.7253640  
C    -0.1805040   -0.9504610   -1.4037940  
C    -1.4053270   -1.6930840   -1.3878510  
C    -2.3577540   -0.9061240   -0.6949490  
N    -1.7349940    0.2759680   -0.3296030  
C    -3.6842540   -1.3145310   -0.4416000  
C    -3.9951770   -2.5973500   -0.8918300  
O    -5.2506400   -3.1188430   -0.6488820  
C    -3.0662760   -3.3995890   -1.5973900  
O    -3.5760630   -4.6263540   -1.9781180  
C    -1.7837730   -2.9619930   -1.8678120  
H     0.7362160   -1.2316370   -1.9018190  
H    -2.0707780    0.8367300    0.4429340  
H    -5.2737120   -4.0082810   -1.0468490  
H    -2.8903780   -5.1396260   -2.4304020  
H    -1.0835570   -3.5930920   -2.4102030  
C     4.0350120    0.4096110    0.0622430  
C     2.7160170   -0.0010530   -0.1524700  
C     1.9086030    1.1557560   -0.2711900  
C     2.7662760    2.2798810   -0.0882360  
N     4.0449100    1.8050460    0.0684420  
C     2.2991780    3.5958360   -0.0665000  
C     0.9370300    3.7769040   -0.2487740  
O     0.4199010    5.0304950   -0.2543630  
C     0.0541320    2.6744620   -0.4528080  
O    -1.2517020    3.0782460   -0.6260110  
C     0.5071320    1.3563130   -0.4758320  
H     2.3986600   -1.0278750   -0.2088960  
H     4.8235670    2.3527590    0.4014710  
H     2.9450200    4.4550740    0.0777490  
H    -0.5354010    4.9411230   -0.4271320  
H    -1.8106340    2.3597620   -0.9760700  
C    -4.8704620    2.9592520   -1.1342800  
C    -4.3472970    1.6965830   -1.2623960  
C    -4.8181460    0.9236110   -0.1415930  
C    -5.6452140    1.7830330    0.6273960  
N    -5.6429160    3.0182000    0.0082310  
C    -6.3318600    1.3597760    1.7715150  
C    -6.1968050    0.0269310    2.1245250  
O    -6.8571110   -0.4664780    3.2074090  
C    -5.3688930   -0.8563060    1.3781410  
O    -5.3206000   -2.1389970    1.8824810  
C    -4.6412200   -0.4288780    0.2671170  
H    -3.7508900    1.3390790   -2.0901550  
H    -6.1618680    3.8239410    0.3202230  
H    -6.9695320    2.0149300    2.3560960  
H    -6.6312040   -1.4156470    3.2416050  
H    -5.3854670   -2.7603740    1.1261080  
H    -4.7664280    3.8249110   -1.7731520  
C     8.4401570    1.2979850   -0.1271930  
C     7.0936500    1.4419070   -0.2698040  
C     6.5230210    0.1602000    0.1296690  
C     7.7061100   -0.6492010    0.4788040  
N     8.8252920    0.0215870    0.3429780  
C     7.6022640   -2.0219840    0.9057200  
C     6.3725040   -2.5788230    0.9502890  
O     6.1352650   -3.8612800    1.2948360  
C     5.1386290   -1.8018520    0.6063650  
O     4.0724920   -2.4142400    0.6610840  
C     5.2447270   -0.3446730    0.2340390  
H     6.5794140    2.2960080   -0.6875150  
H     8.4980760   -2.5801080    1.1551320  
H     5.1615430   -3.9669640    1.2341190  
H     9.2101140    2.0286880   -0.3460040  
