62


C    -4.3764780    0.3227550   -2.3051130  
C    -3.2145200   -0.1900000   -1.7779910  
C    -3.5794630   -1.0686900   -0.6954970  
C    -4.9964910   -1.0535140   -0.6306040  
N    -5.4523770   -0.1798640   -1.6012600  
C    -5.7326160   -1.8419040    0.2606560  
C    -5.0090610   -2.6890780    1.0827420  
O    -5.6493110   -3.5094970    1.9561920  
C    -3.5864060   -2.7293810    1.0465290  
O    -3.0455170   -3.6077860    1.9497780  
C    -2.8374840   -1.9009830    0.2033320  
H    -2.2199720   -0.0079340   -2.1582150  
H    -6.4217190   -0.0381800   -1.8384930  
H    -6.8169760   -1.8359780    0.3022330  
H    -4.9430230   -4.0320220    2.3848690  
H    -2.2821780   -4.0503990    1.4987770  
H    -4.5281980    0.9798080   -3.1504660  
C    -0.0616870    1.5394600    0.2022580  
C    -1.1384320    0.6809500    0.3355350  
C    -0.6633860   -0.6578590    0.2404570  
C     0.8051790   -0.5565880    0.0955040  
N     1.1023060    0.7941120    0.0684150  
C     1.6592710   -1.6146140   -0.0280510  
C     1.0327740   -2.9472220    0.0858030  
O     1.6717120   -3.9822350    0.1094420  
C    -0.5310540   -3.0598180    0.2580350  
O    -0.9719850   -4.2010000    0.4292060  
C    -1.3566550   -1.8592470    0.2348860  
H    -2.1579770    0.9568610    0.5436390  
H     2.0230770    1.2151580    0.0634920  
C     4.7817490    0.3914170    2.4085270  
C     5.8539890    0.0885190    1.6132230  
C     5.3540740   -0.6628190    0.4961400  
C     3.9508440   -0.7823570    0.6698530  
N     3.6277410   -0.1189970    1.8382290  
C     3.1158970   -1.4849430   -0.2266300  
C     3.7481240   -2.0652860   -1.3299290  
O     3.0039660   -2.7095310   -2.2706940  
C     5.1488810   -1.9518730   -1.5167460  
O     5.6063540   -2.5728900   -2.6653980  
C     5.9524990   -1.2634020   -0.6279440  
H     6.8812550    0.3725060    1.7956000  
H     2.7204310   -0.1308950    2.2772910  
H     3.6251290   -3.1155950   -2.8999510  
H     6.5747300   -2.5654020   -2.6708460  
H     7.0246970   -1.1885260   -0.7983470  
H     4.7329250    0.9467000    3.3343080  
C    -3.2313250    4.3877340   -0.8729530  
C    -2.5871190    5.5500240   -0.6050430  
C    -1.2527620    5.2039860   -0.1622780  
C    -1.1834110    3.7235680   -0.1744640  
N    -2.4130160    3.2905680   -0.5973270  
C    -0.0637310    2.9854840    0.1660020  
C     1.1626130    3.7538460    0.4393730  
O     2.2618430    3.2333820    0.5800480  
C     1.0731070    5.3170820    0.5544940  
O     2.0636110    5.9303820    0.9157680  
C    -0.1885150    5.9667120    0.2076480  
H    -2.9836260    6.5490990   -0.7106340  
H    -0.2277300    7.0507240    0.2490370  
H    -4.2352210    4.2200920   -1.2388720  
H    -2.6340120    2.3348990   -0.8610630  
