62


C     6.7771910   -2.9955850    0.2840890  
C     5.6067050   -2.2926820    0.1417370  
C     5.9554820   -0.9054130   -0.0321290  
C     7.3736190   -0.8407050    0.0027750  
N     7.8425640   -2.1224840    0.2128800  
C     8.0914580    0.3443600   -0.1914040  
C     7.3519770    1.4847520   -0.4551170  
O     7.9768480    2.6706520   -0.6809410  
C     5.9295090    1.4576550   -0.4958780  
O     5.3680320    2.6846710   -0.7432970  
C     5.2004150    0.2892620   -0.2491740  
H     4.6166790   -2.7250140    0.1200360  
H     8.8153580   -2.3847340    0.2421060  
H     9.1755250    0.3902290   -0.1731440  
H     7.2624910    3.3066350   -0.8812720  
H     4.6077120    2.5367410   -1.3577910  
H     6.9404220   -4.0549800    0.4229020  
C     2.5377950   -1.4651160    2.7440200  
C     1.3263950   -1.2214660    2.1838380  
C     1.5582810   -0.4844380    0.9621250  
C     3.0304470   -0.3311950    0.8487070  
N     3.5583690   -0.9227130    1.9696150  
C     3.7197380    0.2755610   -0.1804180  
C     2.8712800    0.9285860   -1.1681720  
O     3.2925150    1.6793050   -2.0508920  
C     1.3105300    0.7226110   -1.1306130  
O     0.6582070    1.2421910   -2.0166030  
C     0.7044440   -0.0206850   -0.0044670  
H     0.3635310   -1.4805770    2.5927830  
H     2.7791540   -1.9775870    3.6657060  
H     4.5460180   -1.0964840    2.0899290  
C    -2.3410180    1.0720530    2.9940150  
C    -3.4898590    0.7569150    2.3544100  
C    -3.0768390    0.2013430    1.0673340  
C    -1.5898570    0.2621460    1.1133500  
N    -1.1658090    0.7793780    2.2311980  
C    -0.7563210   -0.1925960    0.0076730  
C    -1.4237630   -0.7477640   -1.0440660  
O    -0.7990070   -1.3005450   -2.0976520  
C    -2.9088780   -0.8838890   -1.0752380  
O    -3.3758030   -1.5139970   -2.0369620  
C    -3.7643120   -0.2905560   -0.0025870  
H    -4.5052210    0.8732020    2.7019890  
H    -1.5087680   -1.6287820   -2.6890750  
H    -2.2189660    1.4992710    3.9819290  
C    -6.6301350    3.1178190    0.4825460  
C    -5.4999580    2.3468220    0.3913790  
C    -5.9198480    1.0047970    0.1003350  
C    -7.3395350    1.0343060    0.0134970  
N    -7.7423980    2.3289280    0.2669430  
C    -8.1090320   -0.0861140   -0.3058390  
C    -7.4265260   -1.2633000   -0.5774390  
O    -8.1149400   -2.3876340   -0.9095980  
C    -6.0108340   -1.3259760   -0.5236230  
O    -5.5041060   -2.5778120   -0.7995450  
C    -5.2314820   -0.2223230   -0.1506320  
H    -4.4882120    2.7000110    0.5231890  
H    -8.6951160    2.6562840    0.2373650  
H    -9.1920480   -0.0611260   -0.3714510  
H    -7.4365690   -3.0671640   -1.0880650  
H    -4.7518740   -2.4508660   -1.4170040  
H    -6.7355630    4.1734220    0.6891380  
