62


C    -3.2616650    0.9218370   -1.7216580  
C    -4.5648740    1.3246620   -1.7094200  
C    -5.2341880    0.5749490   -0.6807160  
C    -4.2757410   -0.2938200   -0.1032170  
N    -3.0569650   -0.0671470   -0.7525100  
C    -4.5817560   -1.1409450    0.9672490  
C    -5.8836910   -1.1272930    1.4437250  
O    -6.2335780   -1.9421600    2.4806800  
C    -6.8592880   -0.2732580    0.8668620  
O    -8.1074840   -0.3716220    1.4510220  
C    -6.5495550    0.5740290   -0.1814050  
H    -5.0090900    2.0550100   -2.3724670  
H    -3.8613250   -1.8164770    1.4108060  
H    -7.1833700   -1.8110940    2.6433250  
H    -8.7376160    0.1762540    0.9603470  
H    -7.3076770    1.2316680   -0.6022990  
H    -2.4461550    1.1984560   -2.3736840  
C     0.9177650    1.6731040   -0.1254710  
C    -0.4372870    1.4665450   -0.2737670  
C    -0.6694770    0.0522660   -0.3419080  
C     0.6533800   -0.5914580   -0.2159890  
N     1.5609260    0.4303630   -0.1120000  
C     0.8815600   -1.9466660   -0.2289970  
C    -0.3060990   -2.8094670   -0.3121050  
O    -0.2632390   -4.0190030   -0.1638360  
C    -1.7149970   -2.1545990   -0.5453630  
O    -2.6623860   -2.8858140   -0.7706510  
C    -1.8210890   -0.6821870   -0.4999990  
H    -1.2121990    2.2148190   -0.2276460  
H     2.5414880    0.3252460    0.1109730  
C     4.4061420   -1.7042960    2.5663500  
C     3.1888400   -1.4733970    2.0133140  
C     3.1455360   -2.3178690    0.8236180  
C     4.4671310   -3.0115480    0.8317760  
N     5.1992570   -2.6464430    1.8495040  
C     4.8251900   -3.9837590   -0.1682130  
C     3.9180860   -4.2559530   -1.1332880  
O     4.1169570   -5.1338680   -2.1300350  
C     2.5938890   -3.5431800   -1.2032940  
O     1.9009860   -3.7503700   -2.1929790  
C     2.2054310   -2.5679680   -0.1290540  
H     2.4051230   -0.8266990    2.3806070  
H     5.7915850   -4.4738500   -0.1272070  
H     3.3114360   -5.0798640   -2.6898220  
H     4.8135760   -1.2729800    3.4736290  
C    -0.1276370    5.7893150   -1.3657600  
C     0.9902620    6.4109120   -0.8803220  
C     1.8150730    5.3924050   -0.2956720  
C     1.1290190    4.1589800   -0.4455670  
N    -0.0567740    4.4346670   -1.0894490  
C     1.6602990    2.9184200   -0.0031890  
C     2.9457870    2.9807200    0.5624990  
O     3.5598460    1.8391600    0.9976310  
C     3.6320530    4.2068050    0.7232480  
O     4.8686460    4.0663350    1.3204420  
C     3.0828540    5.4067360    0.3142840  
H     1.2072890    7.4685820   -0.9331180  
H    -0.6790440    3.7356880   -1.4639600  
H     4.4320910    2.0871630    1.3538030  
H     5.3025040    4.9292870    1.3917410  
H     3.6285470    6.3381220    0.4484660  
H    -0.9859780    6.1952010   -1.8818170  
