62


C    -1.5759060   -3.7491180   -1.6852030  
C    -2.6552310   -4.5760830   -1.6073180  
C    -3.6135560   -3.9566170   -0.7294240  
C    -3.0554560   -2.7298860   -0.2970340  
N    -1.7953550   -2.6069620   -0.9046260  
C    -3.7049910   -1.8932850    0.6175020  
C    -4.9516280   -2.2900890    1.0788460  
O    -5.6166030   -1.5031890    1.9746410  
C    -5.5365440   -3.5037730    0.6376680  
O    -6.7776150   -3.7559200    1.1827320  
C    -4.8812500   -4.3367950   -0.2527500  
H    -2.7682010   -5.5170430   -2.1280470  
H    -3.2791720   -0.9670890    0.9806940  
H    -6.4632000   -1.9402140    2.1724270  
H    -7.1223100   -4.5946740    0.8418760  
H    -5.3363330   -5.2734120   -0.5677220  
H    -0.6642220   -3.8299630   -2.2578140  
C    -0.8643370   -1.5973130   -0.7307530  
C     0.4991440   -1.6640500   -0.7211650  
C     1.0040560   -0.3236510   -0.5408890  
C    -0.1821560    0.5445140   -0.4260710  
N    -1.2947990   -0.2843430   -0.5153940  
C    -0.1802990    1.9040750   -0.2708610  
C     1.1444330    2.5197050   -0.0986080  
O     1.2985290    3.6847890    0.2233450  
C     2.4302550    1.6241750   -0.2483280  
O     3.5081330    2.1918960   -0.1764220  
C     2.2929490    0.1663090   -0.4716440  
H     1.0874210   -2.5677430   -0.7485520  
H    -2.1980260    0.0552420   -0.8184720  
C     3.5498980   -1.6885350   -1.6201260  
C     3.4758150   -0.6627570   -0.6898170  
C     4.7695670   -0.6337680   -0.0267930  
C     5.5515010   -1.6708800   -0.5924010  
N     4.7807770   -2.2896640   -1.5617700  
C     6.8563850   -1.9639600   -0.1786030  
C     7.3907190   -1.1860400    0.8356810  
O     8.6614890   -1.4127120    1.2756910  
C     6.6233170   -0.1444480    1.4204430  
O     7.2880940    0.5457860    2.4173810  
C     5.3340040    0.1339380    1.0108290  
H     5.1027000   -3.0150160   -2.1836320  
H     7.4506230   -2.7569870   -0.6209960  
H     8.8516700   -0.7383360    1.9511820  
H     6.7927980    1.3500620    2.6336730  
H     4.7842610    0.9567660    1.4544760  
H     2.8218680   -1.9938000   -2.3574710  
C    -3.8198120    1.8164970    2.2562370  
C    -4.4835130    2.8709010    1.7190930  
C    -3.6591020    3.4104700    0.6576320  
C    -2.4420670    2.5661150    0.6136950  
N    -2.6145300    1.5951210    1.5895920  
C    -1.3849560    2.7471780   -0.2336660  
C    -1.5127950    3.8558190   -1.2124520  
O    -0.7093410    4.0301850   -2.1102180  
C    -2.7711490    4.7953660   -1.1386080  
O    -2.8285450    5.7545250   -1.8926220  
C    -3.8226920    4.4708020   -0.1792880  
H    -5.4548120    3.2368720    2.0185130  
H    -4.6993460    5.1106170   -0.1512050  
H    -4.1180730    1.1520110    3.0562130  
H    -1.8610440    1.0218680    1.9390840  
