62


C    -4.0549140    4.0882560   -1.0399630  
C    -3.5250510    5.3129150   -0.7300190  
C    -2.2186190    5.0758620   -0.1857930  
C    -2.0223950    3.6703370   -0.1747320  
N    -3.1596980    3.0929590   -0.6947230  
C    -0.8199750    3.0640090    0.2713880  
C     0.2059590    3.9405560    0.6508100  
O     1.4193410    3.4448800    1.0479540  
C     0.0154120    5.3420830    0.6521380  
O     1.1236650    6.0469230    1.0838940  
C    -1.1780270    5.9159980    0.2547000  
H    -4.0021460    6.2716860   -0.8782700  
H    -3.2508550    2.1131870   -0.9367280  
H     1.9729660    4.2089890    1.2894840  
H     0.9319150    6.9961470    1.0753430  
H    -1.2978360    6.9974160    0.2630470  
H    -5.0101880    3.8326150   -1.4761610  
C    -0.6817950    1.6187400    0.2966020  
C    -1.6707760    0.6660550    0.3857370  
C    -1.0829980   -0.6168590    0.1755090  
C     0.3647850   -0.3792880    0.0389820  
N     0.5459120    0.9787380    0.1420830  
C     1.3290800   -1.3502420   -0.1329980  
C     0.7994600   -2.7053800   -0.3707840  
O     1.5039090   -3.6563720   -0.6908420  
C    -0.7475410   -2.9830480   -0.2429910  
O    -1.1199700   -4.1207090   -0.4824160  
C    -1.6481570   -1.8740890    0.0922230  
H    -2.7138050    0.8468560    0.5769580  
H     1.4162980    1.4638310   -0.0121100  
C    -5.3005030   -0.2068170   -1.8620210  
C    -6.2532630   -1.0488360   -1.4049580  
C    -5.5576050   -1.9429980   -0.4883850  
C    -4.1263910   -1.4803810   -0.5233050  
N    -3.9989660   -0.4510080   -1.3182670  
C    -3.0845200   -2.1598670    0.2419870  
C    -3.5149580   -3.1766990    1.0543030  
O    -2.7010500   -3.8477240    1.8792170  
C    -4.9403060   -3.6278420    1.1290510  
O    -5.2163660   -4.5453460    1.9030640  
C    -5.9554910   -2.9626520    0.2935640  
H    -7.3045930   -1.0756560   -1.6554090  
H    -3.2652700   -4.5273440    2.3099550  
H    -6.9767340   -3.3248910    0.3628930  
H    -5.4138180    0.6018760   -2.5751100  
C     2.7539860   -1.0944470   -0.1152010  
C     3.4841380   -0.0069180    0.3720220  
C     4.8628350   -0.2866270    0.1633770  
C     4.9371630   -1.5676150   -0.4586010  
N     3.6539930   -2.0220850   -0.6191100  
C     6.1546010   -2.1675520   -0.8043220  
C     7.3156110   -1.4679660   -0.5177380  
O     8.5288330   -2.0043400   -0.8308300  
C     7.2609990   -0.1868760    0.1041250  
O     8.5049930    0.3762510    0.3196320  
C     6.0624200    0.4053230    0.4435520  
H     3.0864140    0.8490240    0.8989000  
H     3.3432220   -2.9370800   -0.9236510  
H     6.2158950   -3.1423900   -1.2763010  
H     9.2079660   -1.3689990   -0.5452540  
H     8.3999800    1.2285620    0.7674010  
H     6.0460750    1.3846180    0.9181830  
