60


C    -4.8353810   -0.7941710    2.2744970  
C    -4.4199740   -0.5186290    0.9703260  
C    -5.6396200   -0.3747460    0.1857200  
C    -6.7229590   -0.5972120    1.0701890  
N    -6.1918640   -0.8369850    2.3312500  
C    -8.0629230   -0.5842600    0.6737420  
C    -8.3259630   -0.3408390   -0.6655970  
O    -9.6100530   -0.3075190   -1.1120640  
C    -7.2576160   -0.1253190   -1.5750320  
O    -7.6713740    0.1023120   -2.8705200  
C    -5.9352610   -0.1424600   -1.1718530  
H    -6.7327710   -0.9490750    3.1760640  
H    -8.8832440   -0.7555390    1.3628680  
H    -9.5816890   -0.1086290   -2.0644070  
H    -6.9073160    0.3286410   -3.4217570  
H    -5.1430590    0.0548510   -1.8844370  
H    -4.2340640   -0.8963080    3.1657670  
C    -0.7306870   -2.5751830    2.4058170  
C    -2.0368200   -2.3012290    2.1511610  
C    -2.0292840   -1.1660630    1.2360000  
C    -0.5998130   -0.8919650    1.0365730  
N     0.1586120   -1.7079340    1.7249330  
C    -0.1346120    0.1757650    0.1585790  
C    -1.0872660    0.8358090   -0.5626610  
O    -0.8045800    1.7602230   -1.5054860  
C    -2.5373430    0.5733200   -0.3835280  
O    -3.3029430    1.2151600   -1.1094060  
C    -3.0161620   -0.4278330    0.6297370  
H    -2.9050330   -2.8370170    2.5067930  
H    -1.6826670    2.0669830   -1.8243450  
H    -0.3183590   -3.3588850    3.0291570  
C     2.2449500   -0.5066470    0.0278070  
C     3.4914100    0.0446340   -0.0378140  
C     3.3040690    1.4954340   -0.0086000  
C     1.8430580    1.7275770    0.0725870  
N     1.2366380    0.4627720    0.0666150  
C     1.2739710    2.9514380    0.1945140  
C     2.1410410    4.1289630    0.1767690  
O     1.7091430    5.2671910    0.2766230  
C     3.6834930    3.9076820    0.0125560  
O     4.4197030    4.8785330   -0.0576290  
C     4.1813530    2.5288440   -0.0432570  
H     0.2082670    3.1119170    0.2802530  
H     5.2545950    2.3847360   -0.0728810  
H     1.9652750   -1.5463970    0.1031640  
C     4.6302310   -3.2761930   -2.6642320  
C     5.8806610   -3.5259530   -2.1984100  
C     6.1397560   -2.5824320   -1.1309970  
C     4.9172290   -1.7539960   -1.0081110  
N     4.0279860   -2.2488150   -1.9446150  
C     4.7470060   -0.7088560   -0.1396780  
C     5.8891390   -0.4108360    0.7493230  
O     5.8665170    0.4810420    1.5810880  
C     7.1930870   -1.2890010    0.6391970  
O     8.1328710   -1.0216670    1.3713150  
C     7.2245720   -2.3729790   -0.3370480  
H     6.5597430   -4.2867910   -2.5545580  
H     8.1289360   -2.9694190   -0.4060530  
H     4.0848730   -3.7614450   -3.4629990  
H     3.1725630   -1.7790970   -2.2009260  
