66


C    -0.9780090   -0.7960160   -0.0561710  
C     0.2366620   -1.4445420    0.0766010  
C     1.2657030   -0.4440350    0.1000300  
C     0.6119610    0.8147890    0.0009710  
N    -0.7368840    0.5674900   -0.1069110  
C     1.2698410    2.0635350    0.0209750  
C     2.6538810    1.9661590    0.1466650  
O     3.4271880    3.1080180    0.1711340  
C     3.3425060    0.7322280    0.2448500  
O     4.7129560    0.8752370    0.3374060  
C     2.6849340   -0.4982110    0.2053510  
H     0.3621910   -2.5077070    0.2199860  
H    -1.4244060    1.2822760   -0.2915270  
H     4.3454810    2.7865590    0.2883680  
H     5.0271930    0.2684620    1.0446660  
C    -2.3305970   -1.3050910   -0.0795440  
C    -2.8245670   -2.5398600   -0.4466250  
C    -4.2440550   -2.5101030   -0.2671240  
C    -4.5755280   -1.2153120    0.2156520  
N    -3.4016040   -0.4893230    0.2915860  
C    -5.8871060   -0.8353290    0.5201230  
C    -6.8879330   -1.7758100    0.3261790  
O    -8.1853340   -1.4577210    0.6102130  
C    -6.5783290   -3.0700640   -0.1698850  
O    -7.6831220   -3.8896940   -0.3160350  
C    -5.2813860   -3.4436290   -0.4686550  
H    -2.2346180   -3.3574460   -0.8377410  
H    -3.2956310    0.3666920    0.8183560  
H    -6.1439070    0.1513050    0.8921090  
H    -8.7234460   -2.2416820    0.4053440  
H    -7.4003360   -4.7539800   -0.6491350  
H    -5.0692000   -4.4424490   -0.8453200  
C    -2.4051310    3.6740360    2.0905470  
C    -1.3120020    2.9216120    1.7404830  
C    -0.6457130    3.6068280    0.6603560  
C    -1.3897670    4.7912480    0.4147740  
N    -2.4611280    4.7957840    1.2863650  
C    -1.0152400    5.7492190   -0.5348550  
C     0.1560670    5.5087280   -1.2323770  
O     0.6035110    6.4039920   -2.1547950  
C     0.9191330    4.3272660   -1.0169580  
O     2.0310830    4.2336690   -1.8262500  
C     0.5298440    3.3440090   -0.1048590  
H    -0.9913130    2.0111300    2.2255790  
H    -3.1435960    5.5336510    1.3603030  
H    -1.5814410    6.6571110   -0.7159390  
H     1.4427830    6.0320850   -2.4885240  
H     2.7800040    3.9149200   -1.2750370  
H    -3.1425700    3.5148770    2.8649000  
C     2.4080290   -3.9901610   -2.4985240  
C     3.3673760   -4.7715930   -1.9080680  
C     3.8786300   -4.0329990   -0.7894780  
C     3.1753640   -2.7979190   -0.7488930  
N     2.2993380   -2.7974030   -1.8137550  
C     3.4232930   -1.7854820    0.2092100  
C     4.4387340   -2.0803950    1.1186580  
O     4.7881400   -1.1493840    2.0836740  
C     5.1518460   -3.3014840    1.0978440  
O     6.1168520   -3.3958710    2.0869330  
C     4.8845730   -4.2822980    0.1636520  
H     3.6829910   -5.7521850   -2.2366880  
H     1.6082450   -2.0809650   -1.9799850  
H     5.4899600   -1.5545310    2.6253860  
H     6.5283990   -4.2718590    2.0554550  
H     5.4479870   -5.2130120    0.1586780  
H     1.7888990   -4.1809820   -3.3638940  
