62


C     3.5812720   -0.3112070    0.0997650  
C     4.0944980    0.7877880    0.7900480  
C     5.4421150    0.9573250    0.3852530  
C     5.7278590   -0.0668530   -0.5671430  
N     4.5914990   -0.8146960   -0.7192990  
C     6.9810630   -0.1967100   -1.1793600  
C     7.9598430    0.7182640   -0.8268070  
O     9.1968900    0.6411490   -1.3896090  
C     7.6930090    1.7492010    0.1237950  
O     8.7773210    2.5728060    0.3591630  
C     6.4612210    1.8774440    0.7261910  
H     3.5338620    1.3756300    1.4989250  
H     4.4631550   -1.6115460   -1.3258210  
H     7.2063170   -0.9720800   -1.9039970  
H     9.7305520    1.3635320   -1.0148060  
H     8.5345740    3.2489120    1.0089390  
H     6.2767850    2.6699150    1.4485430  
C     0.0384600    0.7525500    2.4679430  
C    -0.8589580   -0.1749450    2.0553350  
C    -0.1515710   -0.9755620    1.0607270  
C     1.2110710   -0.3756870    1.0108590  
N     1.3079310    0.6310630    1.8328930  
C     2.2676740   -0.9076600    0.1396470  
C     1.8942550   -1.9947930   -0.6145030  
O     2.7346410   -2.6112220   -1.4928430  
C     0.5476400   -2.5868440   -0.6119190  
O     0.3191290   -3.4951630   -1.4192540  
C    -0.5049580   -2.0525910    0.3136680  
H    -1.8716500   -0.3280770    2.4000850  
H     2.1760860   -3.3055570   -1.9125000  
H    -0.0964100    1.5353170    3.2044870  
C    -4.4704540   -0.2607380   -0.5423660  
C    -5.2029690   -1.4338870   -0.4445730  
C    -4.3030310   -2.4829030   -0.0984900  
C    -3.0083890   -1.9041450    0.0079940  
N    -3.1412500   -0.5579720   -0.2452490  
C    -1.8477230   -2.6577940    0.2869960  
C    -2.0387190   -4.0260290    0.5086300  
O    -0.9847100   -4.8024890    0.8620330  
C    -3.3317850   -4.6112500    0.4327240  
O    -3.3339910   -5.9657170    0.6949680  
C    -4.4534930   -3.8667770    0.1307460  
H    -6.2749000   -1.5107040   -0.5633030  
H    -2.3672460    0.0739220   -0.3835030  
H    -1.3015880   -5.7215650    0.9133530  
H    -4.2256990   -6.3224640    0.5690160  
H    -5.4315520   -4.3393210    0.0721490  
C    -5.9858120    1.4692440   -1.5941880  
C    -4.8989760    1.0758620   -0.8637570  
C    -4.2767220    2.3527450   -0.4296570  
C    -5.1477210    3.3999540   -1.0276200  
N    -6.1409250    2.8704820   -1.6937190  
C    -4.8839060    4.7997150   -0.8367150  
C    -3.8262470    5.1511220   -0.0637600  
O    -3.4705700    6.4226020    0.1970520  
C    -2.9549810    4.1223230    0.5839540  
O    -2.0197540    4.5081080    1.2859510  
C    -3.2405550    2.6850830    0.3638700  
H    -5.5309180    5.5388810   -1.2961750  
H    -2.6848220    6.3573180    0.7821670  
H    -2.5876810    1.9827870    0.8748990  
H    -6.6993510    0.8288870   -2.0982280  
