64


C    -0.3480170    1.7391210   -0.5134050  
C    -0.5672210    3.0712960   -0.2596680  
C    -1.9563210    3.2386720    0.0664150  
C    -2.5591150    1.9628410   -0.0138750  
N    -1.5805710    1.0606010   -0.4233010  
C    -3.9178000    1.7093370    0.2825470  
C    -4.6469590    2.8381030    0.6907100  
O    -5.9712530    2.7190700    1.0355040  
C    -4.0633810    4.1254700    0.7518420  
O    -4.9479090    5.1098220    1.1505190  
C    -2.7357920    4.3491250    0.4377460  
H     0.1712380    3.8560030   -0.3495600  
H    -1.6233070    0.0948690   -0.1144020  
H    -6.2866720    3.6095390    1.2711030  
H    -4.4941630    5.9648890    1.1777690  
H    -2.3088990    5.3474710    0.4984220  
C     3.9520060    2.1212840    0.7147860  
C     2.5999560    2.2685560    0.5996710  
C     2.1396980    1.3361230   -0.3967270  
C     3.2684060    0.6222820   -0.8605940  
N     4.3700550    1.1263370   -0.1716720  
C     3.2064670   -0.3918720   -1.8189570  
C     1.9513230   -0.6909020   -2.3276910  
O     1.8188250   -1.6564630   -3.2785500  
C     0.7971920    0.0035870   -1.8833600  
O    -0.3642000   -0.4028840   -2.5077500  
C     0.8589980    1.0200160   -0.9240390  
H     1.9889910    2.9519230    1.1710170  
H     4.0788860   -0.9341410   -2.1655660  
H     0.8775240   -1.6862260   -3.5253430  
H    -1.0824160    0.2146820   -2.2737720  
H     4.6769390    2.6168000    1.3437940  
C    -4.4966150    0.3710810    0.1814610  
C    -4.0485060   -0.7555660   -0.4992650  
C    -4.9833760   -1.8087910   -0.2628940  
C    -5.9984250   -1.2777020    0.5774240  
N    -5.6744290    0.0326650    0.8347290  
C    -7.0931360   -2.0372240    1.0114460  
C    -7.1636850   -3.3551580    0.5901950  
O    -8.2079750   -4.1415610    0.9832600  
C    -6.1560210   -3.9039210   -0.2505280  
O    -6.3703130   -5.2295730   -0.5815190  
C    -5.0777230   -3.1541920   -0.6775790  
H    -3.1899730   -0.8140380   -1.1519420  
H    -6.2419420    0.7099540    1.3221900  
H    -7.8702980   -1.6362980    1.6538560  
H    -8.0688170   -5.0204610    0.5904220  
H    -5.6408820   -5.5454790   -1.1347690  
H    -4.3193200   -3.5967720   -1.3206980  
C     6.5660420    1.2154220   -1.2642040  
C     7.7623660    0.5890540   -1.1637980  
C     7.6557690   -0.3957400   -0.1029030  
C     6.2735140   -0.2995680    0.4236120  
N     5.6591570    0.7020870   -0.3252660  
C     5.7681010   -1.0514660    1.4296830  
C     6.6483470   -2.0401400    2.0526760  
O     6.2919970   -2.7650500    2.9676880  
C     8.1215920   -2.1665420    1.5135830  
O     8.8695170   -2.9859870    2.0223650  
C     8.5393170   -1.2877620    0.4159410  
H     8.6394100    0.7838950   -1.7639460  
H     4.7495350   -0.9560760    1.7901550  
H     9.5580950   -1.3840520    0.0527870  
H     6.2350680    2.0037590   -1.9265860  
