62


C     5.7470410    0.6208230   -2.1490580  
C     6.8810270   -0.0695690   -2.4771770  
C     7.2043240   -0.9122470   -1.3606230  
C     6.2107090   -0.6900850   -0.3716870  
N     5.3218300    0.2608560   -0.8713820  
C     6.1983570   -1.3726500    0.8549740  
C     7.2189700   -2.2829340    1.0903150  
O     7.2531110   -2.9729660    2.2664010  
C     8.2274090   -2.5085110    0.1166370  
O     9.1724300   -3.4402350    0.4998070  
C     8.2275710   -1.8431220   -1.0958930  
H     7.4296040    0.0176990   -3.4050930  
H     5.4202570   -1.2356140    1.5981470  
H     8.0322840   -3.5546960    2.2374930  
H     9.8256160   -3.5504480   -0.2068510  
H     9.0053800   -2.0403610   -1.8310930  
H     5.1954700    1.3699230   -2.6986500  
C     1.0199570    0.2881390   -1.9177460  
C     2.3686240    0.0736170   -1.9181310  
C     2.8995980    0.7129060   -0.7467150  
C     1.8180580    1.3162120   -0.0615440  
N     0.6589180    1.0470810   -0.7962890  
C     1.9690550    1.9689700    1.1662030  
C     3.2484100    2.0386700    1.6953000  
O     3.4554280    2.6714450    2.8814010  
C     4.3595270    1.4739740    1.0137590  
O     5.5633780    1.6635030    1.6447050  
C     4.1975450    0.8105290   -0.1986380  
H     2.9281560   -0.4587480   -2.6741380  
H     1.1466590    2.4308300    1.6976860  
H     4.4063170    2.6115690    3.0809740  
H     6.2497920    1.1157530    1.2269950  
H     0.2713030    0.0362140   -2.6557940  
C    -2.7750320   -1.5214330   -0.4577230  
C    -3.7479440   -0.5884120   -0.1987520  
C    -3.0768190    0.7101350   -0.1455380  
C    -1.6500260    0.4356310   -0.4090860  
N    -1.5391710   -0.9334010   -0.5863850  
C    -0.6629420    1.3775410   -0.4543120  
C    -1.0585290    2.7841840   -0.2238760  
O    -0.2773100    3.7127080   -0.3067920  
C    -2.5632590    3.0774130    0.1349920  
O    -2.8765770    4.2239510    0.4081030  
C    -3.5163020    1.9683390    0.1333500  
H    -4.5450970    2.1949830    0.3906670  
H    -2.8859040   -2.5904440   -0.5812050  
H    -0.6711820   -1.4102710   -0.7849310  
C    -5.1552150   -0.8755800   -0.0202040  
C    -5.7619110   -2.0147900    0.4411060  
C    -7.1870390   -1.8219290    0.3806510  
C    -7.3918530   -0.4565260   -0.1622680  
N    -6.1269470    0.0873590   -0.3348280  
C    -8.6031320    0.0925640   -0.4205460  
C    -9.7992970   -0.6948430   -0.1207100  
O   -10.9306550   -0.2814290   -0.3201200  
C    -9.6077520   -2.1306030    0.4922880  
O   -10.5989120   -2.7956860    0.7552230  
C    -8.2454280   -2.6139730    0.7095880  
H    -5.2558140   -2.8823350    0.8403640  
H    -8.7348570    1.0909030   -0.8266930  
H    -8.1248350   -3.6129990    1.1174600  
H    -5.9449270    0.8697900   -0.9465890  
