62


C     4.3437960   -0.5089630    0.0001430  
C     4.9805760   -1.6702150   -0.3817220  
C     6.3900010   -1.4757660   -0.2062670  
C     6.5671860   -0.1581680    0.2921030  
N     5.3138180    0.4231850    0.3740870  
C     7.8253400    0.3721930    0.5972060  
C     8.9308640   -0.4393110    0.3881790  
O    10.1821840    0.0284350    0.6732890  
C     8.7753400   -1.7537940   -0.1246760  
O     9.9688440   -2.4344040   -0.2858060  
C     7.5299490   -2.2754280   -0.4241020  
H     4.4916280   -2.5430820   -0.7928700  
H     5.1039430    1.2444480    0.9218090  
H     7.9648280    1.3769980    0.9832370  
H    10.8096570   -0.6823410    0.4561690  
H     9.7898930   -3.3189970   -0.6370350  
H     7.4372660   -3.2872010   -0.8145250  
C     1.9031680   -1.0297580    0.3850240  
C     2.9296350   -0.1751200    0.0460830  
C     2.3084610    1.0971440   -0.2525800  
C     0.9132190    0.9424120   -0.0807310  
N     0.6979700   -0.3657290    0.2929830  
C    -0.0251370    1.9976830   -0.2512190  
C     0.5224810    3.2391320   -0.6418020  
O    -0.2717500    4.2989440   -0.9018290  
C     1.9210590    3.3878570   -0.8450950  
O     2.2821260    4.6588630   -1.2485980  
C     2.8099850    2.3482150   -0.6612140  
H    -0.1971730   -0.7315200    0.5791230  
H     0.3079680    5.0272690   -1.1908070  
H     3.2088140    4.6641290   -1.5302180  
H     3.8720600    2.4907480   -0.8467410  
H     1.9455540   -2.0641740    0.6937660  
C    -1.4452120    1.7915920   -0.0402690  
C    -2.1613150    0.6184040   -0.1863300  
C    -3.5202360    0.9369350    0.1604300  
C    -3.4682910    2.3876280    0.5246570  
N    -2.2665260    2.8762510    0.4118390  
C    -4.6441070    3.1094960    0.9305820  
C    -5.8155740    2.4325050    0.9466390  
O    -6.9913970    2.9717660    1.2922860  
C    -5.9036880    0.9590040    0.6123900  
O    -6.9983800    0.4253210    0.7769470  
C    -4.6887140    0.2251300    0.1848740  
H    -1.8273000   -0.3042940   -0.6392110  
H    -4.5765660    4.1596960    1.1910390  
H    -7.6383410    2.2314640    1.2407940  
C    -2.6612100   -3.3003580    1.8730880  
C    -3.2638930   -4.2782030    1.1503100  
C    -4.1865180   -3.6336190    0.2372570  
C    -4.0657130   -2.1781050    0.4895020  
N    -3.1047470   -2.0417270    1.4736190  
C    -4.8099320   -1.2072100   -0.1223390  
C    -5.7572800   -1.6595780   -1.1656870  
O    -6.3870410   -0.8834210   -1.8615260  
C    -5.9142710   -3.2016530   -1.4272480  
O    -6.7411230   -3.5749700   -2.2437970  
C    -5.0613860   -4.1255470   -0.6805440  
H    -3.0958090   -5.3413720    1.2411910  
H    -5.1777970   -5.1880240   -0.8709960  
H    -1.9247920   -3.3836810    2.6617710  
H    -2.8766270   -1.1653800    1.9182390  
