62


C     4.9209900    0.1718020    0.1501680  
C     5.0240120   -1.1995430   -0.0976010  
C     6.4079910   -1.5184270   -0.1893450  
C     7.1259970   -0.3035360    0.0082730  
N     6.2042230    0.6931520    0.2033660  
C     8.5252820   -0.2433050   -0.0112510  
C     9.2118930   -1.4262730   -0.2302430  
O    10.5735250   -1.4272420   -0.2580950  
C     8.5105770   -2.6515550   -0.4279670  
O     9.3416410   -3.7354440   -0.6335830  
C     7.1325970   -2.7108760   -0.4105660  
H     4.2106840   -1.9116600   -0.1006890  
H     6.3685860    1.6556220    0.4729400  
H     9.0758760    0.6791330    0.1392780  
H    10.8603690   -2.3432270   -0.4169050  
H     8.8090460   -4.5373360   -0.7403430  
H     6.6195430   -3.6583590   -0.5637340  
C     0.7227230   -0.4140100   -0.9355540  
C     0.1584470    0.7022400   -0.3770230  
C     1.2629840    1.4632610    0.2167220  
C     2.4821860    0.6748250   -0.0268550  
N     2.0838300   -0.4637910   -0.7067760  
C     3.7609150    1.0169980    0.3512710  
C     3.8890620    2.3531610    0.9721890  
O     4.9659170    2.8888730    1.2042580  
C     2.5865180    3.1464500    1.3593250  
O     2.7181800    4.1686670    2.0146940  
C     1.3006530    2.6359140    0.9084440  
H     0.4201130    3.2306400    1.1164690  
H     0.2415420   -1.1935890   -1.5109950  
H     2.7340590   -1.0350930   -1.2290660  
C    -3.4447260   -1.7637850    0.3907410  
C    -2.1725590   -1.3071380    0.2852280  
C    -2.2412860    0.0774930   -0.1352380  
C    -3.6837070    0.3927200   -0.2452640  
N    -4.3725980   -0.7640540    0.0679130  
C    -4.1948960    1.6169990   -0.5761220  
C    -3.2605850    2.6987210   -0.8336690  
O    -3.6011370    3.8477960   -1.0706430  
C    -1.7222640    2.3747000   -0.7978470  
O    -0.9417050    3.2509060   -1.1249930  
C    -1.2704840    1.0147750   -0.3924180  
H    -1.2759850   -1.8683290    0.4994060  
H    -5.2563090    1.8447620   -0.5428490  
H    -3.8119930   -2.7405800    0.6734250  
C    -7.2967740   -2.1648340    3.0959310  
C    -6.1469420   -1.7499940    2.4758590  
C    -6.4976020   -1.4261410    1.1214090  
C    -7.8912000   -1.6629440    0.9789880  
N    -8.3471250   -2.1175530    2.1985410  
C    -8.5900230   -1.4251840   -0.2103170  
C    -7.8654800   -0.9390460   -1.2880320  
O    -8.4882750   -0.6840710   -2.4701430  
C    -6.4657670   -0.7158820   -1.1912540  
O    -5.8652010   -0.3129010   -2.3666810  
C    -5.7812880   -0.9586390   -0.0022740  
H    -5.1720420   -1.6709300    2.9354020  
H    -9.3051840   -2.3485530    2.4103120  
H    -9.6571700   -1.5929930   -0.3110770  
H    -7.8050670   -0.3402660   -3.0747640  
H    -5.1821860    0.3598030   -2.1846810  
H    -7.4592180   -2.4896680    4.1138080  
