62


C     4.9221610   -0.1639720   -0.0549720  
C     5.3962640    1.1495630   -0.1072720  
C     6.8081050    1.0893780   -0.1686380  
C     7.1722500   -0.2973540   -0.1510530  
N     6.0152440   -1.0204300   -0.0815700  
C     8.5050460   -0.7246610   -0.2002240  
C     9.4848920    0.2514030   -0.2682720  
O    10.7947030   -0.1044830   -0.3187110  
C     9.1414360    1.6399900   -0.2868160  
O    10.2393910    2.4711340   -0.3563690  
C     7.8331250    2.0637770   -0.2381630  
H     4.7805220    2.0383920   -0.1017770  
H     5.8991690   -2.0241660   -0.0578700  
H     8.7884680   -1.7715560   -0.1879650  
H    11.3194970    0.7140010   -0.3658280  
H     9.9497140    3.3953740   -0.3783020  
H     7.5929620    3.1246510   -0.2536100  
C     3.6102370   -0.7111210    0.0131800  
C     2.3729760   -0.0933480    0.0434910  
C     1.4107420   -1.1421190    0.0940420  
C     2.2297870   -2.3875030    0.0795110  
N     3.5107120   -2.1367550    0.0442960  
C     1.6395250   -3.7016070    0.0871430  
C     0.2923430   -3.7717130    0.0700370  
O    -0.4038900   -4.9186830    0.0407900  
C    -0.5781800   -2.5354690    0.0756930  
O    -1.7996120   -2.7593370    0.0234180  
C     0.0209100   -1.1914680    0.1474430  
H     2.1868670    0.9673580   -0.0165300  
H     2.2675150   -4.5852620    0.0802120  
H    -1.3472610   -4.6407800    0.0113280  
C    -0.8391700   -0.0363510    0.2801910  
C    -0.5355610    1.2809250    0.6293190  
C    -1.7444740    2.0229890    0.6318430  
C    -2.7894600    1.1196170    0.2800250  
N    -2.2157100   -0.1105700    0.0826980  
C    -4.1426910    1.5057720    0.1686410  
C    -4.4166480    2.8501080    0.4341900  
O    -5.6975290    3.2917880    0.4052400  
C    -3.3814520    3.7656500    0.7833060  
O    -3.8418320    5.0458540    1.0161020  
C    -2.0643870    3.3750620    0.8874930  
H     0.4398220    1.6522920    0.9016000  
H    -2.6756810   -0.9713930   -0.1805770  
H    -5.6789710    4.2572220    0.5284310  
H    -3.0905400    5.6450030    1.1378270  
H    -1.2926610    4.0918800    1.1595290  
C    -5.4547710   -2.2968870    1.9450070  
C    -6.4551420   -2.6252480    1.0867690  
C    -6.5356640   -1.5728340    0.0957020  
C    -5.4823870   -0.5907520    0.4523670  
N    -4.8668630   -1.0905770    1.5856890  
C    -5.2149550    0.5664220   -0.2221590  
C    -6.0309410    0.8250920   -1.4293080  
O    -5.8264930    1.7639970   -2.1779870  
C    -7.1922250   -0.1761150   -1.7877470  
O    -7.9123770    0.0844120   -2.7396120  
C    -7.3554700   -1.3762370   -0.9719430  
H    -7.0779210   -3.5066080    1.1330130  
H    -8.1453190   -2.0703360   -1.2423430  
H    -5.0927730   -2.8310960    2.8135850  
H    -4.1032970   -0.6400380    2.0655660  
