64


C     5.0404360   -0.7962370   -0.1359190  
C     5.8425130   -1.8558270    0.2103510  
C     7.1974920   -1.4422470   -0.0168770  
C     7.1547000   -0.1058190   -0.4947710  
N     5.8246210    0.2675130   -0.5575250  
C     8.3067530    0.6233240   -0.8097950  
C     9.5288020   -0.0103030   -0.6435830  
O    10.6832690    0.6520220   -0.9427570  
C     9.5926540   -1.3455790   -0.1630470  
O    10.8802760   -1.8342080   -0.0482340  
C     8.4522550   -2.0614510    0.1504310  
H     5.5007310   -2.8005530    0.6094880  
H     5.4654650    1.1250080   -0.9483690  
H     8.2773860    1.6453450   -1.1730610  
H    11.4206200    0.0467970   -0.7525550  
H    10.8543000   -2.7370270    0.3013730  
H     8.5270390   -3.0827680    0.5184570  
C     2.7998380   -1.6759980   -0.7279220  
C     1.4992030   -1.3261800   -0.5939030  
C     1.4524750   -0.0518850    0.0971190  
C     2.8571330    0.3200380    0.3581860  
N     3.6431180   -0.7079230   -0.1578530  
C     3.2650070    1.4572480    0.9909620  
C     2.2484170    2.4003140    1.4028670  
O     2.4883710    3.4665280    1.9542060  
C     0.7397400    2.0480040    1.1124050  
O    -0.1013640    2.8698040    1.4348090  
C     0.3947030    0.7425860    0.4811320  
H     0.6515150   -1.8731380   -0.9766800  
H     4.3027940    1.6824930    1.2082780  
H     3.2489050   -2.5326290   -1.2108270  
C    -1.4435680   -0.9671240    0.5825030  
C    -0.9992240    0.3290340    0.3558630  
C    -2.1786840    1.0942930   -0.0145440  
C    -3.2746070    0.1992400   -0.0011280  
N    -2.7936460   -1.0427410    0.3770160  
C    -4.5952830    0.5502110   -0.3495650  
C    -4.7888380    1.8775140   -0.7297410  
O    -6.0336580    2.3230240   -1.0478130  
C    -3.7002600    2.7895000   -0.7612690  
O    -4.0614310    4.0655320   -1.1525270  
C    -2.4150010    2.4237270   -0.4147070  
H    -3.3678730   -1.8640170    0.4960270  
H    -5.9485470    3.2666500   -1.2703770  
H    -3.3086980    4.6629830   -1.0293420  
H    -1.6150950    3.1558950   -0.4163400  
H    -0.8886250   -1.8252750    0.9329330  
C    -6.2255380   -1.6270030    3.1141630  
C    -7.1722130   -2.3670720    2.4548480  
C    -7.0923110   -2.0150020    1.0642750  
C    -6.0615060   -1.0483170    0.9412670  
N    -5.5380140   -0.8434070    2.2040480  
C    -5.6982750   -0.4408020   -0.2796290  
C    -6.4193010   -0.8462820   -1.4027650  
O    -6.1171920   -0.3321880   -2.6277870  
C    -7.4543020   -1.8134970   -1.2977790  
O    -8.0595670   -2.1087100   -2.5076540  
C    -7.7945660   -2.4013180   -0.0944990  
H    -7.8483040   -3.0806770    2.9057990  
H    -4.8734390   -0.1199740    2.4339290  
H    -6.7582900   -0.7039530   -3.2579580  
H    -8.8122380   -2.6983070   -2.3539950  
H    -8.5910060   -3.1416950   -0.0483230  
H    -5.9706980   -1.5962130    4.1642190  
