62


C    -2.3522170   -1.7017940   -1.7735720  
C    -3.5246650   -2.3812000   -1.5857850  
C    -3.2926640   -3.3526740   -0.5536590  
C    -1.9410510   -3.2163260   -0.1477000  
N    -1.3735150   -2.1966210   -0.9086530  
C    -1.3743130   -3.9956250    0.8673380  
C    -2.1867180   -4.9391440    1.4759510  
O    -1.6839790   -5.7304230    2.4691240  
C    -3.5411850   -5.0960980    1.0781310  
O    -4.2189780   -6.0773490    1.7784100  
C    -4.0984220   -4.3196930    0.0796910  
H    -4.4427700   -2.2232150   -2.1354880  
H    -0.3387090   -3.8995420    1.1712640  
H    -2.3965870   -6.3326000    2.7440800  
H    -5.1154730   -6.1658340    1.4228370  
H    -5.1401760   -4.4528110   -0.2059670  
H    -2.0927430   -0.9312020   -2.4860140  
C    -0.2619590    1.8651680    0.1265680  
C     1.1152890    1.6827390    0.0549340  
C     1.3697940    0.3149300   -0.2728070  
C     0.0969660   -0.3019970   -0.4079300  
N    -0.8670300    0.6510710   -0.1743180  
C    -0.0775980   -1.6471050   -0.7654950  
C     1.0838980   -2.3748470   -1.0152830  
O     1.0106420   -3.6692780   -1.3949510  
C     2.3748150   -1.7815570   -0.8794240  
O     3.3904770   -2.6583540   -1.1475360  
C     2.5580670   -0.4547960   -0.4819980  
H     1.8434900    2.4761930    0.1425270  
H    -1.8434600    0.4342930   -0.0388330  
H     1.9353140   -3.9511030   -1.5467290  
H     4.0797170   -2.1601040   -1.6555990  
C    -0.6226670    4.1711270    1.0997710  
C    -1.0225230    3.0473220    0.4284190  
C    -2.4281220    3.3399880    0.0466900  
C    -2.6788100    4.6952740    0.6056450  
N    -1.6158940    5.1666150    1.2067650  
C    -3.9455560    5.3536780    0.4494940  
C    -4.9167500    4.7148990   -0.2501890  
O    -6.1448300    5.2189190   -0.4683500  
C    -4.6869250    3.3663830   -0.8530810  
O    -5.6067450    2.8414400   -1.4809780  
C    -3.3717420    2.7066370   -0.6757460  
H    -4.0989040    6.3381900    0.8775750  
H    -6.6138870    4.5418460   -1.0026100  
H    -3.2528510    1.7407820   -1.1577160  
H     0.3452490    4.3511750    1.5517900  
C     4.1010900    1.8588700    2.9197500  
C     5.3467600    2.1556460    2.4725370  
C     5.4925090    1.5356670    1.1718680  
C     4.2035820    0.8517870    0.8906390  
N     3.4167580    1.0738520    1.9942240  
C     3.8982620    0.1349920   -0.2473310  
C     5.0114760   -0.0337170   -1.1791420  
O     4.9896760   -0.8055480   -2.1409550  
C     6.3464140    0.7716790   -0.9641890  
O     7.1920160    0.7283860   -1.8419420  
C     6.5191580    1.5094970    0.2823280  
H     6.0989610    2.7315420    2.9912130  
H     7.4587530    2.0279630    0.4435010  
H     3.6189170    2.1315870    3.8490780  
H     2.4415200    0.8178290    2.0478680  
