64


C     3.5759020   -1.9006040   -1.4801080  
C     3.5268820   -0.8051200   -0.6304410  
C     4.8630870   -0.6718170   -0.0735780  
C     5.6465030   -1.7186540   -0.6197750  
N     4.8335420   -2.4416140   -1.4763930  
C     6.9893220   -1.9294610   -0.2866120  
C     7.5616120   -1.0609390    0.6286490  
O     8.8681950   -1.2108430    0.9888400  
C     6.7937640   -0.0102820    1.1959010  
O     7.4982310    0.7718850    2.0915380  
C     5.4680830    0.1902370    0.8623340  
H     5.1350120   -3.2139090   -2.0503250  
H     7.5822410   -2.7330410   -0.7112940  
H     9.0737160   -0.5010520    1.6218090  
H     6.9404000    1.5083010    2.3829630  
H     4.9150800    1.0181350    1.2930800  
H     2.8023920   -2.2965630   -2.1215380  
C    -0.8188470   -1.7782830   -0.3399750  
C     0.5494020   -1.9000120   -0.3997060  
C     1.0493320   -0.5573620   -0.3525800  
C    -0.1753750    0.2892390   -0.2359000  
N    -1.2584710   -0.4346890   -0.2415510  
C    -0.1307980    1.7515790   -0.1512620  
C     1.1264340    2.2626130   -0.2048140  
O     1.3888760    3.5977960   -0.1696530  
C     2.3826480    1.4468170   -0.3036620  
O     3.4358480    2.0978540   -0.3121580  
C     2.3168770   -0.0225580   -0.3997910  
H     1.1400130   -2.8016890   -0.4279700  
H     2.3755860    3.6444710   -0.2168820  
C    -3.7896410    1.6603290    2.4992940  
C    -2.5641910    1.4110590    1.9401830  
C    -2.3958160    2.3302160    0.8488830  
C    -3.5657970    3.1357130    0.8129480  
N    -4.3945220    2.7053710    1.8274850  
C    -3.7530450    4.1798630   -0.0996280  
C    -2.7175820    4.4342150   -0.9825740  
O    -2.8176140    5.4485820   -1.8879100  
C    -1.5304100    3.6559650   -0.9669670  
O    -0.6103770    4.0229690   -1.9314620  
C    -1.3539630    2.5796810   -0.0884000  
H    -1.8699920    0.6490210    2.2597720  
H    -5.3240600    3.0517570    2.0031210  
H    -4.6502110    4.7902460   -0.1228780  
H    -1.9739790    5.4385510   -2.3789440  
H     0.2632860    4.1095130   -1.4960600  
H    -4.2904130    1.1748170    3.3246310  
C    -1.4498460   -4.1221730   -0.6160910  
C    -2.5748430   -4.8843930   -0.5674440  
C    -3.6791710   -4.0073880   -0.2758720  
C    -3.1613910   -2.6942100   -0.1593820  
N    -1.7661090   -2.7789080   -0.3743910  
C    -3.9763100   -1.5979260    0.1402620  
C    -5.3331990   -1.8406160    0.3181380  
O    -6.1692490   -0.8026100    0.6183650  
C    -5.8652850   -3.1468380    0.1968570  
O    -7.2291180   -3.2255400    0.4000530  
C    -5.0535570   -4.2294960   -0.0972440  
H    -2.6217750   -5.9532460   -0.7273670  
H    -3.5858620   -0.5943040    0.2337740  
H    -7.0688850   -1.1678880    0.6746500  
H    -7.5239680   -4.1386230    0.2678930  
H    -5.4733720   -5.2298650   -0.1818430  
H    -0.4293000   -4.4028560   -0.8233970  
