64


C     1.8567130   -0.8355400    0.0110560  
C     3.1390170   -0.4913160   -0.3304140  
C     3.2246940    0.9500540   -0.3305250  
C     1.9461920    1.4386870    0.0239260  
N     1.1268770    0.3307040    0.2182240  
C     1.6505190    2.8014190    0.1234390  
C     2.6795090    3.6911100   -0.1450020  
O     2.4564610    5.0326510   -0.0592560  
C     3.9710030    3.2202350   -0.5093630  
O     4.8813630    4.2292000   -0.7497420  
C     4.2536530    1.8711040   -0.6074410  
H     0.6676910    3.1693220    0.3952290  
H     3.2930000    5.4788360   -0.2780440  
H     5.7498450    3.8446620   -0.9408510  
H     5.2466990    1.5278240   -0.8854370  
H     1.3908560   -1.8021770    0.1293980  
C    -0.6750450    0.3848700    1.8772470  
C    -2.0404180    0.4236170    1.8442280  
C    -2.4437090    0.4390920    0.4618250  
C    -1.2644960    0.4016680   -0.3193140  
N    -0.1951440    0.3734830    0.5698990  
C    -1.2629200    0.3754950   -1.7156110  
C    -2.4995670    0.3905320   -2.3410120  
O    -2.5694730    0.3729380   -3.7011140  
C    -3.7014920    0.4394040   -1.5857360  
O    -4.8324370    0.4907200   -2.3740500  
C    -3.7051020    0.4638070   -0.1909260  
H    -2.6894630    0.4230640    2.7084070  
H    -0.3526200    0.3458640   -2.3034480  
H    -3.5122020    0.3878320   -3.9422160  
H    -5.6293640    0.4684820   -1.8217840  
H     0.0223300    0.3617000    2.7017080  
C     4.0961260   -2.3486850   -1.6809400  
C     5.2588360   -3.0671870   -1.7300680  
C     6.1184730   -2.5509580   -0.7022530  
C     5.4092480   -1.5079300   -0.0520460  
N     4.1669580   -1.3936340   -0.6699690  
C     5.9404710   -0.7944000    1.0307130  
C     7.2193940   -1.1268890    1.4504450  
O     7.7879410   -0.4576990    2.4987260  
C     7.9489490   -2.1584780    0.8037960  
O     9.2098750   -2.3697460    1.3340210  
C     7.4163080   -2.8692830   -0.2558880  
H     5.4815580   -3.8667090   -2.4235340  
H     5.3918940   -0.0115050    1.5419990  
H     8.6633410   -0.8542510    2.6482650  
H     9.6258840   -3.1190920    0.8830990  
H     7.9915770   -3.6616200   -0.7315250  
H     3.2063930   -2.4061300   -2.2916500  
C    -5.2534290    1.4436410    1.5621430  
C    -4.9631400    0.5442200    0.5751590  
C    -6.1372130   -0.3202610    0.4608660  
C    -7.1239740    0.1708640    1.4565740  
N    -6.5179780    1.2351780    2.0947120  
C    -8.3527600   -0.3690300    1.6533820  
C    -8.7462710   -1.5181660    0.8412480  
O    -9.8346680   -2.0622120    0.9409850  
C    -7.7097600   -2.0737210   -0.2021880  
O    -8.0104060   -3.0461010   -0.8751480  
C    -6.4133830   -1.3965560   -0.3266750  
H    -9.0589420    0.0056630    2.3880930  
H    -5.7017330   -1.8017560   -1.0394190  
H    -4.6355810    2.2501360    1.9343510  
H    -6.9439600    1.7932040    2.8180550  
