62


C     2.8393630   -4.3782500    0.5968830  
C     2.7360540   -3.0068750    0.5214690  
C     4.0018370   -2.5058220    0.0793270  
C     4.8433740   -3.6315980   -0.0845090  
N     4.1073170   -4.7554900    0.2262800  
C     6.1899600   -3.5445800   -0.4653150  
C     6.7172510   -2.2835230   -0.6744100  
O     8.0218520   -2.1377850   -1.0310120  
C     5.9178250   -1.1179460   -0.5264890  
O     6.5886450    0.0244560   -0.7703260  
C     4.5349400   -1.1935890   -0.1772780  
H     1.8588050   -2.4439800    0.7985470  
H     4.4522130   -5.7025240    0.1968210  
H     6.8227440   -4.4182630   -0.5865410  
H     8.1766560   -1.1798720   -1.1270650  
H     5.9484180    0.7911210   -0.6082240  
H     2.1047660   -5.1149860    0.8887070  
C     3.7414290   -0.0047330   -0.1235350  
C     2.3716750    0.1794020    0.0097140  
C     2.1375970    1.5750140   -0.0071670  
C     3.4990970    2.1845290   -0.1726200  
N     4.4178160    1.2620980   -0.2418750  
C     3.7042810    3.5986400   -0.2533740  
C     2.5894570    4.3655200   -0.2294340  
O     2.5966850    5.6943340   -0.3273710  
C     1.1883470    3.7780770   -0.1146050  
O     0.2771940    4.6317930   -0.1870230  
C     0.9889510    2.3549130    0.0636240  
H     1.6112470   -0.5789950    0.0617670  
H     4.6984950    4.0184770   -0.3527550  
H     1.6441910    5.9534530   -0.3093560  
C    -0.5387870   -0.5872140    3.1028370  
C     0.2397600    0.2804790    2.3814830  
C    -0.5880450    0.8471350    1.3511250  
C    -1.8819850    0.2890240    1.5211940  
N    -1.8233780   -0.5760170    2.5954390  
C    -2.9936740    0.6139690    0.7185520  
C    -2.7497650    1.5631650   -0.2761810  
O    -3.7617310    1.9726750   -1.0874810  
C    -1.4702980    2.1463990   -0.4644360  
O    -1.4329060    3.0518860   -1.5036180  
C    -0.3593930    1.7943560    0.3084300  
H     1.2816540    0.4929100    2.5666380  
H    -2.5731930   -1.1916660    2.8690510  
H    -3.3654580    2.6511640   -1.6697910  
H    -0.9567000    3.8466800   -1.1734110  
H    -0.2878660   -1.2056090    3.9531100  
C    -4.9997130   -0.0074100    2.1331650  
C    -4.3249520    0.0285910    0.9471880  
C    -5.1801710   -0.6535050   -0.0264810  
C    -6.3985010   -1.0784630    0.7051290  
N    -6.2171270   -0.6717410    2.0121600  
C    -7.4452410   -1.7385100    0.1457800  
C    -7.3732050   -2.0750760   -1.2713120  
O    -8.2607650   -2.6703460   -1.8642250  
C    -6.0802420   -1.6542850   -2.0626200  
O    -5.9927410   -1.9407200   -3.2459450  
C    -5.0225380   -0.9322580   -1.3445500  
H    -8.3296690   -2.0353130    0.7013760  
H    -4.1476620   -0.6250470   -1.9061080  
H    -4.7108650    0.4179470    3.0857970  
H    -6.9181800   -0.7312360    2.7339000  
