62


C     6.0551250   -1.7074840   -0.6782500  
C     7.3194660   -1.1979760   -0.7026180  
C     7.2310320    0.1861890   -0.3214200  
C     5.8636170    0.4708950   -0.0865280  
N     5.1435700   -0.7099140   -0.3102590  
C     5.4259510    1.7247670    0.3529500  
C     6.3824690    2.7128810    0.5305800  
O     6.0022350    3.9547320    0.9498020  
C     7.7541950    2.4482320    0.2835760  
O     8.5835890    3.5301930    0.5060340  
C     8.1855820    1.2025180   -0.1352360  
H     8.2146790   -1.7388730   -0.9784340  
H     4.3844180    1.9588830    0.5328620  
H     6.8043590    4.5028470    0.9937920  
H     9.4934280    3.2934140    0.2732650  
H     9.2435350    1.0130960   -0.3060010  
H     5.6894250   -2.6908640   -0.9343340  
C     2.9002470   -3.8355530    1.7814880  
C     3.8832760   -3.0172340    1.3238320  
C     3.2510800   -1.9970430    0.5154760  
C     1.8133860   -2.2983730    0.5236860  
N     1.6644280   -3.4486100    1.2716160  
C     0.8154910   -1.5496480   -0.0681880  
C     1.2691800   -0.2920020   -0.6680170  
O     0.5190670    0.6063080   -1.0390580  
C     2.8132920   -0.0339270   -0.8604680  
O     3.1433760    0.8818540   -1.5919840  
C     3.7652290   -0.9147710   -0.1620920  
H     4.9382590   -3.0968940    1.5368080  
H     2.9677020   -4.6930600    2.4373260  
H     0.7703420   -3.7346440    1.6456440  
C    -0.5868280   -1.9180830   -0.0669490  
C    -1.2172360   -3.1477380    0.1265980  
C    -2.6203580   -2.9378690   -0.0111800  
C    -2.8072900   -1.5558850   -0.2914810  
N    -1.5665760   -0.9716650   -0.3139660  
C    -4.0731470   -0.9631510   -0.4944150  
C    -5.1656970   -1.8281160   -0.4061410  
O    -6.4255080   -1.3538180   -0.6181550  
C    -4.9964720   -3.2117700   -0.1187320  
O    -6.1885390   -3.9075730   -0.0707010  
C    -3.7526430   -3.7757810    0.0743150  
H    -0.7296210   -4.1058480    0.2422090  
H    -1.3350020   -0.0079620   -0.5168090  
H    -7.0385310   -2.1032960   -0.5171730  
H    -6.0126250   -4.8460010    0.0917560  
H    -3.6532870   -4.8378420    0.2882440  
C    -3.4885080    1.1682280   -1.7239120  
C    -4.2105330    0.4720100   -0.7967590  
C    -5.0805050    1.4502110   -0.1424040  
C    -4.7967160    2.7596340   -0.7812300  
N    -3.8318080    2.5140200   -1.7363340  
C    -5.3961040    3.9307300   -0.4442430  
C    -6.3877500    3.9188920    0.6244660  
O    -6.9825890    4.9190990    0.9983480  
C    -6.6954360    2.5453020    1.3260820  
O    -7.5158400    2.5139470    2.2302460  
C    -5.9818610    1.3486960    0.8671260  
H    -5.1702880    4.8764810   -0.9273500  
H    -6.2163800    0.4067090    1.3485810  
H    -2.7413890    0.8004020   -2.4154430  
H    -3.3918560    3.2180450   -2.3080770  
