60


C     3.7039260   -2.5191070   -0.3556730  
C     4.7598620   -3.3700360   -0.4059830  
C     5.9617750   -2.5869330   -0.2529080  
C     5.5739460   -1.2345680   -0.1111580  
N     4.1574900   -1.2000110   -0.1753830  
C     6.5065880   -0.2087110    0.0591430  
C     7.8512870   -0.5628200    0.0842710  
O     8.7937270    0.4077320    0.2473180  
C     8.2532320   -1.9125960   -0.0572730  
O     9.6172020   -2.1042570   -0.0109100  
C     7.3223250   -2.9257300   -0.2248770  
H     4.7003480   -4.4414940   -0.5424600  
H     6.2102120    0.8248500    0.1630600  
H     9.6650070   -0.0241630    0.2268710  
H     9.8214650   -3.0415700   -0.1456200  
H     7.6428130   -3.9598240   -0.3320570  
H     2.6476400   -2.7172670   -0.4422440  
C     3.3197780   -0.1217240   -0.0871380  
C     1.9306560   -0.1231450   -0.1279480  
C     1.5569690    1.2488690   -0.0360230  
C     2.8648530    1.9822720    0.0702200  
N     3.8848820    1.1626260    0.0486240  
C     2.9395340    3.4083650    0.1610340  
C     1.7646510    4.0832150    0.1469350  
O     1.6603010    5.4081450    0.2198040  
C     0.4134550    3.3789070    0.0902410  
O    -0.5659110    4.1134170    0.2155530  
C     0.3528310    1.9174730   -0.0363970  
H     1.2728270   -0.9591390   -0.3083270  
H     3.8993340    3.9079940    0.2257170  
H     0.6880580    5.5837520    0.2277270  
C    -1.3960040   -1.3829360    2.2887650  
C    -2.6273810   -1.4421880    1.7185970  
C    -2.6829630   -0.4113820    0.7023250  
C    -1.3613030    0.2539750    0.7245750  
N    -0.6405990   -0.3571080    1.7337540  
C    -0.9670680    1.2785340   -0.0956390  
C    -1.9419170    1.6989200   -1.1219560  
O    -1.6656260    2.4749320   -2.0192560  
C    -3.3874830    1.0940120   -1.0839460  
O    -4.2453920    1.6063230   -1.7796920  
C    -3.6742140   -0.0350090   -0.1667650  
H    -3.4210340   -2.1269300    1.9751570  
H    -0.9749640   -1.9925330    3.0775100  
H     0.3561620   -0.2401890    1.8525120  
C    -6.9710060   -0.5341070    2.8045160  
C    -5.7971940   -0.2271280    2.1942340  
C    -5.8775070   -0.7129010    0.8315290  
C    -7.2196580   -1.3303470    0.6965060  
N    -7.8213740   -1.2078860    1.9346940  
C    -7.7201880   -1.8701590   -0.4450010  
C    -6.8829130   -1.8564590   -1.6354380  
O    -7.2462870   -2.2912390   -2.7175190  
C    -5.4321040   -1.2669530   -1.5110310  
O    -4.6731360   -1.3839440   -2.4556010  
C    -5.0076750   -0.6507490   -0.2245950  
H    -4.9614480    0.2905540    2.6393220  
H    -8.7174710   -2.2927660   -0.5192050  
H    -7.2915160   -0.3280800    3.8172520  
H    -8.7738020   -1.4685290    2.1365320  
