60


C    -4.2342720   -0.9034620    2.1219550  
C    -5.0313820   -1.9919790    2.3192230  
C    -5.9837160   -2.0266540    1.2418770  
C    -5.7213470   -0.9083740    0.4128530  
N    -4.6389880   -0.2168670    0.9712040  
C    -6.4346600   -0.6694080   -0.7666470  
C    -7.4487090   -1.5559740   -1.0957910  
O    -8.1779510   -1.3573300   -2.2322350  
C    -7.7367700   -2.6696950   -0.2655620  
O    -8.7723470   -3.4591730   -0.7256730  
C    -7.0171550   -2.9140590    0.8901740  
H    -4.9629340   -2.6850160    3.1468740  
H    -6.2434540    0.1773980   -1.4135310  
H    -8.8380180   -2.0699880   -2.2801210  
H    -8.9338880   -4.1794370   -0.0985930  
H    -7.2415380   -3.7820290    1.5070630  
H    -3.4243700   -0.5072470    2.7164470  
C    -0.4111080    0.8170520    0.2212120  
C    -1.5442180    0.0934660    0.5413660  
C    -2.6232320    1.0071980    0.3488100  
C    -1.9700280    2.2794770   -0.0895060  
N    -0.6709280    2.1518110   -0.1619970  
C    -2.7164100    3.4639950   -0.4071910  
C    -4.0616990    3.3900320   -0.2895940  
O    -4.8984860    4.3935970   -0.5610670  
C    -4.7739420    2.1298840    0.1827800  
O    -5.9945050    2.2169090    0.3103690  
C    -3.9878680    0.9217660    0.4718650  
H    -1.6274100   -0.9379850    0.8450420  
H    -2.2079690    4.3637210   -0.7338120  
H    -5.7959350    4.0472550   -0.3455420  
C     1.2512160   -0.9427550    0.5593700  
C     2.5864510   -1.1292580    0.4950860  
C     3.1924180    0.1213390    0.0961790  
C     2.0806190    1.0874950   -0.0683500  
N     0.8928170    0.3768140    0.2273760  
C     2.2496110    2.3863560   -0.4107250  
C     3.6133260    2.8643780   -0.6415920  
O     3.8612190    4.0247020   -0.9258290  
C     4.8002610    1.8511470   -0.5242930  
O     5.9200340    2.2256630   -0.8202860  
C     4.5023570    0.4617100   -0.0893580  
H     3.1076400   -2.0546730    0.6820590  
H     1.4252310    3.0778420   -0.5101240  
H     0.4767790   -1.6504710    0.8131280  
C     5.3856270   -3.3992090   -2.0442160  
C     6.6150560   -3.6887320   -1.5618560  
C     6.9301490   -2.5977670   -0.6453070  
C     5.7239180   -1.7061920   -0.7095880  
N     4.8290660   -2.1840350   -1.5241770  
C     5.6341030   -0.4740450    0.0592760  
C     6.6982900   -0.1916640    0.8654220  
O     6.7497570    0.8709540    1.6747690  
C     7.9159710   -1.0749520    0.9508500  
O     8.8152730   -0.7267690    1.7126180  
C     7.9836340   -2.3028560    0.1391980  
H     7.2459720   -4.5352000   -1.7944910  
H     7.6331030    0.8356910    2.1050080  
H     8.8819390   -2.9069210    0.2223510  
H     4.7981930   -3.9649970   -2.7574860  
