62


C    -2.8082480    3.1572140    2.6680440  
C    -1.7764510    2.5246090    2.0255490  
C    -1.3677500    3.3649110    0.9383390  
C    -2.1968080    4.5188110    0.9849610  
N    -3.0690090    4.3597440    2.0406960  
C    -2.0718250    5.5934330    0.1004500  
C    -1.0599920    5.5178150   -0.8437900  
O    -0.8739260    6.5343120   -1.7308110  
C    -0.1957850    4.3961920   -0.9054400  
O     0.7338280    4.4688960   -1.9227120  
C    -0.3414310    3.2903340   -0.0504300  
H    -1.3809770    1.5541170    2.2802670  
H    -3.7684980    5.0283310    2.3214980  
H    -2.7140930    6.4676000    0.1383350  
H    -0.1097920    6.2651680   -2.2756120  
H     1.6135700    4.2577780   -1.5426890  
H    -3.3932550    2.8430360    3.5206970  
C    -1.2540230   -1.0218990   -0.2798510  
C     0.0100560   -1.5529260   -0.4208930  
C     0.9102480   -0.4331780   -0.4175390  
C     0.0288850    0.7485830   -0.2456750  
N    -1.2225040    0.4023590   -0.1743100  
C     0.5474640    2.1227270   -0.1806240  
C     1.9026420    2.2188640   -0.3121780  
O     2.5664170    3.4146580   -0.2997430  
C     2.8240010    1.0753930   -0.4774180  
O     4.0265440    1.3256090   -0.6095350  
C     2.2719640   -0.3107040   -0.5112820  
H     0.2798930   -2.5963420   -0.4950930  
H     3.5143670    3.1713130   -0.4173980  
C    -2.5021260   -1.7326280   -0.2211860  
C    -2.7023540   -3.0909810   -0.3242620  
C    -4.1207610   -3.2899000   -0.2015860  
C    -4.6692020   -1.9037220   -0.0219690  
N    -3.7322660   -1.0050200   -0.0335790  
C    -6.0831090   -1.6709780    0.1396620  
C    -6.9028280   -2.7473390    0.1241140  
O    -8.2354640   -2.6861880    0.2624210  
C    -6.3785280   -4.1551430   -0.0551140  
O    -7.2095510   -5.0655690   -0.0543210  
C    -4.9395970   -4.3715480   -0.2178400  
H    -1.9574360   -3.8609490   -0.4702800  
H    -6.4551570   -0.6604870    0.2663100  
H    -8.5399690   -3.6204130    0.2074540  
H    -4.6004840   -5.3952280   -0.3437210  
C     2.8056680   -2.4113470   -1.6694000  
C     3.7993720   -3.3387690   -1.6817570  
C     4.7988580   -2.9165780   -0.7342660  
C     4.3682220   -1.6872120   -0.1818730  
N     3.1257060   -1.3757140   -0.7732300  
C     5.0786540   -1.0437840    0.8355020  
C     6.2616690   -1.6283090    1.2659190  
O     6.9911040   -1.0233640    2.2456270  
C     6.7191530   -2.8445760    0.7002960  
O     7.9079900   -3.2984800    1.2292900  
C     5.9990170   -3.4935720   -0.2882900  
H     3.8350350   -4.2174070   -2.3115430  
H     4.7673940   -0.1066330    1.2760820  
H     7.7794740   -1.5708110    2.4030350  
H     8.1720710   -4.1182410    0.7857700  
H     6.3490010   -4.4388520   -0.6975890  
H     1.9094800   -2.3333050   -2.2653200  
