62


C     5.0586530   -0.7851860   -1.9893980  
C     4.9737110   -0.0946280   -0.7877820  
C     6.2938890   -0.1862370   -0.1810420  
C     7.1074460   -0.9321470   -1.0709710  
N     6.3252820   -1.2669580   -2.1634340  
C     8.4424010   -1.2563500   -0.8099740  
C     8.9801520   -0.8249600    0.3926740  
O    10.2787840   -1.1085210    0.7032810  
C     8.1829310   -0.0912310    1.3062630  
O     8.8479300    0.2658810    2.4660240  
C     6.8627560    0.2242110    1.0414290  
H     6.6345460   -1.8060970   -2.9573150  
H     9.0549090   -1.8264310   -1.5011740  
H    10.4567250   -0.7093030    1.5724160  
H     8.2685000    0.8231000    3.0063370  
H     6.2857800    0.8026440    1.7539070  
H     4.2859670   -0.9661860   -2.7183490  
C     0.8017980   -1.1909960   -1.4805180  
C     0.1036460   -0.2346150   -0.8026470  
C     1.1609340    0.6226910   -0.2235460  
C     2.4397340    0.0074600   -0.6739440  
N     2.2104520   -1.0501770   -1.4039130  
C     3.7548510    0.5481680   -0.3061770  
C     3.7134340    1.6647090    0.4899850  
O     4.8151820    2.3431030    0.8959750  
C     2.4557660    2.2767930    0.9712310  
O     2.5304660    3.2891210    1.6793700  
C     1.1528720    1.6970290    0.5814650  
H     4.4534560    3.0947070    1.4180140  
H     0.2564320    2.1927680    0.9346470  
H     0.3988580   -1.9955770   -2.0853460  
C    -2.8541730   -3.3963970   -0.0992500  
C    -3.9813740   -2.6131870   -0.0780030  
C    -3.5584450   -1.2478020   -0.2575490  
C    -2.1484060   -1.2792000   -0.4057950  
N    -1.7517510   -2.5960880   -0.3001490  
C    -1.3471000   -0.1351220   -0.6285000  
C    -2.0578990    1.0653670   -0.7205600  
O    -1.4057310    2.2325870   -0.9719640  
C    -3.4704030    1.1278660   -0.5822460  
O    -3.9672810    2.4028800   -0.6933290  
C    -4.2511730   -0.0003110   -0.3148440  
H    -4.9956470   -2.9762810    0.0042320  
H    -0.7893760   -2.8982340   -0.2971280  
H    -2.1100430    2.9073980   -1.0525770  
H    -4.7987200    2.3439460   -1.2257490  
H    -2.7482410   -4.4681040   -0.0078220  
C    -6.6708210   -1.7147230    2.9210340  
C    -7.9138100   -1.3363390    2.5297220  
C    -7.7623450   -0.5691900    1.3111870  
C    -6.3065450   -0.5406350    1.0171730  
N    -5.7052220   -1.2319730    2.0421030  
C    -5.7091570    0.0781500   -0.0602030  
C    -6.6213170    0.8521290   -0.9022950  
O    -6.2482250    1.6231990   -1.7887870  
C    -8.1766990    0.7494190   -0.6796470  
O    -8.9104540    1.2866840   -1.4928600  
C    -8.6641610    0.0407300    0.4975180  
H    -8.8434180   -1.5496220    3.0365940  
H    -9.7354020    0.0087260    0.6680860  
H    -6.3667620   -2.2933300    3.7832420  
H    -4.7311320   -1.5000170    2.0353060  
