62


C     5.3304600    0.0900700   -3.3415680  
C     6.1743950   -0.9683730   -3.1217990  
C     5.9406480   -1.4186880   -1.7798370  
C     4.9240310   -0.5886770   -1.2334910  
N     4.5815090    0.3248750   -2.2075050  
C     4.4379650   -0.7088690    0.0900780  
C     5.0530040   -1.7033830    0.8488360  
O     4.6845760   -1.8842390    2.1721040  
C     6.0639250   -2.5442430    0.3269650  
O     6.5356280   -3.4752070    1.2385190  
C     6.5105040   -2.4233300   -0.9739760  
H     6.8865160   -1.3733870   -3.8275460  
H     3.8593710    1.0222220   -2.1059160  
H     5.2311470   -2.6129550    2.5186110  
H     7.2621600   -3.9767410    0.8406710  
H     7.2912960   -3.0778280   -1.3559180  
H     5.1999320    0.7070490   -4.2195360  
C     0.4046500    0.4502430   -1.5040650  
C     1.6138780   -0.1513370   -1.2921360  
C     2.1853590    0.4354720   -0.1069480  
C     1.2549330    1.3955440    0.3642900  
N     0.1670030    1.3977690   -0.5070850  
C     1.4367340    2.1142000    1.5499550  
C     2.5846620    1.8401430    2.2741750  
O     2.8228850    2.4821070    3.4502370  
C     3.5425420    0.8923020    1.8194830  
O     4.6386860    0.7680720    2.6464530  
C     3.3868270    0.1973140    0.6193030  
H     2.0479170   -0.9284680   -1.9047770  
H     0.7279740    2.8502040    1.9099350  
H     3.6681270    2.1194580    3.7776460  
H     4.8376430   -0.1892660    2.7341670  
H    -0.3143040    0.3202970   -2.3007630  
C    -3.9771580    0.1777660   -0.1540550  
C    -4.5550700    1.4269650   -0.1840520  
C    -3.5029390    2.4005660   -0.2875690  
C    -2.2382810    1.6334590   -0.3192160  
N    -2.5826640    0.3084240   -0.2484500  
C    -0.9950040    2.1929940   -0.4100430  
C    -0.9076560    3.6592850   -0.5002250  
O     0.1454350    4.2568180   -0.6404320  
C    -2.2474910    4.4866650   -0.4229880  
O    -2.1759410    5.7060360   -0.4371250  
C    -3.5133710    3.7636600   -0.3353850  
H    -5.6142820    1.6184220   -0.1343730  
H    -4.4294990    4.3448450   -0.3037810  
H    -1.9326250   -0.4636300   -0.2106510  
C    -8.2313020   -0.9447500    0.1401040  
C    -8.1580380   -2.2907860    0.2220360  
C    -6.7341550   -2.5999580    0.1646340  
C    -6.0690820   -1.2610070    0.0437820  
N    -6.9503080   -0.3083530    0.0300730  
C    -4.6098560   -1.1248900   -0.0434610  
C    -3.9126510   -2.3062120   -0.0089120  
O    -2.5712300   -2.3912350   -0.0773610  
C    -4.5635750   -3.6505410    0.1111970  
O    -3.8212670   -4.6332070    0.1320600  
C    -6.0275740   -3.7449670    0.1977750  
H    -8.9655660   -3.0037690    0.3111430  
H    -2.3677400   -3.3549590   -0.0228740  
H    -6.4612670   -4.7364590    0.2838950  
H    -9.1136440   -0.3170240    0.1478720  
