66


C    -2.5890470    1.6355090    0.2348160  
C    -1.2359280    1.4430660    0.0509000  
C    -0.5776160    2.6888550    0.3015360  
C    -1.5885310    3.6308960    0.6272880  
N    -2.8079270    2.9788760    0.5462300  
C    -1.3168470    4.9675480    0.9301910  
C     0.0124870    5.3653850    0.8975580  
O     0.3438170    6.6521000    1.2071960  
C     1.0385450    4.4520700    0.5542590  
O     2.3063650    5.0103770    0.5665550  
C     0.7795910    3.1119420    0.2467600  
H    -0.7819650    0.5187380   -0.2725470  
H    -3.6458930    3.3067610    1.0047490  
H    -2.0883810    5.6856460    1.1879360  
H     1.3154810    6.7060700    1.1764650  
H     2.9640910    4.2951850    0.6333510  
C    -3.6866530    0.7047490    0.1129990  
C    -3.7164340   -0.6665100    0.2631030  
C    -5.0601580   -1.0997020    0.0229530  
C    -5.8260270    0.0598100   -0.2707230  
N    -4.9805330    1.1524250   -0.1696900  
C    -7.1893190    0.0077300   -0.5778870  
C    -7.7986000   -1.2388470   -0.5797150  
O    -9.1270910   -1.3462390   -0.8765400  
C    -7.0542370   -2.4075600   -0.2702870  
O    -7.8028010   -3.5701750   -0.3033960  
C    -5.7059260   -2.3528780    0.0315670  
H    -2.8750250   -1.2806400    0.5549610  
H    -5.1652060    2.0415140   -0.6117150  
H    -7.7769450    0.8908610   -0.8074430  
H    -9.3579270   -2.2894380   -0.8201040  
H    -7.2346210   -4.3247960   -0.0898460  
H    -5.1566760   -3.2632670    0.2640220  
C     1.8575260    2.1798740   -0.0796390  
C     1.9991970    0.8414040    0.2113210  
C     3.2469500    0.3873980   -0.3409180  
C     3.8531140    1.5118120   -0.9531400  
N     3.0222440    2.6079870   -0.7446180  
C     5.0961420    1.4578180   -1.5876530  
C     5.7509920    0.2353220   -1.5706120  
O     6.9751150    0.1059160   -2.1493430  
C     5.1724220   -0.9076170   -0.9539860  
O     5.9498730   -2.0415400   -1.0492430  
C     3.9107270   -0.8720220   -0.3552430  
H     1.3183930    0.2657460    0.8202450  
H     3.0136450    3.4041430   -1.3694220  
H     5.5628710    2.3191880   -2.0541920  
H     7.2428260   -0.8190840   -1.9862180  
H     5.9368900   -2.4861400   -0.1735500  
C    -0.1161290   -2.5575000   -1.0776840  
C    -0.0236420   -3.6464480   -0.2487490  
C     1.2809880   -3.6111530    0.3474400  
C     1.9385570   -2.4560780   -0.1561950  
N     1.0654990   -1.8449910   -1.0318640  
C     3.2610910   -2.0905620    0.1925660  
C     3.9009450   -2.9763570    1.0581480  
O     5.2098860   -2.7362900    1.4395740  
C     3.2690810   -4.1346450    1.5691240  
O     4.0757400   -4.8767230    2.4150430  
C     1.9698260   -4.4604080    1.2348440  
H    -0.7871730   -4.3962260   -0.0936680  
H     1.2485460   -0.9710800   -1.5013680  
H     5.4613440   -3.4497450    2.0541490  
H     3.5736770   -5.6259290    2.7676950  
H     1.5013320   -5.3566990    1.6358510  
H    -0.9300340   -2.2277210   -1.7081870  
