62


C     3.2068600    0.9834140   -0.2300930  
C     1.8283390    0.9423570   -0.1275420  
C     1.3389700    2.2899760   -0.1868380  
C     2.4791840    3.1263100   -0.3355210  
N     3.6021440    2.3164710   -0.3075110  
C     2.3961360    4.5080830   -0.5048740  
C     1.1223480    5.0582860   -0.5446330  
O     0.9630310    6.3928790   -0.7324690  
C    -0.0389400    4.2559420   -0.3827960  
O    -1.2094440    4.9736670   -0.4094060  
C     0.0348110    2.8756120   -0.1583470  
H     1.2490650    0.0360230   -0.0268720  
H     4.4991220    2.5991990   -0.6762460  
H     3.2666470    5.1433210   -0.6314350  
H    -0.0025270    6.5412920   -0.7596350  
H    -1.8507050    4.4616500   -0.9565250  
C    -0.6773780   -0.1367730    2.9369000  
C    -1.9171600   -0.5731720    2.5845600  
C    -2.3297880    0.2073850    1.4419010  
C    -1.2200280    1.1389590    1.1470810  
N    -0.2646600    0.8952950    2.1093480  
C    -1.1635210    2.0509230    0.1140990  
C    -2.3888310    2.1537080   -0.6752290  
O    -2.5696220    2.9927630   -1.5574910  
C    -3.5926570    1.1726920   -0.4076790  
O    -4.5950410    1.2947580   -1.0878020  
C    -3.4732830    0.1970250    0.6863670  
H    -2.4807700   -1.3596210    3.0630500  
H    -0.0312980   -0.4780350    3.7347360  
H     0.6678030    1.2825440    2.0732540  
C    -5.2168920   -0.6665550    2.2388720  
C    -6.2401960   -1.5542890    2.2476490  
C    -6.2921860   -2.1681340    0.9381050  
C    -5.1986780   -1.5511420    0.1482370  
N    -4.5696720   -0.6318600    0.9950140  
C    -4.8922730   -1.8995410   -1.1244730  
C    -5.7005590   -2.9290890   -1.7780390  
O    -5.4866000   -3.3130240   -2.9172620  
C    -6.8839940   -3.5723010   -0.9688520  
O    -7.5731490   -4.4271170   -1.5030310  
C    -7.0992660   -3.1244430    0.4087850  
H    -6.9055050   -1.7557650    3.0748710  
H    -4.0894150   -1.4470820   -1.6944740  
H    -7.9029740   -3.5896220    0.9715050  
H    -4.8731610   -0.0029970    3.0209840  
C     4.1757240   -0.0863550   -0.2391140  
C     4.0501840   -1.4020630   -0.6366150  
C     5.3176970   -2.0369030   -0.4446090  
C     6.2002880   -1.0550960    0.0789180  
N     5.4978270    0.1357970    0.1576860  
C     7.5301530   -1.3339410    0.4104150  
C     7.9839460   -2.6274990    0.1982470  
O     9.2712220   -2.9540660    0.5057460  
C     7.1210160   -3.6193260   -0.3429320  
O     7.7243000   -4.8515700   -0.5012010  
C     5.8067940   -3.3411000   -0.6664610  
H     3.1618020   -1.8410600   -1.0697430  
H     5.7719320    0.9056310    0.7510110  
H     8.2077570   -0.5884360    0.8138590  
H     9.3948980   -3.8909540    0.2743350  
H     7.0955050   -5.4731660   -0.8967660  
H     5.1638600   -4.1168660   -1.0772510  
