60


C     3.2436270   -0.5033030   -1.8515450  
C     3.6150350   -1.8017990   -2.0459190  
C     4.6683980   -2.0902840   -1.1110310  
C     4.9056560   -0.9065770   -0.3686010  
N     4.0213240    0.0685190   -0.8417910  
C     5.8432660   -0.8474700    0.6677280  
C     6.5688810   -1.9976470    0.9434800  
O     7.5008520   -1.9865870    1.9430370  
C     6.3547650   -3.1854740    0.2009470  
O     7.1536500   -4.2450560    0.5907120  
C     5.4166960   -3.2437890   -0.8147190  
H     3.1893530   -2.4794770   -2.7734470  
H     6.0307700    0.0492020    1.2441340  
H     7.8958150   -2.8746700    1.9755960  
H     6.9533710   -5.0171960    0.0415500  
H     5.2563540   -4.1692100   -1.3647440  
H     2.4941690    0.0933780   -2.3475300  
C     0.4243490    2.1516910    0.3896520  
C     0.9536100    3.3670040    0.7620400  
C     2.3650780    3.2740760    0.5328020  
C     2.5607530    1.8874260   -0.0089010  
N     1.4382650    1.2428820   -0.0900780  
C     3.8778090    1.3862460   -0.3726690  
C     4.9226400    2.2493160   -0.2173460  
O     6.1901020    1.9531450   -0.5316550  
C     4.7483140    3.6378860    0.3404350  
O     5.7712250    4.3230770    0.4350090  
C     3.4181580    4.1126190    0.7081950  
H     0.4262190    4.2234410    1.1584170  
H     6.6991250    2.7651770   -0.2991580  
H     3.3363360    5.1208950    1.1009020  
C    -2.0613350    2.3634290    0.8199580  
C    -0.9281720    1.6930830    0.4136430  
C    -1.4314220    0.3608730    0.0167620  
C    -2.8993930    0.4478800    0.2422560  
N    -3.2414380    1.6206540    0.7255400  
C    -3.7929770   -0.6566830   -0.0181360  
C    -3.2104900   -1.8142460   -0.4436220  
O    -3.8922370   -2.9291530   -0.7268730  
C    -1.7264990   -1.9345370   -0.6678490  
O    -1.3048980   -3.0160450   -1.0716460  
C    -0.8483930   -0.7741430   -0.4112560  
H    -3.2141630   -3.5823150   -1.0129940  
H     0.2186940   -0.8825810   -0.5694230  
H    -2.1171010    3.3790830    1.1949990  
C    -6.7244870    1.9081190   -2.0366670  
C    -7.8731330    1.6097360   -1.3884990  
C    -7.5009370    0.5956470   -0.4063350  
C    -6.0259960    0.4192080   -0.6082170  
N    -5.5834070    1.1750090   -1.5674260  
C    -5.2513420   -0.5224990    0.1825240  
C    -5.9404640   -1.2704600    1.0855390  
O    -5.3733770   -2.1841590    1.8854740  
C    -7.4243400   -1.1185940    1.2972690  
O    -7.9489430   -1.8337440    2.1489530  
C    -8.1783590   -0.1368140    0.4981210  
H    -8.8625760    2.0124600   -1.5543110  
H    -6.1100680   -2.5485430    2.4254380  
H    -9.2466800   -0.0647880    0.6780580  
H    -6.5795870    2.6143410   -2.8455180  
