60


C     3.9132290    0.9572170    2.9259450  
C     5.2020530    0.8314640    2.4817670  
C     5.1669280    0.0080680    1.3041720  
C     3.8102420   -0.3318790    1.0741050  
N     3.0613520    0.2833440    2.0618200  
C     3.3871500   -1.1749630    0.0205080  
C     4.3963810   -1.6624830   -0.8159030  
O     4.0679620   -2.4302890   -1.8877290  
C     5.7575730   -1.3228570   -0.6018960  
O     6.6163590   -1.8759320   -1.5324560  
C     6.1525200   -0.4990890    0.4346570  
H     6.0787040    1.2674620    2.9411210  
H     2.0946440    0.0677750    2.2527810  
H     4.8986050   -2.7432560   -2.2868700  
H     7.5328070   -1.7389790   -1.2505950  
H     7.2034080   -0.2543900    0.5748210  
H     3.5180190    1.4755440    3.7885350  
C    -0.2282850    1.3330520   -0.5525690  
C     1.0514800    0.8445880   -0.3847210  
C     0.9823480   -0.5883680   -0.3274920  
C    -0.4468150   -0.9283710   -0.4863730  
N    -1.1217420    0.2592000   -0.6028180  
C    -0.9340480   -2.2087890   -0.5090420  
C     0.0400040   -3.3020320   -0.4425190  
O    -0.2724060   -4.4758030   -0.5720500  
C     1.5540540   -2.9509190   -0.1887450  
O     2.3113410   -3.8762390    0.0383910  
C     1.9724660   -1.5326620   -0.1915150  
H     1.9716140    1.4055270   -0.4205360  
H    -2.1001310    0.3960030   -0.8298520  
C     1.6143290    5.1330380    0.6774660  
C     0.6876590    5.9963200    0.1977680  
C    -0.3641070    5.2033880   -0.4064670  
C     0.0429600    3.7877180   -0.2511710  
N     1.2526350    3.8122120    0.3901940  
C    -0.6959390    2.6977100   -0.6730370  
C    -2.0301650    2.9982580   -1.2229610  
O    -2.8614520    2.1384110   -1.4863240  
C    -2.4261230    4.4940040   -1.4899780  
O    -3.4706150    4.7213150   -2.0748150  
C    -1.5298980    5.5473750   -1.0147850  
H     0.7159360    7.0742800    0.2582560  
H    -1.8365060    6.5779430   -1.1632250  
H     2.5379120    5.3284790    1.2051880  
H     1.7025500    2.9946460    0.7788840  
C    -2.8499520   -3.4529930   -1.5146990  
C    -4.1896430   -3.5725730   -1.3555730  
C    -4.5821560   -2.6933720   -0.2769580  
C    -3.3352760   -2.0386700    0.1934210  
N    -2.3071450   -2.5137600   -0.6195630  
C    -3.2791800   -1.1770940    1.2424620  
C    -4.5190740   -0.8409310    1.9380570  
O    -4.5553790   -0.0784740    2.8925170  
C    -5.8546900   -1.4939190    1.4307050  
O    -6.9022530   -1.2103890    1.9905520  
C    -5.7803180   -2.4313600    0.3078860  
H    -4.8452160   -4.2141860   -1.9262360  
H    -2.3592570   -0.7357970    1.6068250  
H    -6.7031890   -2.9038590   -0.0146360  
H    -2.1882940   -3.9582170   -2.2016610  
