60


C    -2.3787080   -4.2859540    0.6035690  
C    -2.3245880   -2.9308420    0.3663300  
C    -3.6723370   -2.4541500    0.2832160  
C    -4.5065980   -3.5828050    0.4692330  
N    -3.6935190   -4.6782870    0.6721900  
C    -5.9061420   -3.5295340    0.4129020  
C    -6.4907390   -2.3054980    0.1452300  
O    -7.8448130   -2.1960220    0.0650920  
C    -5.7014790   -1.1400680   -0.0508590  
O    -6.4344980   -0.0355120   -0.3010540  
C    -4.2790330   -1.1722470    0.0395570  
H    -1.4105720   -2.3749260    0.2323070  
H    -4.0162670   -5.6210560    0.8257370  
H    -6.5326310   -4.4041510    0.5578610  
H    -8.0342470   -1.2592190   -0.1278530  
H    -5.7903080    0.7244760   -0.4625300  
H    -1.5774080   -5.0005410    0.7256520  
C    -3.5210730    0.0378640   -0.0878040  
C    -2.1762430    0.3007230    0.1255250  
C    -1.9740080    1.6762050   -0.1611580  
C    -3.3320970    2.1876370   -0.5454520  
N    -4.2171860    1.2311450   -0.4919760  
C    -3.5704730    3.5546940   -0.8931520  
C    -2.5000330    4.3859270   -0.8613490  
O    -2.5486970    5.6806030   -1.1654360  
C    -1.0986650    3.9102610   -0.5017320  
O    -0.2092110    4.7564180   -0.6198440  
C    -0.8810360    2.5175340   -0.1115450  
H    -1.4286930   -0.3805710    0.4924450  
H    -4.5630970    3.8962160   -1.1639850  
H    -1.6150650    5.9926670   -1.0753270  
C     1.8500860   -0.7417470   -1.4240430  
C     0.8168180    0.1231430   -1.2944800  
C     1.1497840    1.0500830   -0.2346220  
C     2.4927280    0.6532180    0.2483850  
N     2.8882630   -0.4350240   -0.5257460  
C     3.1623370    1.2690820    1.2627640  
C     2.5409370    2.4215370    1.9004510  
O     3.0867320    3.0720900    2.7789030  
C     1.1017690    2.8384630    1.4383560  
O     0.5207960    3.7048400    2.0649780  
C     0.4686060    2.1104850    0.3031550  
H    -0.0955250    0.1154380   -1.8704960  
H     4.1200820    0.9329220    1.6431070  
H     1.9702540   -1.5787360   -2.0948220  
C     7.0573660    0.8966000   -0.4646040  
C     7.6543190   -0.3128480   -0.3225710  
C     6.6076740   -1.3138620   -0.3037190  
C     5.3327860   -0.5674990   -0.4409840  
N     5.6717750    0.7605830   -0.5657190  
C     4.0968950   -1.1562530   -0.4360130  
C     4.0376710   -2.6244130   -0.3534390  
O     2.9866320   -3.2437860   -0.3940920  
C     5.3893650   -3.4218690   -0.2312050  
O     5.3324550   -4.6390110   -0.1689920  
C     6.6406890   -2.6706330   -0.2106500  
H     8.7151100   -0.5022210   -0.2493200  
H     7.5660620   -3.2302770   -0.1202770  
H     7.5005530    1.8818280   -0.5204680  
H     5.0118180    1.5228760   -0.5054560  
