62


C     3.0028000   -1.4049940    0.7539060  
C     3.8555620   -0.4022720    0.3411640  
C     3.0039860    0.6842410   -0.0926600  
C     1.6622360    0.2570330    0.0644190  
N     1.6883390   -1.0338910    0.5545840  
C     0.5468450    1.0497030   -0.3006780  
C     0.8490710    2.3476480   -0.7387080  
O    -0.1496390    3.2363840   -1.0000080  
C     2.1896700    2.7811750   -0.8960600  
O     2.2983160    4.0819600   -1.3604930  
C     3.2640120    1.9668360   -0.6074510  
H     0.9069990   -1.3793640    1.1043470  
H     0.2772060    4.0526210   -1.3149200  
H     3.2333010    4.3327860   -1.3864770  
H     4.2829760    2.3225720   -0.7258980  
H     3.2394000   -2.3563390    1.2110550  
C    -1.8229460   -1.1487540    2.7360030  
C    -3.0721920   -1.0963630    2.2122040  
C    -2.9182820   -0.4260890    0.9278300  
C    -1.4573080   -0.1074060    0.8487200  
N    -0.8322230   -0.5543420    1.9098000  
C    -0.8573130    0.5797180   -0.2835920  
C    -1.6984670    0.7641630   -1.3497280  
O    -1.3066020    1.2745280   -2.5217890  
C    -3.1703600    0.4754750   -1.3021090  
O    -3.8455170    0.8398910   -2.2598970  
C    -3.7743450   -0.1752510   -0.0970080  
H    -3.9815690   -1.5158710    2.6184920  
H    -2.1262690    1.3596410   -3.0578800  
H    -1.5128470   -1.5928700    3.6747770  
C    -6.9830720    0.9423220    2.7195030  
C    -8.0469880    0.4062600    2.0703450  
C    -7.5414590   -0.2350330    0.8740090  
C    -6.0720670   -0.0253240    0.8824000  
N    -5.8018970    0.6962880    2.0232570  
C    -5.2149760   -0.4467200   -0.1009520  
C    -5.8040400   -1.2448740   -1.1987480  
O    -5.1244190   -1.8109390   -2.0361370  
C    -7.3623660   -1.4261050   -1.2473200  
O    -7.8557850   -2.0052040   -2.2012310  
C    -8.1588360   -0.8997610   -0.1386990  
H    -9.0805250    0.4515470    2.3806780  
H    -9.2339980   -1.0464760   -0.1745850  
H    -6.9506020    1.5003160    3.6458260  
H    -4.8758370    0.9570240    2.3274010  
C     6.4416430   -3.5757100   -1.2451260  
C     7.6554970   -3.0305870   -0.9133590  
C     7.3918470   -1.7754680   -0.2675250  
C     5.9823950   -1.6165680   -0.2300650  
N     5.4308090   -2.7340430   -0.8237030  
C     5.3267380   -0.4888480    0.3132790  
C     6.1682700    0.5018470    0.8237910  
O     5.6378040    1.6345730    1.3854800  
C     7.5798310    0.3624780    0.7922290  
O     8.2557820    1.4416440    1.3435400  
C     8.2013470   -0.7531440    0.2656340  
H     8.6244750   -3.4707310   -1.1061050  
H     4.4453590   -2.8422900   -1.0095800  
H     6.3874640    2.1443500    1.7392970  
H     9.1944520    1.2188550    1.4264930  
H     9.2870070   -0.8285180    0.2540830  
H     6.2078840   -4.5057770   -1.7441850  
