62


C     2.7318320    4.8273650    0.9887860  
C     1.8987480    5.8740930    0.6998610  
C     0.6559310    5.3093320    0.2573480  
C     0.8030700    3.8978370    0.2859400  
N     2.0817490    3.6344290    0.7263700  
C    -0.2427500    3.0045810   -0.0647800  
C    -1.4637660    3.6056060   -0.4100610  
O    -2.5392320    2.8289610   -0.7424550  
C    -1.6156530    5.0117200   -0.4502360  
O    -2.8792700    5.4155100   -0.8350090  
C    -0.5767460    5.8652620   -0.1327560  
H     2.1363910    6.9246410    0.7926120  
H     2.4270710    2.7185110    0.9728020  
H    -3.2837360    3.4252760   -0.9395230  
H    -2.9330680    6.3824520   -0.8261370  
H    -0.7169510    6.9434160   -0.1710960  
H     3.7490870    4.8240930    1.3537270  
C    -0.0532600    1.5605150   -0.0607390  
C     1.1171260    0.8377140   -0.1726790  
C     0.7975740   -0.5576770   -0.0829800  
C    -0.6711950   -0.6278320    0.0677610  
N    -1.1183290    0.6781940    0.0941360  
C    -1.4133550   -1.7726390    0.1504990  
C    -0.6614640   -3.0412470    0.0526550  
O    -1.2027480   -4.1298450   -0.0171520  
C     0.9084470   -2.9923790    0.0119690  
O     1.5193230   -4.0396700    0.1447010  
C     1.5828680   -1.6863130   -0.1244340  
H     2.0948580    1.2367240   -0.3902590  
H    -2.0866540    0.9658640    0.0922570  
C     4.8223840    0.2577270    2.2495890  
C     3.6211300   -0.1713240    1.7816420  
C     3.8767730   -0.9668400    0.5939040  
C     5.3463260   -0.9698650    0.4145210  
N     5.8575690   -0.1819590    1.4310170  
C     6.0166490   -1.6526890   -0.5507500  
C     5.2404330   -2.4391340   -1.4961500  
O     5.7424970   -3.1243880   -2.3747030  
C     3.6734740   -2.3832460   -1.3901490  
O     3.0140840   -2.8766520   -2.2855430  
C     3.0450660   -1.6581560   -0.2475060  
H     2.6561690    0.0108460    2.2296870  
H     7.0989710   -1.6599560   -0.6358610  
H     5.0459560    0.8528030    3.1254810  
H     6.8397170   -0.0845210    1.6357700  
C    -4.5455000   -0.0990150   -2.5066740  
C    -5.6359300   -0.4872020   -1.7736410  
C    -5.1426700   -1.1757460   -0.6135030  
C    -3.7260380   -1.1669380   -0.6966790  
N    -3.3899520   -0.4921350   -1.8545650  
C    -2.8864990   -1.7772680    0.2614410  
C    -3.5311710   -2.4075460    1.3284820  
O    -2.7926280   -2.9773160    2.3190710  
C    -4.9464090   -2.4242140    1.4254050  
O    -5.4175850   -3.0767210    2.5514460  
C    -5.7531410   -1.8193090    0.4804790  
H    -6.6713240   -0.3090850   -2.0303090  
H    -2.4574810   -0.4263000   -2.2324890  
H    -3.4106710   -3.4516370    2.9020780  
H    -6.3710150   -3.2215370    2.4626100  
H    -6.8362210   -1.8444780    0.5834440  
H    -4.4875910    0.4330950   -3.4457480  
