60


C    -0.1130080   -2.2926730    2.3293860  
C    -0.1866470   -3.4752260    1.6393730  
C    -1.2529670   -3.3408470    0.6901490  
C    -1.7938270   -2.0391640    0.8480010  
N    -1.0899080   -1.4314370    1.8666220  
C    -2.8890560   -1.5561210    0.0925380  
C    -3.4228780   -2.4495870   -0.8477380  
O    -4.4197610   -2.0394290   -1.6731630  
C    -2.8894030   -3.7533950   -1.0128640  
O    -3.5308410   -4.4923790   -1.9904410  
C    -1.8227860   -4.2069730   -0.2637290  
H     0.4405570   -4.3433620    1.7864690  
H    -1.1988820   -0.4694120    2.1457590  
H    -4.6646720   -2.7986770   -2.2306570  
H    -3.0471160   -5.3181040   -2.1385980  
H    -1.4241390   -5.2073910   -0.4171360  
H     0.5495300   -1.9874420    3.1271070  
C    -0.9775490    2.4605630   -0.0014630  
C    -1.2530020    1.1102360   -0.0493480  
C    -2.6555680    0.9350080    0.1947940  
C    -3.2198670    2.2913360    0.3751490  
N    -2.1607900    3.1626620    0.2668130  
C    -4.5378370    2.5636580    0.5735500  
C    -5.4663080    1.4481490    0.6260610  
O    -6.6762860    1.5810430    0.7456460  
C    -4.8832530   -0.0113490    0.5436990  
O    -5.6268660   -0.9426750    0.7895980  
C    -3.4346740   -0.1999820    0.2427950  
H    -0.5291980    0.3404180   -0.2606150  
H    -4.9314110    3.5709610    0.6677190  
H    -2.2217710    4.1700710    0.2596490  
C     3.0573030    0.7965630   -0.4222760  
C     3.7968640    1.9460310   -0.5871120  
C     2.8542310    3.0355290   -0.5393630  
C     1.5342840    2.3696270   -0.3184620  
N     1.6608050    1.0816000   -0.2451840  
C     0.2896070    3.1349040   -0.1896130  
C     0.4339490    4.4978480   -0.2672300  
O    -0.5905410    5.3698830   -0.1655630  
C     1.7417970    5.1814460   -0.4939150  
O     1.7214960    6.4188410   -0.5509910  
C     2.9576120    4.3840630   -0.6278710  
H     4.8477110    2.0322920   -0.8295210  
H    -0.1658820    6.2564100   -0.2717130  
H     3.8910010    4.9175810   -0.7790020  
C     6.7507020   -0.9464280    1.1600770  
C     6.4913340   -2.2611100    0.9493760  
C     5.1905590   -2.3457100    0.3173590  
C     4.7149660   -0.9548290    0.1625340  
N     5.7128060   -0.1551710    0.6676360  
C     3.4902880   -0.5820860   -0.3480090  
C     2.6238890   -1.6855860   -0.8427090  
O     1.5929280   -1.5016750   -1.4600490  
C     3.0990130   -3.1690060   -0.6311150  
O     2.3507690   -4.0775330   -0.9535450  
C     4.4289110   -3.4052240   -0.0688410  
H     7.1295190   -3.0935330    1.2073870  
H     4.7542730   -4.4347820    0.0458530  
H     7.6110090   -0.4767600    1.6178170  
H     5.5918160    0.8315670    0.8472460  
