62


C    -5.6269690   -1.5358560    2.8767390  
C    -6.6833850   -1.9247900    2.0939500  
C    -6.3356480   -1.6137500    0.7372980  
C    -5.0371460   -1.0358590    0.7622860  
N    -4.6416500   -0.9876660    2.0819710  
C    -4.3614990   -0.5732180   -0.3925580  
C    -5.0750810   -0.7165580   -1.5824000  
O    -4.5188310   -0.2834520   -2.7744400  
C    -6.3672950   -1.2895310   -1.6320780  
O    -6.9007170   -1.3418680   -2.9093100  
C    -7.0054830   -1.7425190   -0.4945900  
H    -7.6053360   -2.3701260    2.4416040  
H    -3.7215770   -0.7071440    2.3873620  
H    -5.1618910   -0.4892930   -3.4773870  
H    -7.7630940   -1.7814770   -2.8822400  
H    -8.0021280   -2.1751210   -0.5521590  
H    -5.4928130   -1.5984360    3.9475600  
C    -0.5351870   -1.9070930    1.5346110  
C    -1.8123000   -1.8445810    1.0369560  
C    -1.9518300   -0.5610190    0.4045820  
C    -0.7090710    0.1122630    0.5684200  
N     0.1200560   -0.7207330    1.2903690  
C    -0.4628550    1.4168050    0.0710720  
C    -1.4899370    1.9400730   -0.7321920  
O    -1.3199980    3.1150730   -1.3864940  
C    -2.7329730    1.2764700   -0.9118970  
O    -3.6287560    1.9910840   -1.6814470  
C    -3.0182790    0.0518420   -0.3140000  
H    -2.5544300   -2.6284000    1.0826220  
H     1.1325810   -0.6369000    1.2465190  
H    -2.1597850    3.2611360   -1.8665530  
H    -4.0541220    1.3617970   -2.3048110  
H    -0.0235600   -2.7135630    2.0405880  
C     3.8698220    0.4182350    0.0848360  
C     4.4247260    1.6565930    0.2498480  
C     3.3096180    2.5653180    0.4137300  
C     2.0943010    1.7000770    0.2737910  
N     2.4357730    0.4552790    0.0987140  
C     0.7395890    2.2281610    0.3526740  
C     0.6599380    3.5482690    0.7232800  
O    -0.4930250    4.1800760    0.9732920  
C     1.8569680    4.4300310    0.8990140  
O     1.6655590    5.6055710    1.2206920  
C     3.2072700    3.8765820    0.7097120  
H     5.4734990    1.9055630    0.3275140  
H    -0.2377680    5.1038820    1.1941040  
H     4.0495620    4.5478100    0.8465460  
C     7.5781450   -0.9025900   -2.0132630  
C     6.5607210   -0.1246800   -1.5640190  
C     5.7223700   -1.0133950   -0.7744740  
C     6.4082890   -2.3379140   -0.8780900  
N     7.4939970   -2.2653310   -1.5963170  
C     5.8767680   -3.5178120   -0.2513420  
C     4.7190610   -3.3972960    0.4379630  
O     4.1160400   -4.4162870    1.0710710  
C     4.0067650   -2.0778480    0.5854150  
O     3.0060000   -2.0728110    1.2992790  
C     4.5597890   -0.8531580   -0.0767130  
H     6.3851720    0.9215810   -1.7654740  
H     6.3985160   -4.4640370   -0.3415150  
H     3.3241470   -4.0270420    1.5015840  
H     8.4103970   -0.6076550   -2.6415360  
