62


C    -2.4637330    1.5026130    1.8360360  
C    -3.6329800    2.2061240    1.9239080  
C    -3.5611760    3.2725380    0.9644690  
C    -2.3057050    3.1664590    0.3144770  
N    -1.6386750    2.0731010    0.8635420  
C    -1.9082450    4.0359770   -0.7076510  
C    -2.7916040    5.0402230   -1.0706280  
O    -2.4520970    5.9207060   -2.0585860  
C    -4.0503340    5.1680200   -0.4256860  
O    -4.8170120    6.2172740   -0.8993150  
C    -4.4419560    4.3022460    0.5780060  
H    -4.4456120    1.9991560    2.6070400  
H    -0.9460140    3.9609170   -1.2000490  
H    -3.1876650    6.5512440   -2.1444780  
H    -5.6316780    6.2809400   -0.3794790  
H    -5.4138730    4.4140280    1.0548680  
H    -2.1065100    0.6604040    2.4120900  
C    -0.7872360   -1.8318130   -0.8193840  
C     0.5716240   -1.6809260   -0.9595240  
C     0.8938760   -0.3562620   -0.5093710  
C    -0.3200230    0.2386250   -0.0890130  
N    -1.3335360   -0.6745000   -0.2892550  
C    -0.3984740    1.5359620    0.4460030  
C     0.7969720    2.2443060    0.5487080  
O     0.7947980    3.5038180    1.0535970  
C     2.0205620    1.6688720    0.1116480  
O     3.0864410    2.5315460    0.2466150  
C     2.1057590    0.3783920   -0.4100720  
H     1.2567960   -2.4457560   -1.2956530  
H    -2.3180020   -0.4857520   -0.1656070  
H     1.7158700    3.8200330    1.0441400  
H     3.9207410    2.0735390    0.0581320  
C     3.6401530   -0.7445770   -2.0904790  
C     3.3894300   -0.1823170   -0.8702710  
C     4.6444720   -0.2636610   -0.1239410  
C     5.6327780   -0.9070230   -1.0262780  
N     4.9513310   -1.1837600   -2.1963800  
C     6.9261840   -1.1522780   -0.7010190  
C     7.3947900   -0.7666470    0.6291660  
O     8.5436080   -0.9368840    1.0041340  
C     6.3609470   -0.1091410    1.6137020  
O     6.7246820    0.1993320    2.7362660  
C     4.9881140    0.1097540    1.1399660  
H     7.6327570   -1.6255540   -1.3759910  
H     4.2803120    0.5447130    1.8391980  
H     2.9614420   -0.8612580   -2.9250330  
H     5.3620350   -1.5973590   -3.0188680  
C    -1.5711320   -3.5836640   -2.3928970  
C    -2.4330580   -4.6280830   -2.4194980  
C    -3.0938550   -4.6780060   -1.1318150  
C    -2.5271110   -3.5635890   -0.3328280  
N    -1.6048700   -2.9166270   -1.1591230  
C    -2.8716550   -3.2897690    0.9503090  
C    -3.8822440   -4.1306160    1.5921080  
O    -4.2529530   -3.9575900    2.7423780  
C    -4.5127960   -5.3027280    0.7562200  
O    -5.3668020   -6.0060030    1.2718140  
C    -4.0405040   -5.5051370   -0.6166400  
H    -2.6066990   -5.2942160   -3.2521280  
H    -2.4315430   -2.4865570    1.5309250  
H    -4.4696480   -6.3276790   -1.1807390  
H    -0.9088240   -3.2091780   -3.1614740  
