62


C    -4.8395940    1.0661660    2.1656020  
C    -6.0150010    0.5415810    2.6198710  
C    -6.2723240   -0.6528710    1.8626410  
C    -5.2018400   -0.8074300    0.9478060  
N    -4.3275930    0.2640030    1.1412680  
C    -5.1075650   -1.8941720    0.0698250  
C    -6.1290490   -2.8317020    0.1021150  
O    -6.0874210   -3.9073460   -0.7348970  
C    -7.2180280   -2.6861680    1.0021760  
O    -8.1515560   -3.6998430    0.9142620  
C    -7.2978880   -1.6183370    1.8767870  
H    -6.6354540    0.9619320    3.3995310  
H    -4.2834950   -2.0265680   -0.6220230  
H    -6.8906440   -4.4316690   -0.5727980  
H    -8.8832110   -3.5222430    1.5236280  
H    -8.1357470   -1.5318320    2.5657070  
H    -4.3110160    1.9647610    2.4502020  
C    -1.8950630    0.6117310    1.0317040  
C    -3.1220350    0.4920380    0.4634630  
C    -2.9733420    0.7281140   -0.9723700  
C    -1.5369100    0.9920810   -1.2021380  
N    -0.9375590    0.9455240    0.0590660  
C    -0.9739880    1.2248820   -2.4103680  
C    -1.8519640    1.2467230   -3.5827380  
O    -1.4411200    1.4419320   -4.7141790  
C    -3.3909650    1.0145510   -3.3587850  
O    -4.1419060    1.0545750   -4.3178400  
C    -3.8668900    0.7508060   -1.9921050  
H     0.0861180    1.4053260   -2.5523890  
H    -4.9268160    0.5704430   -1.8467330  
H    -1.5948910    0.5109970    2.0653630  
C     1.3041220   -0.0599890    0.1256960  
C     2.5861800    0.3461660    0.3359730  
C     2.5288940    1.7819560    0.6371810  
C     1.1048150    2.1806690    0.5731340  
N     0.4041570    1.0101620    0.2943620  
C     0.6347000    3.4349270    0.7688610  
C     1.5975380    4.4876550    1.0924170  
O     1.2751230    5.6481580    1.2859680  
C     3.1126360    4.0879840    1.2061380  
O     3.9339490    4.9424830    1.4918010  
C     3.4870210    2.6873340    0.9595900  
H    -0.4168070    3.6937240    0.7054620  
H     4.5351550    2.4255540    1.0612380  
H     0.9211050   -1.0353430   -0.1401890  
C     3.7699660   -0.4950160    0.3041670  
C     3.9266040   -1.8149010    0.6748690  
C     5.2853260   -2.1808520    0.4172700  
C     5.9291470   -1.0335540   -0.1170840  
N     4.9975530   -0.0135860   -0.1481580  
C     7.2754420   -1.0307720   -0.5006720  
C     7.9880390   -2.2079270   -0.3349340  
O     9.3011790   -2.2629420   -0.6942930  
C     7.3640720   -3.3640710    0.2115150  
O     8.2097990   -4.4504320    0.3180470  
C     6.0354450   -3.3633100    0.5884390  
H     3.1626130   -2.4319580    1.1285670  
H     5.1126640    0.8489810   -0.6587620  
H     7.7709010   -0.1574410   -0.9120260  
H     9.6180390   -3.1618310   -0.4991280  
H     7.7270300   -5.2037400    0.6890220  
H     5.5791740   -4.2602580    1.0023250  
