62


C    -6.1490830   -1.7747370    3.1194310  
C    -7.3351870   -2.0909830    2.5125690  
C    -7.3460010   -1.4347810    1.2342820  
C    -6.1192590   -0.7321490    1.1189140  
N    -5.3972580   -0.9753930    2.2732520  
C    -5.7794400    0.0612160    0.0011110  
C    -6.7307950    0.1243190   -1.0196240  
O    -6.4579760    0.8306240   -2.1493420  
C    -7.9611440   -0.5756510   -0.9198330  
O    -8.7784090   -0.4171080   -2.0240900  
C    -8.2765400   -1.3504780    0.1802490  
H    -8.1127930   -2.7191590    2.9251720  
H    -4.5625600   -0.4748180    2.5381810  
H    -7.2653470    0.8319940   -2.6924030  
H    -9.6527280   -0.7877480   -1.8340240  
H    -9.2264370   -1.8792950    0.2274170  
H    -5.7608280   -2.0622680    4.0863630  
C    -1.6930360   -1.4300040    0.0155600  
C    -0.9673320   -0.2602350   -0.0432470  
C    -1.9547760    0.8238280   -0.1122480  
C    -3.2853150    0.1740400   -0.0418350  
N    -3.0426850   -1.1863670    0.0532070  
C    -4.4991350    0.7951250   -0.0912780  
C    -4.4745200    2.2679390   -0.2207570  
O    -5.4774320    2.9572580   -0.1737730  
C    -3.0818660    2.9712570   -0.3990070  
O    -3.0594290    4.1764320   -0.5992840  
C    -1.8630560    2.1664660   -0.3088330  
H    -0.9170390    2.6833030   -0.3917550  
H    -1.3121840   -2.4394700    0.0189380  
H    -3.7684690   -1.8879950    0.0523040  
C     1.8114070   -3.1491510   -1.7045930  
C     3.0156640   -2.5644760   -1.4689450  
C     2.7174350   -1.3249300   -0.7699730  
C     1.2490550   -1.3112520   -0.6826850  
N     0.7244690   -2.3859050   -1.2240370  
C     0.4882000   -0.2086760   -0.0824110  
C     1.2470630    0.8172580    0.4143190  
O     0.7183010    1.8953660    1.0465220  
C     2.7157280    0.8505620    0.3270870  
O     3.2739740    1.8703300    0.7720050  
C     3.4869260   -0.3134590   -0.2388190  
H     3.9830200   -2.9171730   -1.7927190  
H     1.4892940    2.4633680    1.2619730  
H     1.6107210   -4.0841520   -2.2137090  
C     4.9224720   -0.3029630   -0.1625050  
C     5.8426460   -1.3446770   -0.3529510  
C     7.1371160   -0.8254030   -0.1395170  
C     6.9815430    0.5579360    0.1900010  
N     5.6466210    0.8394200    0.1670670  
C     8.0727960    1.3903290    0.4731740  
C     9.3336140    0.8215760    0.4249510  
O    10.4286280    1.5769530    0.6905770  
C     9.5088370   -0.5622590    0.0977210  
O    10.8295450   -0.9551300    0.0961730  
C     8.4400270   -1.3809820   -0.1801800  
H     5.5933350   -2.3713600   -0.5703220  
H     5.1821290    1.6980020    0.4359460  
H     7.9639490    2.4398530    0.7239280  
H    11.2106010    1.0031740    0.6060890  
H    10.8932690   -1.8946750   -0.1317100  
H     8.5921550   -2.4293080   -0.4271540  
