62


C     4.5035240   -0.6011150   -2.6995580  
C     4.2935880   -0.4733290   -1.3454190  
C     5.4508100   -0.9998650   -0.6692310  
C     6.3368160   -1.4381810   -1.6842850  
N     5.7289370   -1.1933560   -2.9023220  
C     7.5820150   -2.0133030   -1.3996820  
C     7.9351550   -2.1434360   -0.0664270  
O     9.1371410   -2.6895850    0.2670080  
C     7.0545970   -1.7097140    0.9642060  
O     7.5495690   -1.9134630    2.2352950  
C     5.8250750   -1.1468550    0.6815940  
H     6.1344280   -1.3894020   -3.8042790  
H     8.2674950   -2.3467840   -2.1718790  
H     9.2079770   -2.6655160    1.2372430  
H     6.9706400   -1.4881010    2.8853660  
H     5.1676930   -0.8204600    1.4836330  
H     3.8726970   -0.3095050   -3.5268030  
C     1.8470840   -0.4954180   -0.8639060  
C     0.9042770    0.2373470   -0.2029950  
C     1.6156910    1.3541030    0.4114570  
C     3.0406560    1.1997890    0.0318030  
N     3.1249600    0.0461080   -0.7423880  
C     4.0297820    2.0539240    0.3983780  
C     3.6852340    3.1898220    1.2494500  
O     4.5076320    4.0063820    1.6362470  
C     2.1861710    3.3529130    1.6950670  
O     1.8834240    4.2790220    2.4304610  
C     1.2066950    2.3747450    1.2099100  
H     5.0632790    1.9253990    0.0960180  
H     0.1732610    2.5043710    1.5149820  
H     1.7179500   -1.3995980   -1.4443620  
C    -1.0612890   -1.2706300    0.2887130  
C    -0.5200070   -0.0792560   -0.0966940  
C    -1.6479120    0.7828430   -0.4470750  
C    -2.8758010   -0.0157560   -0.2183280  
N    -2.4461170   -1.2558200    0.1950370  
C    -4.1717130    0.4116660   -0.4081320  
C    -4.2942280    1.7411390   -1.0062150  
O    -5.3558890    2.2128980   -1.4173530  
C    -3.0151150    2.6397480   -1.1924380  
O    -3.1677360    3.7841040   -1.5849080  
C    -1.7054590    2.0561470   -0.9156820  
H    -0.8271500    2.6718730   -1.0760380  
H    -0.5528480   -2.1633320    0.6288980  
H    -3.0658260   -1.9503660    0.5890660  
C    -5.1900810   -1.9703930    3.2694910  
C    -4.6070850   -1.1093090    2.3730510  
C    -5.4112070   -1.1230980    1.1771460  
C    -6.4857870   -2.0175130    1.4263420  
N    -6.3141850   -2.5281160    2.6979270  
C    -7.5146100   -2.2531120    0.5083060  
C    -7.4652070   -1.5426690   -0.6791680  
O    -8.4417730   -1.6974020   -1.6115380  
C    -6.4020420   -0.6401300   -0.9636310  
O    -6.5034970   -0.0495860   -2.1986090  
C    -5.3411160   -0.4374020   -0.0749830  
H    -3.7352160   -0.5013240    2.5679630  
H    -6.9522550   -3.1575360    3.1592600  
H    -8.3399440   -2.9299390    0.7040070  
H    -8.2179530   -1.0734830   -2.3294800  
H    -6.2418330    0.8966170   -2.0893400  
H    -4.8995880   -2.2258090    4.2787380  
