60


C     4.2758770    0.5951120   -0.0451780  
C     4.4098970   -0.7669140    0.2739340  
C     5.7644200   -1.1232670    0.0950410  
C     6.4512980    0.0554090   -0.3369380  
N     5.5322260    1.0638440   -0.4101710  
C     7.8245870    0.0686550   -0.6071520  
C     8.5169500   -1.1191240   -0.4371660  
O     9.8501870   -1.1666680   -0.6822880  
C     7.8479600   -2.3080510   -0.0026270  
O     8.6897000   -3.3928860    0.1120650  
C     6.4982390   -2.3232290    0.2626630  
H     3.6299830   -1.4053760    0.6593630  
H     5.6865790    2.0455260   -0.6094870  
H     8.3521620    0.9582740   -0.9333730  
H    10.1517560   -2.0745800   -0.5016860  
H     8.1926610   -4.1641870    0.4230770  
H     6.0078460   -3.2367680    0.5917190  
C    -0.1429820   -0.1403020    0.1487280  
C     1.2209780   -0.2752150    0.0134730  
C     1.8104730    1.0255920    0.0867730  
C     0.6940080    1.9671980    0.2731500  
N    -0.4719040    1.2163240    0.2793330  
C     0.8033710    3.3165800    0.4253940  
C     2.1205750    3.8987270    0.3202750  
O     2.3700390    5.0889110    0.4479000  
C     3.3248100    2.9425540   -0.0181600  
O     4.3937780    3.4715220   -0.2937660  
C     3.1313830    1.4617380    0.0027510  
H     1.7231240   -1.1989960   -0.2276630  
H    -0.0503090    3.9605020    0.6094280  
H    -1.3183850    1.5741710    0.7181060  
C    -1.1639270   -1.1493340    0.0971160  
C    -1.1509540   -2.4811490    0.4376680  
C    -2.4979330   -2.9778670    0.3482580  
C    -3.3326440   -1.8298400   -0.0784390  
N    -2.4689610   -0.7787290   -0.2536910  
C    -4.7009810   -1.8652850   -0.1855780  
C    -5.3652740   -3.1578790    0.0405350  
O    -6.5721870   -3.3064240   -0.0773000  
C    -4.4801830   -4.3940690    0.4425810  
O    -5.0430540   -5.4662510    0.6085370  
C    -3.0458320   -4.2042680    0.5962700  
H    -0.2959950   -3.0330720    0.7997640  
H    -2.4526620   -5.0582520    0.9066500  
H    -2.7156690    0.1185550   -0.6388580  
C    -6.5599770   -0.7246930   -1.4210670  
C    -6.9938290    0.5345150   -1.6603410  
C    -6.1821120    1.4375670   -0.8717610  
C    -5.2598980    0.5731590   -0.0931120  
N    -5.4927460   -0.7336160   -0.4919480  
C    -4.3751040    1.0525580    0.8279220  
C    -4.1110380    2.4796190    0.8291870  
O    -3.0785430    2.9537110    1.3003620  
C    -5.1386390    3.4196770    0.1124090  
O    -5.0582750    4.6249770    0.2788930  
C    -6.1460250    2.7904250   -0.7515710  
H    -7.7926240    0.8158410   -2.3311730  
H    -3.7621280    0.4181280    1.4535360  
H    -6.8374260    3.4450580   -1.2730880  
H    -6.9073480   -1.6663240   -1.8164280  
