62


C     3.8676930    0.1574710   -0.1219480  
C     4.3628640   -0.9574220   -0.8112080  
C     5.6865710   -1.1793970   -0.3726030  
C     5.9837410   -0.1726090    0.5991150  
N     4.8735930    0.6136790    0.7297440  
C     7.2236190   -0.0940960    1.2449550  
C     8.1764760   -1.0414740    0.9076860  
O     9.3972940   -1.0151140    1.5005440  
C     7.8981670   -2.0566610   -0.0618730  
O     8.9593170   -2.9123530   -0.2724490  
C     6.6807430   -2.1352680   -0.6965700  
H     3.7980690   -1.5143050   -1.5416950  
H     4.7624040    1.4217120    1.3258720  
H     7.4583780    0.6657000    1.9826310  
H     9.9180050   -1.7508860    1.1325890  
H     8.7209160   -3.5705080   -0.9422080  
H     6.4858320   -2.9130660   -1.4315950  
C     0.3719500   -0.7618550   -2.6076480  
C    -0.5127330    0.1725950   -2.1776430  
C     0.1924250    0.9326750   -1.1525010  
C     1.5289900    0.3073090   -1.0991610  
N     1.6217870   -0.6931110   -1.9358820  
C     2.5833270    0.7937220   -0.1952350  
C     2.2392600    1.9113900    0.5374750  
O     3.1166430    2.5299500    1.3847750  
C     0.9496230    2.5728970    0.4554570  
O     0.8192220    3.6316570    1.1202560  
C    -0.1647720    1.9900070   -0.3575950  
H    -1.5124610    0.3628700   -2.5386210  
H     2.6197630    3.3046420    1.7296040  
H     0.2441000   -1.4994750   -3.3910120  
C    -4.0514820   -0.1942660    0.1325920  
C    -2.7052720    0.1602240    0.0410320  
C    -2.6307860    1.5683920   -0.1226710  
C    -3.9726460    2.0485150   -0.0907170  
N    -4.8029660    0.9645260    0.0428750  
C    -4.2893020    3.4062670   -0.1594510  
C    -3.2289070    4.2989130   -0.2267240  
O    -3.4695740    5.6326610   -0.2792080  
C    -1.8752350    3.8591370   -0.2353360  
O    -0.9767970    4.8869620   -0.3234820  
C    -1.5403460    2.4955530   -0.2353710  
H    -1.8654930   -0.5062380    0.1538420  
H    -5.8032350    0.9558880    0.2032590  
H    -5.3087220    3.7764380   -0.1345940  
H    -2.5918650    6.0617510   -0.2768360  
H    -0.2103090    4.6508160    0.2560280  
C    -2.5222300   -4.2521860   -0.6269740  
C    -3.5828500   -4.9727870   -0.1794980  
C    -4.5949340   -4.0305120    0.2448980  
C    -4.0231260   -2.6871550    0.0248100  
N    -2.7533730   -2.8880400   -0.4805390  
C    -4.6672590   -1.4959560    0.2854630  
C    -6.0771460   -1.6201780    0.7107640  
O    -6.8304740   -0.6597880    0.8221650  
C    -6.6698460   -3.0443660    1.0313640  
O    -7.8016080   -3.0995670    1.4893740  
C    -5.8501680   -4.2093420    0.7502230  
H    -3.6638520   -6.0495510   -0.1494810  
H    -6.2719730   -5.1902890    0.9436780  
H    -1.5817980   -4.5925200   -1.0397180  
H    -2.2016920   -2.1648470   -0.9215610  
