62


C     4.1224320    0.1351460   -0.3924270  
C     5.3340710   -0.2588340   -0.9370310  
C     5.5127740   -1.6380650   -0.6370070  
C     4.3742240   -2.0545780    0.1101080  
N     3.5257200   -0.9731470    0.2147780  
C     4.2299530   -3.3568910    0.6016490  
C     5.2439780   -4.2585790    0.3211560  
O     5.1561910   -5.5369620    0.7718090  
C     6.3838410   -3.8649850   -0.4424660  
O     7.2906700   -4.8845120   -0.6343600  
C     6.5267260   -2.5806340   -0.9216060  
H     5.9875720    0.3710780   -1.5248590  
H     2.7736900   -0.9052920    0.8879990  
H     3.3670610   -3.6806200    1.1738450  
H     5.9480610   -6.0122610    0.4643190  
H     8.0320290   -4.5698080   -1.1728930  
H     7.4045740   -2.2988400   -1.4986630  
C     3.4644930    1.4087280   -0.4105870  
C     3.9546410    2.6809640   -0.5861240  
C     2.8614090    3.6007690   -0.4502440  
C     1.6566190    2.7781730   -0.1792920  
N     2.0874200    1.4768130   -0.1523000  
C     0.3718060    3.2390360   -0.0046490  
C     0.2144850    4.6812620   -0.1877910  
O    -0.8802410    5.2462520   -0.2566020  
C     1.4867010    5.5972750   -0.3261980  
O     1.3210980    6.8086360   -0.3132690  
C     2.7822870    4.9625200   -0.4943280  
H     4.9919140    2.9433090   -0.7345420  
H     3.6473190    5.6005770   -0.6431460  
H     1.4540000    0.6912040   -0.1711620  
C    -0.0572980   -0.1361260    2.9563830  
C     0.3859620    0.9606840    2.2588980  
C    -0.6351080    1.3060990    1.3009520  
C    -1.6913450    0.3793220    1.4920880  
N    -1.3106420   -0.4858100    2.4989860  
C    -2.9023660    0.4029860    0.7698100  
C    -3.0147310    1.4322640   -0.1635490  
O    -4.1538030    1.5698030   -0.8910230  
C    -1.9719050    2.3747600   -0.3840020  
O    -2.2740430    3.2926170   -1.3556050  
C    -0.7563660    2.3244960    0.3041660  
H     1.3074870    1.4922860    2.4451720  
H    -1.8453010   -1.2902140    2.7879200  
H    -4.0180970    2.3709860   -1.4358510  
H    -1.9239140    4.1678490   -1.0490570  
H     0.4049120   -0.6795290    3.7686710  
C    -4.5663340   -0.8397290    2.2229240  
C    -3.9858800   -0.5630250    1.0192720  
C    -4.6406000   -1.4351610    0.0428500  
C    -5.6425240   -2.2316410    0.7919560  
N    -5.5320640   -1.8362950    2.1108610  
C    -6.4685890   -3.1539470    0.2345890  
C    -6.3624310   -3.4011020   -1.1991240  
O    -7.0574780   -4.2131050   -1.7914310  
C    -5.2904320   -2.5835260   -2.0101470  
O    -5.1725250   -2.7890090   -3.2075570  
C    -4.4670100   -1.6032350   -1.2918550  
H    -7.1993390   -3.7220620    0.8022120  
H    -3.7502850   -1.0259170   -1.8650590  
H    -4.3777270   -0.3786970    3.1841470  
H    -6.1568410   -2.1213170    2.8487290  
