60


C     5.1243450   -2.2454840   -0.7589570  
C     6.4269490   -2.3442340   -0.3636630  
C     6.8087990   -1.0705950    0.1820130  
C     5.6855190   -0.2143080    0.0808460  
N     4.6472470   -0.9510740   -0.5019560  
C     5.6960430    1.0982400    0.5648020  
C     6.8719340    1.5592410    1.1365400  
O     6.9358830    2.8334860    1.6130960  
C     8.0131320    0.7183910    1.2326840  
O     9.1015840    1.3224940    1.8265600  
C     7.9929020   -0.5828970    0.7670480  
H     7.0558620   -3.2175590   -0.4728880  
H     4.8484310    1.7668930    0.4832440  
H     7.8387970    2.9759400    1.9458950  
H     9.8617170    0.7225020    1.8037380  
H     8.8721430   -1.2170250    0.8595340  
H     4.4942070   -2.9524380   -1.2800600  
C     0.9651700   -2.8544690    0.6767220  
C     0.0635960   -2.0032650    0.0881000  
C     0.8439730   -0.9521350   -0.5607770  
C     2.2573110   -1.2759740   -0.2947610  
N     2.2585590   -2.4482350    0.4462780  
C     3.3244840   -0.5383340   -0.7220820  
C     3.0305090    0.6618980   -1.5422570  
O     3.9003340    1.3620550   -2.0231190  
C     1.5212980    1.0168620   -1.8239730  
O     1.2755430    2.0192720   -2.4770120  
C     0.4862550    0.1375180   -1.2954020  
H    -0.5447500    0.3856420   -1.5185210  
H     0.7672970   -3.7343350    1.2744350  
H     3.0901030   -2.8666210    0.8384670  
C    -1.3773920   -2.1439320    0.0981500  
C    -2.1557500   -3.2702880    0.1106460  
C    -3.5385900   -2.8629450    0.1217390  
C    -3.5280700   -1.3833470    0.1193620  
N    -2.1948430   -1.0023160    0.0494270  
C    -4.6323150   -0.5842470    0.1956350  
C    -5.9455070   -1.2775200    0.1726150  
O    -6.9976560   -0.6753470    0.0691660  
C    -5.9743590   -2.8482980    0.1994370  
O    -7.0571170   -3.4109500    0.2581460  
C    -4.7050350   -3.5663070    0.1476770  
H    -1.7966780   -4.2881090    0.0520350  
H    -4.7358010   -4.6514040    0.1632390  
H    -1.8811570   -0.0925550    0.3593080  
C    -2.7301160    2.5127990   -2.3502470  
C    -3.1020790    3.6184970   -1.6597060  
C    -3.8806320    3.1796010   -0.5196450  
C    -3.9289440    1.6995740   -0.5993050  
N    -3.1805660    1.3523500   -1.7142420  
C    -4.5922920    0.8844380    0.2753830  
C    -5.2563450    1.5533910    1.4216710  
O    -5.7381150    0.9314980    2.3505690  
C    -5.2671610    3.1232190    1.4829300  
O    -5.8922260    3.6687930    2.3783400  
C    -4.5123710    3.8615610    0.4728190  
H    -2.8533710    4.6407250   -1.9048540  
H    -4.5020820    4.9451500    0.5386620  
H    -2.1317890    2.4331560   -3.2482300  
H    -3.2331150    0.4446600   -2.1527830  
