62


C    -5.5866090   -2.2883660   -2.8881500  
C    -4.2786890   -2.2429860   -2.4838330  
C    -4.2389330   -1.4342080   -1.2982920  
C    -5.5711730   -1.0152020   -1.0261370  
N    -6.3667370   -1.5501150   -2.0160940  
C    -5.9173780   -0.2287840    0.0776110  
C    -4.8935730    0.1583510    0.9321470  
O    -5.1733970    0.9239160    2.0208340  
C    -3.5535400   -0.2203350    0.6718470  
O    -2.6028670    0.3012120    1.5474540  
C    -3.2167470   -1.0084070   -0.4274720  
H    -3.4459940   -2.7357700   -2.9647700  
H    -7.3665550   -1.4388160   -2.0808700  
H    -6.9369180    0.0764840    0.2880250  
H    -4.3316630    1.0766280    2.4865560  
H    -1.9931310   -0.4107410    1.8375930  
H    -6.0362470   -2.7928400   -3.7315630  
C    -1.1046710   -0.8682990   -1.7647820  
C     0.2148970   -1.0988150   -1.5882300  
C     0.3752150   -1.7498300   -0.3024910  
C    -0.9890380   -1.9003790    0.2504070  
N    -1.8567780   -1.3422720   -0.6681530  
C    -1.2841330   -2.4789420    1.4540670  
C    -0.1856910   -3.0270650    2.2370760  
O    -0.3442260   -3.6396270    3.2818800  
C     1.2790930   -2.8068440    1.7112330  
O     2.2068200   -3.1353370    2.4264260  
C     1.4814620   -2.1690130    0.3794960  
H     1.0092890   -0.8307680   -2.2666280  
H    -2.3018370   -2.6589420    1.7898520  
H    -1.6271910   -0.3879600   -2.5804220  
C     3.4682800    1.6307900   -0.4894740  
C     4.7472270    1.2011660   -0.7943240  
C     4.7291330   -0.2181360   -0.6856670  
C     3.3091590   -0.5406100   -0.2974400  
N     2.5873840    0.5337720   -0.1848150  
C     2.8581470   -1.9023650   -0.0739420  
C     3.8038150   -2.8726910   -0.2256920  
O     3.5629610   -4.1731610   -0.0898420  
C     5.2448550   -2.5759210   -0.6218280  
O     5.9778350   -3.5657310   -0.7343630  
C     5.6566320   -1.2083930   -0.8395680  
H     5.6038300    1.8100220   -1.0486460  
H     4.4387250   -4.6034050   -0.2529030  
H     6.6914350   -1.0294330   -1.1131450  
C     3.6446570    4.1171480   -0.7370450  
C     2.9321790    2.9541030   -0.4384470  
C     1.5866000    3.3837770   -0.0811290  
C     1.5657030    4.7928000   -0.1880850  
N     2.8346340    5.1983890   -0.5894880  
C     0.4340090    5.5690070    0.0803460  
C    -0.7113840    4.8944710    0.4722290  
O    -1.8502520    5.5864470    0.7501430  
C    -0.7175960    3.4760120    0.5920600  
O    -1.9305340    2.9763270    0.9912540  
C     0.4106280    2.7189370    0.3200690  
H     3.1136190    6.1557900   -0.7452510  
H     0.4237840    6.6508890   -0.0027670  
H    -2.5192850    4.9267360    1.0081230  
H    -1.9152840    2.0058070    1.1139180  
H     0.4042920    1.6385020    0.4095230  
H     4.6736640    4.2312140   -1.0464160  
