60


C    -5.2381790    2.0430640    0.3042980  
C    -6.4971340    2.1432000    0.8160240  
C    -7.0520770    0.8165200    0.8539930  
C    -6.0761640   -0.0638740    0.3271770  
N    -4.9541220    0.7068080   -0.0103710  
C    -6.2716970   -1.4477540    0.2704500  
C    -7.4842450   -1.9442350    0.7245340  
O    -7.7239820   -3.2865380    0.6801490  
C    -8.4794690   -1.0730140    1.2377630  
O    -9.6293030   -1.7161970    1.6511330  
C    -8.2757550    0.2931430    1.3091770  
H    -6.9873370    3.0599730    1.1147240  
H    -5.5388700   -2.1338710   -0.1344550  
H    -8.6273660   -3.4300490    1.0105550  
H   -10.2864070   -1.0600530    1.9264930  
H    -9.0434270    0.9455690    1.7204390  
H    -4.5120440    2.8080520    0.0724650  
C    -0.8475820    1.5629880    1.2141110  
C    -2.1975730    1.4746030    1.1559270  
C    -2.5298190    0.6721430   -0.0029560  
C    -1.2483810    0.2928690   -0.6297910  
N    -0.2462150    0.8720460    0.1487540  
C    -1.1184650   -0.4864480   -1.7371280  
C    -2.3252370   -0.9938870   -2.3631230  
O    -2.3258160   -1.7433560   -3.3281700  
C    -3.7156660   -0.5650450   -1.7630020  
O    -4.7305760   -0.8935130   -2.3459210  
C    -3.7298590    0.2623290   -0.5242250  
H    -2.8971520    1.9017930    1.8580540  
H    -0.1622790   -0.7509070   -2.1733740  
H    -0.2175830    2.0505470    1.9453720  
C     1.8601340   -0.3815240   -0.2026750  
C     1.1389830    0.7645760   -0.0525700  
C     2.0665840    1.8812210   -0.1369180  
C     3.4004540    1.2774600   -0.3544700  
N     3.2169250   -0.1086850   -0.3836160  
C     4.5376230    1.9949500   -0.5264490  
C     4.4578580    3.4562240   -0.4589820  
O     5.4336520    4.1764690   -0.5886950  
C     3.0523730    4.1121320   -0.2118930  
O     2.9647010    5.3266250   -0.1476390  
C     1.8904710    3.2256930   -0.0731910  
H     5.5045250    1.5450800   -0.7218940  
H     0.9174010    3.6872210    0.0621220  
H     1.5232680   -1.4086760   -0.1852050  
C     4.1591190   -2.0792780   -1.5644870  
C     4.1973870   -1.0819670   -0.6409150  
C     5.4219130   -1.3206500    0.1410330  
C     6.0109530   -2.5304100   -0.5084520  
N     5.2666600   -2.9625370   -1.4905380  
C     7.2493700   -3.0987360   -0.0501580  
C     7.8502970   -2.5301560    1.0237430  
O     8.9983290   -2.9663440    1.5598170  
C     7.2577740   -1.3352800    1.7218050  
O     7.8544580   -0.8791340    2.6925320  
C     5.9951140   -0.7486380    1.2152270  
H     7.6643840   -3.9657800   -0.5517280  
H     9.1880090   -2.3687280    2.3156590  
H     5.6118230    0.1244210    1.7339650  
H     3.3939840   -2.2554120   -2.3116870  
