64


C    -5.8734900    1.7385480   -1.6326720  
C    -5.3287310    0.8737730   -0.7063350  
C    -6.4449370    0.1378550   -0.1417960  
C    -7.6242460    0.6074200   -0.7763880  
N    -7.2423670    1.5819770   -1.6759650  
C    -8.8999700    0.1240570   -0.4600020  
C    -8.9901090   -0.8510320    0.5206510  
O   -10.2080680   -1.3597900    0.8648450  
C    -7.8229090   -1.3248420    1.1779860  
O    -8.0767660   -2.2865960    2.1368500  
C    -6.5648450   -0.8454930    0.8650310  
H    -7.8660200    2.0910600   -2.2826090  
H    -9.8026090    0.4826490   -0.9442180  
H   -10.0578950   -2.0157240    1.5674210  
H    -7.2440340   -2.5593150    2.5499050  
H    -5.6877170   -1.2170040    1.3890140  
H    -5.3754390    2.4440170   -2.2821810  
C    -2.1264750    3.8858400    0.2605050  
C    -3.3188360    3.2799500   -0.0358150  
C    -3.0727030    1.8656290   -0.1061000  
C    -1.6965450    1.6739530    0.1745990  
N    -1.1472370    2.9194980    0.4072260  
C    -1.0674620    0.4108080    0.1995090  
C    -1.8973370   -0.6755310   -0.0814130  
O    -1.3824550   -1.9413620   -0.0798640  
C    -3.2743290   -0.5036520   -0.3670240  
O    -3.9281110   -1.6925410   -0.6377360  
C    -3.8968620    0.7429710   -0.3806040  
H    -4.2687650    3.7767440   -0.1710470  
H    -0.1583570    3.0923620    0.5009890  
H    -2.1035870   -2.5369220   -0.3508260  
H    -4.8262530   -1.4926260   -0.9514940  
H    -1.8890760    4.9316500    0.3962490  
C     1.0112200    0.7698850    1.6035690  
C     0.3646970    0.2611980    0.5124230  
C     1.3866120   -0.4167130   -0.2840590  
C     2.6611310   -0.2657210    0.4470210  
N     2.3571130    0.4287790    1.6055460  
C     3.8902370   -0.7134530    0.0339690  
C     3.9065410   -1.3915550   -1.2775510  
O     4.9237060   -1.8290710   -1.7937580  
C     2.5526920   -1.5700980   -2.0698770  
O     2.5969180   -2.1231440   -3.1592730  
C     1.3236240   -1.0532520   -1.4841630  
H     0.3958340   -1.1892700   -2.0270440  
H     0.5951820    1.3303930    2.4312100  
H     3.0677790    0.8333350    2.1981010  
C     5.1597310   -0.7161280    2.2195980  
C     5.1042330   -0.5620470    0.8434130  
C     6.4472420   -0.2018300    0.4279750  
C     7.2469680   -0.1468370    1.5966540  
N     6.4354690   -0.4645170    2.6698340  
C     8.6057900    0.1935680    1.5796820  
C     9.1729060    0.4824930    0.3495540  
O    10.4943650    0.8092360    0.2646040  
C     8.3877850    0.4353640   -0.8336490  
O     9.0928730    0.7445040   -1.9824270  
C     7.0474870    0.1058370   -0.8093830  
H     6.7489630   -0.5817130    3.6206630  
H     9.2156010    0.2290580    2.4766990  
H    10.6955080    0.9320710   -0.6796810  
H     8.5543210    0.5224290   -2.7567760  
H     6.4790800    0.0443010   -1.7311700  
H     4.3922660   -1.0533370    2.9025390  
