62


C     4.6562430    0.3065430    2.4657220  
C     5.7665150   -0.0381070    1.7408060  
C     5.3123730   -0.7815250    0.5986740  
C     3.8981760   -0.8497020    0.6818390  
N     3.5245610   -0.1673440    1.8230850  
C     3.0960230   -1.5454220   -0.2520720  
C     3.7793110   -2.1677960   -1.3014410  
O     3.0778210   -2.8044820   -2.2765510  
C     5.1930030   -2.0993380   -1.4021200  
O     5.7005780   -2.7543050   -2.5094550  
C     5.9615750   -1.4210560   -0.4759430  
H     6.7905680    0.2018010    1.9925070  
H     2.5845880   -0.1310740    2.1857960  
H     3.7224360   -3.2493630   -2.8540140  
H     6.6648280   -2.8091270   -2.4378180  
H     7.0444360   -1.3859920   -0.5778100  
H     4.5687600    0.8542050    3.3936360  
C    -0.0988710    1.5433500    0.0588130  
C     1.0919720    0.8541170   -0.0687880  
C     0.8021650   -0.5487510   -0.0328700  
C    -0.6674770   -0.6639060    0.0960490  
N    -1.1429830    0.6202240    0.1631150  
C    -1.3876610   -1.8397890    0.1341200  
C    -0.5759350   -3.0491900    0.1714770  
O    -1.0346020   -4.1769170    0.3720920  
C     0.9871460   -2.9673800   -0.0088520  
O     1.6120140   -4.0117040    0.0253230  
C     1.6310570   -1.6424610   -0.1235120  
H     2.0659680    1.2785130   -0.2446600  
H    -2.1171520    0.8995560    0.1297420  
C     2.5382160    5.0654210    0.8001820  
C     2.0271700    3.8023160    0.7247930  
C     0.6557330    3.9120970    0.2996730  
C     0.3979300    5.3612130    0.1456260  
N     1.5887680    6.0010980    0.4369560  
C    -0.7855830    5.9187570   -0.2222030  
C    -1.9118140    5.0307330   -0.4495240  
O    -3.0135250    5.4134910   -0.8110190  
C    -1.7021500    3.4953850   -0.2010620  
O    -2.6998400    2.7877170   -0.2176030  
C    -0.3370010    2.9728630    0.0564610  
H     2.5584860    2.9007580    0.9832940  
H    -0.9291340    6.9860480   -0.3577760  
H     3.5293560    5.3833190    1.0952380  
H     1.7117160    7.0014340    0.4604570  
C    -4.4753940    0.2459480   -2.3795290  
C    -3.3017710   -0.2615810   -1.8832850  
C    -3.6337950   -1.0792270   -0.7470560  
C    -5.0485610   -1.0399190   -0.6206980  
N    -5.5293190   -0.2181080   -1.6200650  
C    -5.7507480   -1.7702580    0.3433940  
C    -5.0012890   -2.5780770    1.1831910  
O    -5.6131880   -3.3416750    2.1298960  
C    -3.5843120   -2.6341760    1.0898370  
O    -3.0008500   -3.4653250    2.0182850  
C    -2.8692110   -1.8677700    0.1643730  
H    -2.3196060   -0.0864390   -2.2974780  
H    -6.5006610    0.0024790   -1.7724240  
H    -6.8321620   -1.7473410    0.4320400  
H    -4.8927520   -3.8440630    2.5580360  
H    -2.2932810   -3.9651120    1.5435180  
H    -4.6490440    0.9050530   -3.2181190  
