64


C     4.9231720    0.7248240   -0.3691740  
C     5.7723880    0.9799650   -1.4160840  
C     7.0662850    0.4932270   -1.0287110  
C     6.9351460   -0.0619280    0.2712800  
N     5.6105700    0.0780480    0.6487150  
C     8.0079590   -0.6374190    0.9608010  
C     9.2408760   -0.6527650    0.3261910  
O    10.3225050   -1.1952550    0.9567260  
C     9.3903910   -0.1099590   -0.9776460  
O    10.6757410   -0.2063510   -1.4762280  
C     8.3269610    0.4555330   -1.6567810  
H     5.4909120    1.4249540   -2.3600310  
H     5.2449830   -0.0608800    1.5786930  
H     7.9112090   -1.0620590    1.9546790  
H    11.0798890   -1.1125560    0.3519790  
H    10.7089410    0.1803930   -2.3635520  
H     8.4662620    0.8641520   -2.6556520  
C     3.0085550    2.2864630   -0.4831170  
C     1.6565770    2.2457110   -0.2725140  
C     1.3321900    0.9154060    0.1549960  
C     2.5418400    0.1791420    0.1657800  
N     3.5678170    1.0431000   -0.2151420  
C     2.6004990   -1.1855830    0.4701580  
C     1.4112810   -1.8202310    0.7923270  
O     1.4180700   -3.1442680    1.1125390  
C     0.1822110   -1.1124580    0.8059260  
O    -0.8811650   -1.8935780    1.1846470  
C     0.1140820    0.2552650    0.4893620  
H     0.9739690    3.0695730   -0.4176480  
H     3.5241040   -1.7529570    0.4518950  
H     0.4981510   -3.3961290    1.3078260  
H    -1.7013100   -1.3640130    1.2322030  
H     3.6492370    3.1006210   -0.7886860  
C    -1.1492280    0.9736670    0.5409110  
C    -1.4302480    2.2608270    0.9129360  
C    -2.8522770    2.4719400    0.8241280  
C    -3.4227260    1.1922810    0.3629140  
N    -2.3608170    0.2796570    0.2657370  
C    -4.7313530    0.9593830    0.0776060  
C    -5.6651120    2.0905190    0.3173610  
O    -6.8705850    1.9829900    0.1938520  
C    -5.0757980    3.4647140    0.8094340  
O    -5.8445650    4.4038000    0.9591210  
C    -3.6431600    3.5564540    1.0614130  
H    -0.7092640    2.9773260    1.2787690  
H    -3.2476200    4.5091680    1.3997540  
H    -2.3865430   -0.3882160   -0.5004350  
C    -4.5910620   -3.0303950    2.0002000  
C    -5.2237540   -3.7328340    1.0118390  
C    -5.5436310   -2.8005380   -0.0353300  
C    -5.0651030   -1.5326620    0.3787900  
N    -4.4553750   -1.7033700    1.6107840  
C    -5.2297770   -0.3546890   -0.3811940  
C    -5.9016870   -0.4957180   -1.5980920  
O    -6.0568310    0.5853770   -2.4083110  
C    -6.3797150   -1.7600500   -2.0288920  
O    -7.0023250   -1.7241640   -3.2625500  
C    -6.2073600   -2.9044390   -1.2727860  
H    -5.4361800   -4.7931660    1.0217010  
H    -4.2456020   -0.9414530    2.2387230  
H    -6.6210990    0.3117520   -3.1524010  
H    -7.4313750   -2.5755250   -3.4332380  
H    -6.5815770   -3.8618640   -1.6296070  
H    -4.1997160   -3.3614850    2.9518070  
