62


C    -5.3378300   -0.7145570    1.8851100  
C    -6.1441210   -1.8076580    1.7567050  
C    -5.4568270   -2.7653830    0.9289260  
C    -4.2112770   -2.1996340    0.5689050  
N    -4.1590560   -0.9416080    1.1672300  
C    -3.2723660   -2.8525800   -0.2337240  
C    -3.6049220   -4.1202160   -0.6885040  
O    -2.7309230   -4.8075590   -1.4747730  
C    -4.8503130   -4.7111590   -0.3419180  
O    -5.0299010   -5.9728620   -0.8709040  
C    -5.7706800   -4.0541600    0.4539040  
H    -7.1233990   -1.9237010    2.2006300  
H    -2.3209450   -2.4111600   -0.5088050  
H    -3.1460120   -5.6591990   -1.6964040  
H    -5.9037860   -6.3102380   -0.6243800  
H    -6.7176760   -4.5264690    0.7067440  
H    -5.4717880    0.2189320    2.4119100  
C    -2.0343800   -0.0010520    1.9564160  
C    -1.1992410    1.0112040    1.6134050  
C    -1.7524350    1.6689560    0.4487520  
C    -3.0091140    0.9537570    0.1291570  
N    -3.1154430   -0.0658290    1.0706230  
C    -3.8514150    1.2483230   -0.8900980  
C    -3.5066830    2.3930360   -1.7170730  
O    -4.1481390    2.7471430   -2.6920960  
C    -2.2506710    3.2498420   -1.3088540  
O    -2.1317050    4.3399420   -1.8666520  
C    -1.3148360    2.7523540   -0.2847950  
H    -0.2879270    1.2845110    2.1212680  
H    -4.7371360    0.6686330   -1.1237640  
H    -1.9818150   -0.7133380    2.7685070  
C     2.8256740    1.0083530    0.0153680  
C     1.4566430    1.2102430   -0.1738680  
C     1.1917290    2.5867630    0.0230410  
C     2.4500030    3.2083640    0.3193370  
N     3.4032290    2.2309280    0.3213080  
C     2.5872380    4.5847910    0.5226530  
C     1.4416490    5.3497600    0.3909980  
O     1.4958290    6.6918810    0.5466880  
C     0.1704980    4.7641500    0.0860530  
O    -0.8382980    5.6871010    0.0133340  
C     0.0034870    3.3885020   -0.0581790  
H     0.7477840    0.4372170   -0.4306210  
H     4.3983990    2.3234460    0.4730130  
H     3.5381410    5.0580350    0.7416890  
H     0.5920110    7.0186700    0.3659330  
H    -1.4157430    5.4253730   -0.7447670  
C     3.6433900   -0.1550220   -0.0547690  
C     3.3269900   -1.4656950   -0.3393010  
C     4.5588380   -2.1861280   -0.2642150  
C     5.5836820   -1.1410120    0.0905990  
N     5.0450590    0.0386300    0.2109910  
C     6.9718120   -1.4743800    0.2610920  
C     7.3241160   -2.7707490    0.0896520  
O     8.5699990   -3.2379610    0.2134120  
C     6.3145320   -3.8504830   -0.2685790  
O     6.7675680   -4.9937700   -0.3951100  
C     4.9199010   -3.4904550   -0.4359910  
H     2.3539680   -1.8727060   -0.5760000  
H     7.6937950   -0.7066660    0.5161240  
H     8.4891930   -4.2044360    0.0281720  
H     4.2225770   -4.2815360   -0.6927320  
