60


C     6.5501170    2.2099410    3.1548030  
C     7.7676670    2.0551030    2.5466050  
C     7.5239560    1.4857670    1.2507040  
C     6.1203700    1.3234320    1.1268160  
N     5.5501220    1.7893610    2.2949350  
C     5.4980420    0.7666440   -0.0113550  
C     6.3525950    0.3674670   -1.0407540  
O     5.8319850   -0.1658720   -2.1856760  
C     7.7586970    0.5234380   -0.9326880  
O     8.4478770    0.0832550   -2.0479540  
C     8.3507950    1.0779070    0.1856530  
H     8.7277470    2.3171290    2.9696210  
H     4.5790370    1.6712650    2.5389540  
H     6.5822780   -0.3856000   -2.7654010  
H     9.3995130    0.1917170   -1.9048110  
H     9.4320010    1.1874470    0.2407390  
H     6.3028240    2.5979150    4.1329110  
C     3.1150660    1.6226760    0.0851850  
C     4.0331630    0.6313170   -0.1062200  
C     3.2667910   -0.5823160   -0.3891890  
C     1.8387920   -0.1984220   -0.3545290  
N     1.8159010    1.1579490   -0.0947290  
C     0.7779520   -1.0471430   -0.5311340  
C     1.1120020   -2.4627290   -0.7750920  
O     0.2656620   -3.3231690   -0.9582030  
C     2.6278610   -2.8895510   -0.8123030  
O     2.8923220   -4.0671600   -0.9960700  
C     3.6511140   -1.8650460   -0.6150840  
H     4.6915120   -2.1656100   -0.6565030  
H     3.2878680    2.6687810    0.3034060  
H     0.9745100    1.6658980    0.1333230  
C    -1.1107060    0.4719140   -1.2475110  
C    -0.6161320   -0.5869000   -0.5369740  
C    -1.7539250   -1.1373060    0.2030910  
C    -2.9167560   -0.2745800   -0.1246110  
N    -2.4515240    0.7018880   -0.9829900  
C    -4.1853140   -0.4291780    0.3790380  
C    -4.4039180   -1.6728290    1.1620810  
O    -5.5112640   -2.1085050    1.4224030  
C    -3.1591620   -2.4962030    1.6403090  
O    -3.3265350   -3.3746030    2.4709020  
C    -1.8540350   -2.1814650    1.0638390  
H    -1.0128830   -2.8090220    1.3333350  
H    -0.5918710    1.0982520   -1.9627520  
H    -3.1146440    1.1183520   -1.6456660  
C    -5.7079330    1.7865410   -3.2032710  
C    -6.9216690    2.1863050   -2.7664410  
C    -6.9826110    1.7718270   -1.3703830  
C    -5.6770270    1.0674530   -1.1279370  
N    -4.9380770    1.1118670   -2.2044350  
C    -5.3397150    0.4599190    0.1518920  
C    -6.2190960    0.7429820    1.1688090  
O    -6.0055110    0.4047660    2.4418410  
C    -7.5168610    1.4722480    0.9618990  
O    -8.2370260    1.6454110    1.9434980  
C    -7.8732120    1.9625700   -0.3809280  
H    -7.6893980    2.7162610   -3.3123300  
H    -6.8129850    0.6785100    2.9319130  
H    -8.8201500    2.4815770   -0.4917760  
H    -5.2718390    1.9159880   -4.1862720  
