60


C     5.0005560   -1.1103850   -3.4877140  
C     5.7279860   -2.1795450   -3.0394260  
C     5.6481390   -2.1763650   -1.6043430  
C     4.8408230   -1.0701740   -1.2369770  
N     4.4324340   -0.4520130   -2.4068480  
C     4.5606150   -0.7237420    0.1028900  
C     5.1277090   -1.5434600    1.0817860  
O     4.8656630   -1.3018620    2.3937510  
C     5.9343790   -2.6562700    0.7290060  
O     6.3991900   -3.3687520    1.8186020  
C     6.1948110   -2.9840090   -0.5882250  
H     6.2593170   -2.8907500   -3.6569760  
H     4.0271630    0.4713900   -2.4460150  
H     5.4178590   -1.9090040    2.9167420  
H     7.0693660   -4.0045440    1.5275500  
H     6.8135190   -3.8459980   -0.8293830  
H     4.8190330   -0.7621530   -4.4947660  
C     0.4146590    0.1578970   -0.8893570  
C     0.2379460    1.3805220   -0.2855310  
C     1.5205550    1.7051470    0.3533750  
C     2.4273800    0.5733370    0.0524290  
N     1.6895830   -0.3181420   -0.7112130  
C     3.7212480    0.4380460    0.4642510  
C     4.2646370    1.5448980    1.2820570  
O     5.4299230    1.6051000    1.6292160  
C     3.2956660    2.7120970    1.6901960  
O     3.7097280    3.5784040    2.4441640  
C     1.9354810    2.7265210    1.1465370  
H     1.3073430    3.5711000    1.3995600  
H    -0.3013990   -0.4067320   -1.4709860  
H     2.0581620   -1.1812640   -1.0830690  
C    -4.0644540    0.1706900   -0.0661400  
C    -2.6892060    0.1427910   -0.0200120  
C    -2.2559600    1.5014450   -0.2272300  
C    -3.5225820    2.2662150   -0.3761930  
N    -4.5690880    1.4996010   -0.2894680  
C    -3.5344800    3.6934910   -0.5804990  
C    -2.3413840    4.3255410   -0.6253260  
O    -2.1951390    5.6506080   -0.7953590  
C    -1.0358620    3.5834930   -0.4976620  
O    -0.0104410    4.2577640   -0.5957930  
C    -1.0261630    2.1068750   -0.2965530  
H    -2.0806060   -0.7258840    0.1652780  
H    -4.4756600    4.2221000   -0.6815140  
H    -1.2248410    5.8051540   -0.8062250  
C    -3.2878530   -4.1357460    0.3457490  
C    -4.5350050   -4.6429150    0.4564620  
C    -5.4194430   -3.4887950    0.3746670  
C    -4.4963340   -2.3146760    0.2103760  
N    -3.2571050   -2.7128810    0.1911370  
C    -4.9873690   -0.9367950    0.0865270  
C    -6.3617930   -0.8015970    0.1292320  
O    -7.0260260    0.3496840    0.0483590  
C    -7.2924530   -1.9773780    0.2902720  
O    -8.5005180   -1.7399270    0.3172460  
C    -6.7548710   -3.3389390    0.4110880  
H    -4.8346100   -5.6742520    0.5791880  
H    -7.9773380    0.0971590    0.1145000  
H    -7.4666800   -4.1509750    0.5237290  
H    -2.3447050   -4.6687430    0.3613630  
