60


C     3.6921080   -0.6365580   -0.1044410  
C     4.3547580    0.5297890    0.3242840  
C     5.7416850    0.3093220    0.2071980  
C     5.9118460   -1.0182850   -0.3022040  
N     4.6678990   -1.5554310   -0.4742040  
C     7.1722780   -1.5743370   -0.5443260  
C     8.2772280   -0.7856910   -0.2655690  
O     9.5233760   -1.2705390   -0.4778880  
C     8.1278130    0.5441610    0.2490850  
O     9.3307660    1.1763090    0.4662200  
C     6.8897630    1.0923730    0.4863280  
H     3.8859640    1.4084750    0.7378390  
H     4.4223350   -2.4928720   -0.7704830  
H     7.3101530   -2.5786440   -0.9294770  
H    10.1598350   -0.5791440   -0.2221650  
H     9.1795230    2.0663560    0.8182420  
H     6.7948130    2.1032140    0.8762170  
C    -0.0642550    1.8174720    0.1818750  
C     1.2448440    1.3867890    0.0724970  
C     1.2542270   -0.0340210   -0.0292730  
C    -0.1498530   -0.4515630   -0.0049400  
N    -0.9001260    0.6923750    0.0951780  
C    -0.6289170   -1.7562830   -0.0304390  
C     0.3975500   -2.7895110   -0.0463620  
O     0.1911420   -3.9891500    0.1144070  
C     1.8826880   -2.3732060   -0.3183120  
O     2.6435270   -3.2755570   -0.6459850  
C     2.2969190   -0.9610440   -0.1502740  
H     2.0943420    2.0439390   -0.0153960  
H    -1.8536280    0.6695000    0.4330170  
C     0.0865140    4.2538960    0.7953580  
C    -0.5828330    3.1386920    0.3381390  
C    -1.9467820    3.6356080    0.0523540  
C    -1.8867160    5.0770390    0.4187260  
N    -0.6876180    5.4141090    0.8427570  
C    -3.0191170    5.9411200    0.2825670  
C    -4.1671850    5.4128230   -0.2172520  
O    -5.2973140    6.1094590   -0.3947200  
C    -4.2545930    3.9732830   -0.6293610  
O    -5.3204300    3.5621990   -1.0837220  
C    -3.0664540    3.1042970   -0.4768590  
H    -2.9420980    6.9847130    0.5663800  
H    -5.9472300    5.4761330   -0.7713820  
H    -3.1737580    2.0814040   -0.8227800  
H     1.1152820    4.2964470    1.1335690  
C    -2.0355860   -2.0978280    0.0059320  
C    -3.1565490   -1.3411280   -0.2945330  
C    -4.3151820   -2.1711580   -0.1203710  
C    -3.8065090   -3.4962810    0.3143100  
N    -2.4362080   -3.3785530    0.3824600  
C    -4.5956320   -4.5691120    0.5774950  
C    -6.0403300   -4.4225660    0.4274960  
O    -6.8276320   -5.3326480    0.6422340  
C    -6.6017670   -3.0264490   -0.0321590  
O    -7.8106960   -2.8895880   -0.1599090  
C    -5.6506160   -1.9478740   -0.2864820  
H    -3.1696300   -0.3527050   -0.7281190  
H    -4.2055720   -5.5318170    0.8928600  
H    -6.0497740   -0.9896140   -0.6059870  
H    -1.7581500   -4.1194080    0.5163120  
