64


C     1.3905660   -4.0740980    0.7942480  
C     2.3893270   -4.9638430    0.4980010  
C     3.5252000   -4.1931980    0.0809380  
C     3.1517970   -2.8273340    0.1358940  
N     1.8440670   -2.7877730    0.5681790  
C     4.0389470   -1.7568550   -0.1660100  
C     5.3408540   -2.1362800   -0.5520850  
O     6.2515090   -1.2098080   -0.9302580  
C     5.7138920   -3.5054720   -0.6174920  
O     7.0211580   -3.6976910   -1.0263960  
C     4.8364070   -4.5257190   -0.3120260  
H     2.3267530   -6.0409800    0.5689830  
H     1.3360860   -1.9417240    0.7770790  
H     7.0685300   -1.6889780   -1.1575280  
H     7.2108860   -4.6459470   -1.0750200  
H     5.1553290   -5.5644270   -0.3740330  
H     0.3801590   -4.2438280    1.1382470  
C     3.6118610   -0.3729620   -0.0699230  
C     2.3390840    0.1272430   -0.2371660  
C     2.4273730    1.5411780    0.0199550  
C     3.8697880    1.7580870    0.3435900  
N     4.5541410    0.6522670    0.2936430  
C     4.3828130    3.0659310    0.6613060  
C     3.5070890    4.0958660    0.6443960  
O     3.8346130    5.3691150    0.9109460  
C     2.0318240    3.9056230    0.3552180  
O     1.3234890    4.9040250    0.4708180  
C     1.5152710    2.5590540    0.0123200  
H     1.4692440   -0.3887410   -0.6169170  
H     5.4339610    3.1999660    0.8907190  
H     2.9838110    5.8621620    0.8591730  
C    -1.4049640   -0.0196050    2.0944880  
C    -2.5229560    0.3077220    1.3615570  
C    -2.0829160    1.2614880    0.3658560  
C    -0.6921290    1.4580870    0.5479500  
N    -0.3032330    0.6616190    1.6052340  
C     0.0709490    2.3670860   -0.2200930  
C    -0.6239220    3.0757830   -1.2034150  
O     0.0490210    3.9257550   -2.0259450  
C    -2.0176970    2.8916250   -1.3923950  
O    -2.5454070    3.6667010   -2.4098150  
C    -2.7505950    2.0051300   -0.6266490  
H     0.6275050    0.6375510    1.9920730  
H    -0.6128840    4.3692860   -2.5846430  
H    -3.5116780    3.6010620   -2.3953520  
H    -3.8199950    1.8868830   -0.7843100  
H    -1.3053820   -0.7096480    2.9207220  
C    -4.5585430   -0.2451780    2.7700590  
C    -3.8827410   -0.1949510    1.5714010  
C    -4.7781410   -0.7540910    0.5816090  
C    -5.9747820   -1.1190610    1.2501780  
N    -5.8086200   -0.8045270    2.5841200  
C    -7.0617530   -1.7061070    0.5895960  
C    -6.9360520   -1.9353120   -0.7717230  
O    -7.9660080   -2.5050800   -1.4652290  
C    -5.7407010   -1.5887140   -1.4554300  
O    -5.7641690   -1.8847060   -2.8075500  
C    -4.6699180   -1.0091280   -0.8005440  
H    -6.5066040   -0.9201870    3.3015690  
H    -7.9783970   -1.9879560    1.0979670  
H    -7.6697900   -2.6024770   -2.3865990  
H    -4.8904600   -1.7121780   -3.1883600  
H    -3.7605680   -0.7583040   -1.3421820  
H    -4.2460150    0.0989070    3.7459730  
