60


C    -5.2318110    4.0873500   -1.7796550  
C    -4.4130220    3.0864740   -1.3208630  
C    -5.2248390    2.1990590   -0.5392590  
C    -6.5476110    2.7194940   -0.5680960  
N    -6.5172740    3.8722220   -1.3253570  
C    -7.6258130    2.1001680    0.0695390  
C    -7.3642740    0.9245890    0.7602870  
O    -8.3728380    0.2943590    1.4250010  
C    -6.0584470    0.3813080    0.7975910  
O    -5.9651520   -0.7883570    1.5395380  
C    -4.9718460    0.9823260    0.1554630  
H    -3.3575710    2.9911540   -1.5296370  
H    -7.3138120    4.4557600   -1.5282260  
H    -8.6333380    2.5028600    0.0556740  
H    -7.9775110   -0.4674820    1.8845170  
H    -5.0685010   -0.8667960    1.9009540  
H    -5.0032570    4.9443850   -2.3971780  
C    -2.4372710    1.0443730    0.3965830  
C    -3.6254560    0.4025280    0.2059430  
C    -3.2282130   -1.0000910   -0.0570220  
C    -1.7420720   -0.9948850    0.0334530  
N    -1.3015550    0.2009780    0.3086830  
C    -0.9484060   -2.2103760   -0.1728480  
C    -1.6733040   -3.3387930   -0.4798920  
O    -1.1230920   -4.5520200   -0.7077850  
C    -3.1531670   -3.3545590   -0.6026310  
O    -3.6897360   -4.4315750   -0.8861670  
C    -3.9136610   -2.1158400   -0.3754870  
H    -1.8913930   -5.1401250   -0.9039870  
H    -4.9940290   -2.1677670   -0.4566590  
H    -2.2877520    2.0952750    0.6092680  
C     0.4970300   -2.1955280   -0.0743190  
C     1.3455500   -1.1348150    0.1730160  
C     2.6919580   -1.6230100    0.1525780  
C     2.5983570   -3.0710570   -0.1410370  
N     1.2586720   -3.3567130   -0.2431690  
C     3.6591330   -3.9103930   -0.2845670  
C     4.9910070   -3.3543140   -0.1509480  
O     6.0171490   -4.0037880   -0.2890350  
C     5.1301810   -1.8229000    0.1900650  
O     6.2531940   -1.3741560    0.3492400  
C     3.9083520   -0.9902890    0.3342410  
H     1.0148990   -0.1202380    0.3147570  
H     3.5570140   -4.9680610   -0.5053340  
H     0.8609600   -4.2532270   -0.4816720  
C     3.1857390    1.0162840    1.6471790  
C     4.0160370    0.4066800    0.7405660  
C     4.9525320    1.4484250    0.2905740  
C     4.5726520    2.6888000    1.0120080  
N     3.5016520    2.3489700    1.8174370  
C     5.1803210    3.8941120    0.8745570  
C     6.2860510    4.0070580   -0.0697250  
O     6.8954670    5.0472740   -0.2665550  
C     6.6900900    2.7194730   -0.8723160  
O     7.5885920    2.7930490   -1.6940770  
C     5.9657490    1.4661340   -0.6111250  
H     4.8766610    4.7804750    1.4232430  
H     6.2936880    0.5831710   -1.1449490  
H     2.3820820    0.5749470    2.2205010  
H     3.0535550    2.9724770    2.4711610  
