62


C     2.2922580    1.9074000    0.9389170  
C     3.2329330    2.8343160    1.2679940  
C     4.5257240    2.2630260    0.9911020  
C     4.3110950    0.9597740    0.4827620  
N     2.9212900    0.7539260    0.4435780  
C     5.3669970    0.0967060    0.1653310  
C     6.6597170    0.5796960    0.3230560  
O     7.7162390   -0.2229010    0.0190730  
C     6.8904710    1.8936660    0.8046880  
O     8.2244840    2.2252690    0.9030870  
C     5.8425720    2.7306150    1.1459140  
H     3.0338140    3.8237010    1.6566660  
H     5.2262410   -0.9273530   -0.1585710  
H     8.5287960    0.2725640    0.2214400  
H     8.3168080    3.1052080    1.2976720  
H     6.0371330    3.7279240    1.5345910  
H     1.2132860    1.9542690    0.9572750  
C     2.2310190   -0.3572980    0.0033280  
C     1.0047360   -0.8180750    0.3997730  
C     0.6782110   -1.9483140   -0.4297370  
C     1.8301380   -2.1364660   -1.3407780  
N     2.7686580   -1.1657500   -0.9998060  
C     1.9206940   -3.0916370   -2.2958600  
C     0.8070720   -4.0253950   -2.4374570  
O     0.8083280   -4.9408390   -3.2447750  
C    -0.4477650   -3.8293540   -1.5135780  
O    -1.4363250   -4.5066930   -1.7339020  
C    -0.4142830   -2.7789500   -0.4679480  
H     0.4269800   -0.4387410    1.2278620  
H     2.7865550   -3.2174620   -2.9385950  
H     3.4837500   -0.8428490   -1.6361090  
C    -3.1489740    0.6070100    0.3670200  
C    -3.9711570   -0.0218090    1.2754780  
C    -3.5018470   -1.3705160    1.4487050  
C    -2.3187980   -1.5080010    0.5674770  
N    -2.1690850   -0.2889550   -0.0611010  
C    -1.5759000   -2.6466550    0.4252300  
C    -1.9721480   -3.8027520    1.2630610  
O    -1.3085330   -4.8224330    1.3255190  
C    -3.2585800   -3.6887770    2.1581290  
O    -3.6222260   -4.6718320    2.7876310  
C    -3.9541130   -2.4093300    2.2070040  
H    -4.7706100    0.4369510    1.8382230  
H    -4.8304270   -2.3323360    2.8435760  
H    -1.3919510   -0.0219280   -0.6468750  
C    -6.6099320    3.2945830   -0.1360130  
C    -5.9305860    4.3854010   -0.6070660  
C    -4.5439650    4.0203760   -0.6691270  
C    -4.4423820    2.6837510   -0.2011220  
N    -5.7146790    2.2733490    0.1293000  
C    -3.2185850    1.9698660   -0.1498790  
C    -2.0978020    2.6603780   -0.6340060  
O    -0.8656080    2.0540400   -0.6575250  
C    -2.1851740    3.9964920   -1.0889620  
O    -0.9709990    4.5184620   -1.4956890  
C    -3.3830260    4.6853530   -1.1037890  
H    -6.3631430    5.3369640   -0.8828200  
H    -5.9641940    1.3182330    0.3375370  
H    -0.2505800    2.6806720   -1.0814440  
H    -1.1098580    5.3738920   -1.9282090  
H    -3.4246130    5.7132700   -1.4572980  
H    -7.6658830    3.1539510    0.0460450  
