62


C    -5.6357910    2.1836220   -0.0395740  
C    -6.9179550    2.0608290    0.4042060  
C    -7.1856650    0.6570630    0.5681260  
C    -6.0131610   -0.0409630    0.1878200  
N    -5.0624190    0.9165240   -0.1963770  
C    -5.9057560   -1.4311700    0.2928290  
C    -7.0128220   -2.1294720    0.7559230  
O    -6.9547590   -3.4904990    0.8652560  
C    -8.1997790   -1.4482780    1.1184620  
O    -9.2145490   -2.2770250    1.5589780  
C    -8.2949400   -0.0693320    1.0334470  
H    -7.5991420    2.8778450    0.5996940  
H    -5.0141180   -1.9777850    0.0172070  
H    -7.8163070   -3.7877410    1.2045750  
H    -9.9881550   -1.7429980    1.7920660  
H    -9.2081270    0.4399300    1.3356000  
H    -5.0526830    3.0614820   -0.2651440  
C    -1.4066400    2.9118410    0.9556630  
C    -0.4627340    2.2125570    0.2549930  
C    -1.2497880    1.2139180   -0.5103990  
C    -2.6539610    1.4718570   -0.1109970  
N    -2.7266670    2.4682840    0.7315830  
C    -3.7551640    0.6843380   -0.6459400  
C    -3.4431680   -0.2623020   -1.5879830  
O    -4.3641500   -1.0269990   -2.2114890  
C    -2.0523000   -0.5147940   -2.0151630  
O    -1.8452660   -1.3780930   -2.8765570  
C    -0.9505000    0.2847450   -1.4345980  
H    -3.8458230   -1.5972360   -2.8209250  
H     0.0466140    0.0840950   -1.8130350  
H    -1.2412260    3.7246410    1.6515330  
C     0.9637250    2.3929420    0.2321880  
C     1.7262600    3.5136020    0.5246600  
C     3.0985460    3.1630490    0.3691260  
C     3.1364840    1.7995220   -0.0286400  
N     1.8308400    1.3640490   -0.1439590  
C     4.3297510    1.0822460   -0.2438200  
C     5.5122280    1.8020240   -0.0516040  
O     6.7122270    1.1940760   -0.2555000  
C     5.4927860    3.1719630    0.3340930  
O     6.7529330    3.7171740    0.4641900  
C     4.3142970    3.8593150    0.5376170  
H     1.3301420    4.4880870    0.7756530  
H     1.5784460    0.3862350   -0.1272710  
H     7.4071280    1.8504210   -0.0694590  
H     6.6839610    4.6434490    0.7392500  
H     4.3258010    4.9057940    0.8335540  
C     3.6429550   -0.8602200   -1.7169190  
C     4.3227470   -0.3329980   -0.6566020  
C     5.0027100   -1.4560750   -0.0103950  
C     4.6553540   -2.6663060   -0.7947040  
N     3.8231170   -2.2344860   -1.8093690  
C     5.0953250   -3.9198500   -0.5156550  
C     5.9664380   -4.1063000    0.6402420  
O     6.4145380   -5.1935150    0.9713410  
C     6.3348220   -2.8394550    1.4966790  
O     7.0546130   -2.9743310    2.4733060  
C     5.7969740   -1.5370410    1.0866190  
H     4.8288590   -4.7916050   -1.1054190  
H     6.0720800   -0.6691910    1.6751260  
H     3.0408050   -0.3453200   -2.4546090  
H     3.4452860   -2.8222800   -2.5359480  
