60


C     1.5650370    5.7379150    2.1542100  
C     1.2934650    4.4736000    1.6933780  
C     0.2790980    4.5982770    0.6886390  
C    -0.0356810    5.9799500    0.5923710  
N     0.7690470    6.6477000    1.4913960  
C    -1.0133740    6.4838080   -0.2704210  
C    -1.6976520    5.5753000   -1.0647460  
O    -2.6425700    6.0212100   -1.9376830  
C    -1.4139070    4.1908270   -0.9902080  
O    -2.1627420    3.4296940   -1.8660390  
C    -0.4366240    3.6717210   -0.1247050  
H     1.7551440    3.5650890    2.0493100  
H     0.7629730    7.6432940    1.6495350  
H    -1.2443300    7.5413500   -0.3471160  
H    -2.9688700    5.2486840   -2.4318670  
H    -1.7352570    2.5651100   -1.9930810  
H     2.2674990    6.0660650    2.9070420  
C    -0.1520590    2.2472720   -0.0828820  
C     1.0273230    1.5744170    0.1176370  
C     0.7792630    0.1635110    0.0409120  
C    -0.6573260    0.0195980   -0.2199530  
N    -1.1691150    1.3038260   -0.3543500  
C    -1.3740290   -1.1578790   -0.2842490  
C    -0.5493590   -2.3738070   -0.1751310  
O    -1.0022260   -3.5053660   -0.2263840  
C     1.0165710   -2.2506460   -0.0299580  
O     1.6401660   -3.3003650   -0.0345540  
C     1.6375550   -0.9259770    0.1422060  
H     1.9931290    2.0421440    0.2229650  
H    -2.1382740    1.4865590   -0.1101440  
C     3.6133190    0.1532310    1.2873300  
C     3.0431380   -0.7991310    0.4755980  
C     4.2089870   -1.6068950    0.0245350  
C     5.3766820   -0.9496680    0.6737470  
N     5.0085070    0.0641990    1.4177100  
C     6.7232730   -1.4102370    0.4812760  
C     6.9190480   -2.4702330   -0.3403820  
O     8.1191540   -3.0020720   -0.6196340  
C     5.7681580   -3.1464130   -1.0262450  
O     6.0206090   -4.0943480   -1.7680550  
C     4.3883960   -2.6622040   -0.7927400  
H     7.5428060   -0.9045990    0.9797700  
H     7.9365120   -3.7445660   -1.2371580  
H     3.5867790   -3.2072960   -1.2740080  
H     3.0922720    0.9124250    1.8568610  
C    -3.5977830   -0.3025520   -1.1653610  
C    -2.8112690   -1.2126610   -0.4973870  
C    -3.7978550   -2.2117830    0.0024770  
C    -5.1087650   -1.6994900   -0.4792810  
N    -4.9728130   -0.5947560   -1.1683280  
C    -6.3478240   -2.3710890   -0.1983520  
C    -6.3027260   -3.4973610    0.5535270  
O    -7.3784420   -4.2210530    0.9015310  
C    -5.0021220   -4.0312890    1.0750970  
O    -5.0338390   -5.0505360    1.7626620  
C    -3.7378470   -3.3301980    0.7508520  
H    -7.2786410   -1.9648070   -0.5781890  
H    -7.0284320   -4.9646180    1.4402080  
H    -2.8217210   -3.7778200    1.1132810  
H    -3.2705020    0.5694100   -1.7179030  
