64


C     0.7319810    4.0769080    0.0544860  
C     1.6833670    5.0458670   -0.0129860  
C     2.9549990    4.3930330   -0.1922480  
C     2.7163440    2.9975640   -0.2216590  
N     1.3238970    2.8117800   -0.0650190  
C     3.7469110    2.0709760   -0.4098140  
C     5.0370160    2.5688500   -0.5544460  
O     6.0733130    1.7023850   -0.7390700  
C     5.2905080    3.9615050   -0.5160060  
O     6.6194320    4.2998510   -0.6721880  
C     4.2648330    4.8751820   -0.3384940  
H     1.5079890    6.1104190    0.0652520  
H     3.5682270    1.0053540   -0.4415790  
H     6.8841180    2.2328440   -0.8220480  
H     6.7134810    5.2636800   -0.6533080  
H     4.4722170    5.9432240   -0.3192790  
H    -0.3323860    4.1556840    0.2099170  
C     0.6040740    1.6379590   -0.0589670  
C    -0.7666980    1.4872710   -0.1254900  
C    -0.9960040    0.0817940   -0.0596840  
C     0.3690220   -0.5128570    0.0234610  
N     1.2970160    0.4161920    0.0440020  
C     0.6281360   -1.9415500    0.0696860  
C    -0.4928820   -2.7185760    0.0794110  
O    -0.4715970   -4.0512250    0.1742570  
C    -1.8922610   -2.1606540   -0.0255450  
O    -2.7902350   -3.0165570   -0.0702760  
C    -2.1365500   -0.7060130   -0.0467420  
H    -1.4995610    2.2599840   -0.2849550  
H    -1.4147800   -4.3262130    0.1175680  
C    -3.4929040   -0.2075700   -0.0230790  
C    -3.9803670    1.0815000    0.2142140  
C    -5.3953980    1.0317970    0.1509140  
C    -5.7510930   -0.3215510   -0.1295110  
N    -4.5895240   -1.0384820   -0.2318830  
C    -7.0816770   -0.7390170   -0.2577560  
C    -8.0687230    0.2203420   -0.0998780  
O    -9.3796580   -0.1281130   -0.2125530  
C    -7.7323630    1.5785940    0.1812310  
O    -8.8339150    2.4022210    0.3074170  
C    -6.4235290    1.9905250    0.3069320  
H    -3.3849890    1.9466620    0.4584070  
H    -4.4863900   -2.0382030   -0.3415030  
H    -7.3588130   -1.7659760   -0.4707680  
H    -9.9073230    0.6768650   -0.0692770  
H    -8.5429080    3.3058540    0.4997010  
H    -6.1894520    3.0313460    0.5213040  
C     4.1657820   -1.1332660    2.6560500  
C     4.9762530   -2.1219220    2.1671860  
C     4.2541450   -2.7691880    1.1074030  
C     2.9912090   -2.1283260    1.0147520  
N     2.9484360   -1.1572120    1.9961840  
C     1.9926610   -2.5149410    0.0905480  
C     2.3527290   -3.5311440   -0.8039580  
O     1.4953660   -3.9096400   -1.7940800  
C     3.6135900   -4.1743370   -0.7212580  
O     3.7906050   -5.1705420   -1.6684870  
C     4.5539790   -3.8253410    0.2268880  
H     5.9698520   -2.3665860    2.5172460  
H     2.3290800   -0.3611330    1.9197710  
H     1.9312750   -4.6287390   -2.2835910  
H     4.6968500   -5.5066700   -1.6122970  
H     5.5093080   -4.3446080    0.2759580  
H     4.3464160   -0.4072630    3.4364920  
