62


C     4.5895510    0.4000780   -0.2546700  
C     5.9675230    0.3555460   -0.1074570  
C     6.3640410   -1.0092480   -0.1728330  
C     5.1812900   -1.7793850   -0.3674060  
N     4.1188050   -0.9053850   -0.3853760  
C     5.2014800   -3.1734120   -0.4979040  
C     6.4333210   -3.8023900   -0.4199470  
O     6.5130040   -5.1552570   -0.5392450  
C     7.6268880   -3.0498680   -0.2117210  
O     8.7635200   -3.8297840   -0.1529740  
C     7.6064750   -1.6771520   -0.0864630  
H     6.6046530    1.2122050    0.0640310  
H     3.1807420   -1.1373820   -0.6767670  
H     4.3052940   -3.7652550   -0.6517160  
H     7.4512640   -5.4003560   -0.4576400  
H     9.5402000   -3.2663490   -0.0197930  
H     8.5288010   -1.1217320    0.0693420  
C     3.6916590    1.5195280   -0.2585770  
C     3.9510670    2.8598650   -0.4170010  
C     2.7089200    3.5655870   -0.3133210  
C     1.6674950    2.5285880   -0.1027690  
N     2.3098060    1.3043570   -0.1239310  
C     0.3284820    2.7812490    0.0565830  
C    -0.0332750    4.2206730    0.1893090  
O    -1.1094180    4.5911870    0.6230610  
C     1.0257980    5.3142960   -0.1881090  
O     0.6528740    6.4775820   -0.2675600  
C     2.3987580    4.8933520   -0.3949060  
H     4.9161020    3.3005070   -0.6224680  
H     3.1427950    5.6568460   -0.6005550  
H     1.9084600    0.5785430    0.4875770  
C     0.0515620   -1.1243080    2.2021790  
C    -1.2772450   -1.3738700    2.1160560  
C    -1.8173860   -0.2964050    1.2982780  
C    -0.6520990    0.5635250    0.9892780  
N     0.4388750    0.0513300    1.5103850  
C    -0.7448980    1.7810710    0.1872480  
C    -1.9546310    1.9689980   -0.4287990  
O    -2.1782500    2.9398680   -1.3249820  
C    -3.1558880    1.1256420   -0.1638650  
O    -4.2154170    1.4586360   -0.6887720  
C    -3.0442650   -0.0572980    0.7539800  
H    -1.8240510   -2.2114950    2.5234270  
H    -3.1422090    2.9265880   -1.5074930  
H     0.8122430   -1.7050220    2.7091880  
C    -4.4571530   -1.1956930    2.4037760  
C    -5.6004330   -1.9295210    2.4292920  
C    -6.0864130   -2.0234490    1.0763670  
C    -5.1981380   -1.2921830    0.2529790  
N    -4.1868210   -0.7721830    1.0894220  
C    -5.3427620   -1.2509530   -1.1366960  
C    -6.4240150   -1.9195370   -1.6937250  
O    -6.6066910   -1.8911700   -3.0441670  
C    -7.3382980   -2.6303740   -0.8768810  
O    -8.3591810   -3.2395870   -1.5742340  
C    -7.1772850   -2.6917400    0.4966390  
H    -6.0661420   -2.3422480    3.3139500  
H    -4.6760400   -0.7029040   -1.7881560  
H    -7.4154170   -2.3947930   -3.2399830  
H    -8.9651900   -3.6731170   -0.9551730  
H    -7.8728070   -3.2600000    1.1105430  
H    -3.8176360   -0.8599530    3.2056910  
