66


C     4.3430410    1.9660840   -0.1053320  
C     4.1005360    3.3195250    0.0108910  
C     2.6981620    3.5298980   -0.1865480  
C     2.1167310    2.2584920   -0.4370390  
N     3.1353280    1.3332480   -0.3774510  
C     0.7340750    2.0587000   -0.6596340  
C    -0.0595600    3.2096080   -0.5623580  
O    -1.4236700    3.1249260   -0.7189260  
C     0.5042000    4.4818050   -0.3085540  
O    -0.4326760    5.5014530   -0.2621450  
C     1.8630590    4.6623780   -0.1315790  
H     4.8392120    4.0683090    0.2620780  
H     3.0219660    0.3425970   -0.5194490  
H    -1.7714570    4.0300730   -0.6341240  
H     0.0185510    6.3459330   -0.1182060  
H     2.2692560    5.6528710    0.0628520  
C     6.8266580    1.6208180   -0.3960480  
C     5.5758280    1.2024870    0.0047420  
C     5.7463990   -0.1295540    0.5474850  
C     7.1227690   -0.4525920    0.4374160  
N     7.7546650    0.6361530   -0.1314780  
C     7.6521950   -1.6736700    0.8730760  
C     6.7757890   -2.5872890    1.4370440  
O     7.2384990   -3.7943750    1.8751450  
C     5.3969540   -2.2757170    1.5730390  
O     4.6553040   -3.2780820    2.1688070  
C     4.8783700   -1.0680700    1.1430510  
H     8.7354990    0.6877230   -0.3571260  
H     8.7054850   -1.9219220    0.7904110  
H     6.4798690   -4.2724660    2.2522630  
H     3.7364290   -2.9873970    2.2674810  
H     3.8237150   -0.8460280    1.2911900  
H     7.1182730    2.5453820   -0.8732320  
C     0.1851380    0.7367120   -0.9589870  
C     0.7831590   -0.3752350   -1.5345370  
C    -0.1897620   -1.4218050   -1.5713030  
C    -1.3861140   -0.8945700   -1.0156280  
N    -1.1243610    0.4048370   -0.6547980  
C    -2.5838980   -1.6396820   -0.8845340  
C    -2.4958190   -2.9780020   -1.2902210  
O    -3.5866830   -3.8088990   -1.1766250  
C    -1.3079320   -3.5181920   -1.8386930  
O    -1.4202400   -4.8538860   -2.1908320  
C    -0.1620950   -2.7638250   -1.9985770  
H     1.7717350   -0.4150350   -1.9707690  
H    -1.7733630    1.0411250   -0.2185080  
H    -3.3281050   -4.6661590   -1.5585860  
H    -0.6331520   -5.1223620   -2.6868240  
H     0.7370730   -3.2030090   -2.4255820  
C    -3.8156870   -1.0419670   -0.3714350  
C    -4.2289900    0.2827450   -0.3552220  
C    -5.5193590    0.3281420    0.2579710  
C    -5.8592900   -1.0082640    0.6036250  
N    -4.8081990   -1.8096580    0.2247940  
C    -7.0723190   -1.3433730    1.2190560  
C    -7.9587050   -0.3133050    1.4915020  
O    -9.1575710   -0.5842360    2.0903440  
C    -7.6350940    1.0284250    1.1552840  
O    -8.6198400    1.9421210    1.4929090  
C    -6.4378660    1.3581010    0.5489220  
H    -3.7076510    1.1195860   -0.7985650  
H    -4.7968570   -2.8186790    0.2094640  
H    -7.3359210   -2.3623190    1.4835900  
H    -9.6250840    0.2630790    2.1865820  
H    -8.3418050    2.8272870    1.2157050  
H    -6.2141070    2.3943240    0.3012480  
