64


C    -2.1983580   -2.1250810    2.8493380  
C    -2.1246840   -1.8464210    1.5045540  
C    -1.8531200   -3.0823780    0.8168390  
C    -1.7720000   -4.0852580    1.8149390  
N    -1.9740610   -3.4722430    3.0374930  
C    -1.5145780   -5.4287050    1.5120210  
C    -1.3372950   -5.7604710    0.1785670  
O    -1.0900010   -7.0539180   -0.1721680  
C    -1.4126030   -4.7638240   -0.8339400  
O    -1.2105290   -5.2535650   -2.1083380  
C    -1.6638520   -3.4390070   -0.5335530  
H    -1.9883570   -3.9427990    3.9286660  
H    -1.4532880   -6.2025970    2.2702580  
H    -1.0031670   -7.0798910   -1.1408800  
H    -1.3350280   -4.5425840   -2.7544570  
H    -1.7242060   -2.6920730   -1.3213330  
H    -2.3991180   -1.4636240    3.6795070  
C    -1.4245960    0.5155050    1.1943430  
C    -1.8290610    1.6271860    0.4831600  
C    -2.9765790    1.2096340   -0.2918170  
C    -3.2086090   -0.1559400    0.0045620  
N    -2.2467500   -0.5645240    0.9236010  
C    -4.2516430   -0.8923180   -0.5727630  
C    -5.0669660   -0.2364970   -1.4809140  
O    -6.0989800   -0.9027850   -2.0767660  
C    -4.8411300    1.1291800   -1.8000660  
O    -5.7349570    1.6414840   -2.7229750  
C    -3.8158080    1.8526300   -1.2226150  
H    -4.4343860   -1.9330590   -0.3309520  
H    -6.5562090   -0.2658300   -2.6525120  
H    -5.5640990    2.5872410   -2.8431150  
H    -3.6760860    2.9024240   -1.4633900  
H    -0.6254210    0.4071690    1.9141500  
C     2.4399620    2.5771580    0.0676730  
C     2.3373340    3.9537080    0.1917680  
C     0.9632600    4.2675100    0.3924800  
C     0.2499330    3.0384920    0.3874590  
N     1.1702000    2.0232560    0.2300280  
C    -1.1534850    2.9359690    0.5047950  
C    -1.8234450    4.1526260    0.6489030  
O    -3.1795230    4.1726100    0.7866110  
C    -1.1241700    5.3946370    0.6738140  
O    -1.9580740    6.4841700    0.8331650  
C     0.2465540    5.4729980    0.5568370  
H     3.1687520    4.6452850    0.1807750  
H     0.9034200    1.0965820   -0.0752310  
H    -3.4389360    5.1003440    0.9280330  
H    -1.4279340    7.2892080    0.9290400  
H     0.7546170    6.4343770    0.5725400  
C     3.5967770    1.7534270   -0.1387110  
C     4.8335590    2.0763520   -0.6403230  
C     5.6466030    0.8935860   -0.6322700  
C     4.7947570   -0.1851380   -0.0747960  
N     3.5401600    0.3737880    0.1459440  
C     5.2160890   -1.4513260    0.1552730  
C     6.5920810   -1.8009630   -0.1993790  
O     7.0538200   -2.9189100   -0.0286420  
C     7.4994010   -0.6868460   -0.8377750  
O     8.6475620   -0.9729770   -1.1503070  
C     6.9321750    0.6446910   -1.0169340  
H     5.1204420    3.0435270   -1.0275620  
H     4.5817920   -2.2272220    0.5736620  
H     7.5730640    1.4121210   -1.4403780  
H     2.9237110    0.0098910    0.8602630  
