62


C     3.8446660   -0.1737230    2.6835120  
C     3.2343860   -0.4255770    1.4734640  
C     4.2727950   -0.3373950    0.4683160  
C     5.4813840   -0.0297300    1.1436890  
N     5.1867350    0.0668530    2.4896900  
C     6.7016530    0.1415470    0.4781880  
C     6.7033600    0.0029940   -0.9003990  
O     7.8658440    0.1507750   -1.5994310  
C     5.5010660   -0.2907030   -1.5973250  
O     5.6600520   -0.3835160   -2.9674750  
C     4.2976940   -0.4536740   -0.9369250  
H     5.8541220    0.2595380    3.2198950  
H     7.6270560    0.3728230    0.9957770  
H     7.6571160   -0.0027720   -2.5371600  
H     4.8402130   -0.7099830   -3.3669050  
H     3.3910110   -0.6671570   -1.4974840  
H     3.4181260   -0.1682500    3.6766590  
C     0.7747220    0.0013300    1.8567520  
C     1.8068380   -0.6856410    1.2878280  
C     1.1997900   -1.7413550    0.4786460  
C    -0.2685110   -1.5941470    0.6181370  
N    -0.4641590   -0.5099900    1.4549880  
C    -1.2085240   -2.3801440    0.0096800  
C    -0.6937600   -3.4388260   -0.8874140  
O    -1.4146590   -4.1085240   -1.6058510  
C     0.8592170   -3.6760450   -0.9611840  
O     1.2737130   -4.6208740   -1.6154780  
C     1.7418050   -2.7449210   -0.2617500  
H     2.8127670   -2.8969860   -0.3432830  
H     0.8106030    0.8889140    2.4760510  
H    -1.3386800   -0.3291980    1.9256760  
C    -3.6627430    1.2360930   -0.6912550  
C    -4.8931000    0.6930710   -0.4149690  
C    -4.6698350   -0.6852640   -0.0797450  
C    -3.2728650   -0.9173370   -0.1553270  
N    -2.6798230    0.2706580   -0.5389240  
C    -2.6650910   -2.1587830    0.1333080  
C    -3.5357750   -3.1842520    0.5143300  
O    -3.0337630   -4.3935920    0.8696720  
C    -4.9389370   -2.9715010    0.5853570  
O    -5.6435320   -4.0890130    0.9854970  
C    -5.5134800   -1.7484360    0.2972060  
H    -5.8331270    1.2269250   -0.4046050  
H    -1.7109050    0.3833300   -0.7957140  
H    -3.7860050   -4.9949010    1.0094710  
H    -6.5941580   -3.9224550    0.9038550  
H    -6.5902230   -1.6125040    0.3707070  
C    -3.9162140    3.3304180   -2.0270830  
C    -3.3943630    4.5810420   -2.0650670  
C    -2.3681740    4.6551500   -1.0446940  
C    -2.3454160    3.3245560   -0.3916980  
N    -3.3030630    2.5463190   -1.0383750  
C    -1.5310640    2.9915610    0.6419080  
C    -0.5885570    3.9845670    1.1380070  
O     0.1966400    3.7557160    2.0486810  
C    -0.5893010    5.4031620    0.4608360  
O     0.1824120    6.2558400    0.8690200  
C    -1.5295780    5.6454220   -0.6406600  
H    -3.6820130    5.3734590   -2.7406380  
H    -1.5374000    2.0141480    1.1063220  
H    -1.5242330    6.6316320   -1.0947740  
H    -4.6902680    2.8812880   -2.6346040  
