62


C     3.6466870    0.1392910    0.0107060  
C     2.2734030    0.2926530   -0.0966600  
C     1.9598200    1.6784930    0.1006310  
C     3.1962870    2.3443640    0.3172070  
N     4.1946690    1.3972910    0.2478870  
C     3.2994420    3.7266240    0.4987870  
C     2.1230750    4.4550490    0.4225600  
O     2.1440350    5.8059640    0.5619790  
C     0.8678260    3.8219270    0.2011460  
O    -0.1902120    4.6960030    0.1794400  
C     0.7457870    2.4339200    0.0792760  
H     1.5875010   -0.4904130   -0.3826590  
H     5.1698580    1.5506320    0.4582740  
H     4.2450620    4.2342030    0.6585540  
H     1.2210580    6.0971330    0.4268050  
H    -0.7881590    4.4062840   -0.5521300  
C    -0.8178310   -1.0113560    2.2691620  
C    -2.0234710   -1.1742100    1.6637720  
C    -2.1563740   -0.1160580    0.6818890  
C    -0.9066410    0.6745400    0.7593890  
N    -0.1567160    0.0983890    1.7604300  
C    -0.5704820    1.7611670   -0.0202580  
C    -1.6278420    2.2131450   -0.9181660  
O    -1.5729760    3.2561530   -1.5724520  
C    -2.9576010    1.3813830   -1.0548680  
O    -3.8182530    1.8129140   -1.7976060  
C    -3.1534270    0.1808990   -0.2104720  
H    -2.7428860   -1.9533750    1.8646160  
H    -0.3542260   -1.6005960    3.0493720  
H     0.8135840    0.3298170    1.9247600  
C    -6.3689950   -0.8147860    2.6488530  
C    -7.1924400   -1.5131200    1.8260170  
C    -6.5646100   -1.5544800    0.5212680  
C    -5.2856990   -0.8158420    0.6560950  
N    -5.2227300   -0.4062610    1.9742380  
C    -4.3986410   -0.5859730   -0.3583470  
C    -4.7321600   -1.1751870   -1.6751590  
O    -3.9654270   -1.1415000   -2.6208120  
C    -6.1004190   -1.9307800   -1.8419290  
O    -6.3979870   -2.3645210   -2.9435870  
C    -6.9549240   -2.0895770   -0.6668850  
H    -8.1433950   -1.9522990    2.0898100  
H    -7.8939270   -2.6200570   -0.7916320  
H    -6.4936880   -0.5629980    3.6938030  
H    -4.4944140    0.1783800    2.3537390  
C     2.8886570   -4.2074640    0.8947770  
C     2.7527370   -2.8522970    0.7456050  
C     3.9982050   -2.3499610    0.2328250  
C     4.8641760   -3.4710080    0.1009370  
N     4.1597670   -4.5843830    0.5073600  
C     6.1856120   -3.3778880   -0.3460860  
C     6.6449950   -2.1131460   -0.6820530  
O     7.9158300   -1.9526510   -1.1455750  
C     5.8040140   -0.9819540   -0.5634510  
O     6.4180620    0.2216870   -0.9329610  
C     4.4834780   -1.0557620   -0.1051690  
H     1.8675410   -2.2820290    0.9808830  
H     4.5174590   -5.5265820    0.5120790  
H     6.8396950   -4.2377470   -0.4457570  
H     8.0145530   -1.0038000   -1.3453090  
H     5.8291330    0.6948630   -1.5450470  
H     2.1798860   -4.9446940    1.2446250  
