62


C    -0.9241900    0.1230520   -0.0018560  
C    -0.7009110    1.4880060    0.0241460  
C    -1.8279170    2.0980680   -0.6690720  
C    -2.6788060    1.0516880   -1.0927640  
N    -2.1022400   -0.1435540   -0.6622680  
C    -3.8506760    1.2458830   -1.8269690  
C    -4.1778520    2.5532940   -2.1511540  
O    -5.3092870    2.8168000   -2.8597010  
C    -3.3371650    3.6249790   -1.7475880  
O    -3.7923140    4.8652450   -2.1449280  
C    -2.1796310    3.4156170   -1.0223660  
H    -4.4896420    0.4267690   -2.1365170  
H    -5.3643140    3.7822330   -2.9690170  
H    -3.2157760    5.5546470   -1.7829630  
H    -1.5718050    4.2566200   -0.7072900  
H    -0.3660450   -0.6822370    0.4503580  
C     3.6341620    0.3507190    0.2636330  
C     2.2952090    0.3629770   -0.0632990  
C     1.7326130    1.5156810    0.6029740  
C     2.8875450    2.0997220    1.3322270  
N     3.9871860    1.4280340    1.1394270  
C     2.7610290    3.2865390    2.1413280  
C     1.5525420    3.8877160    2.1752730  
O     1.2882260    5.0143930    2.8597500  
C     0.3648800    3.3429010    1.4242180  
O    -0.6835460    3.9816870    1.5273340  
C     0.4830360    2.0832880    0.6345060  
H     1.7943180   -0.2557410   -0.7949780  
H     3.6219870    3.6780990    2.6711360  
H     0.3356890    5.1942260    2.6998610  
C     3.3932740   -3.9712300   -0.3798270  
C     4.6852170   -4.2284850   -0.7079020  
C     5.3936330   -2.9653920   -0.6864140  
C     4.3933450   -1.9381890   -0.3269310  
N     3.1965980   -2.6068190   -0.1843950  
C     4.6529490   -0.6008260   -0.1366040  
C     6.0498390   -0.1666660   -0.3995900  
O     6.3903690    0.9995100   -0.4388620  
C     7.1338140   -1.2610150   -0.7222890  
O     8.2996770   -0.9140980   -0.8281030  
C     6.7012740   -2.6462600   -0.8909410  
H     5.1112790   -5.1939930   -0.9384830  
H     7.4549160   -3.3868800   -1.1407350  
H     2.5593960   -4.6529410   -0.2770010  
H     2.3792270   -2.1807060    0.2287260  
C    -2.4271820   -2.2056610   -1.9461310  
C    -3.1294230   -3.3653900   -1.7817420  
C    -3.8135400   -3.2856640   -0.5174180  
C    -3.4922430   -2.0342160    0.0612240  
N    -2.6363650   -1.3931810   -0.8307570  
C    -3.9813600   -1.6096780    1.2997850  
C    -4.8243540   -2.4797330    1.9751510  
O    -5.3361790   -2.1238900    3.1868330  
C    -5.1619250   -3.7426120    1.4169400  
O    -6.0068340   -4.4921840    2.2116660  
C    -4.6705790   -4.1514280    0.1909380  
H    -3.1622110   -4.1876910   -2.4834770  
H    -3.7355370   -0.6458210    1.7313920  
H    -5.9093290   -2.8513190    3.4847480  
H    -6.2404430   -5.3136090    1.7547130  
H    -4.9435250   -5.1229780   -0.2162170  
H    -1.7949770   -1.8558360   -2.7491290  
