66


C     5.4137780    0.9427120   -2.0616540  
C     6.4432380    0.1791150   -2.5421150  
C     6.7627460   -0.7864040   -1.5286090  
C     5.8806560   -0.5562850   -0.4416360  
N     5.0583990    0.5123950   -0.7842000  
C     5.8948520   -1.3357170    0.7211170  
C     6.8246390   -2.3605530    0.7916060  
O     6.8863660   -3.1501550    1.9060120  
C     7.7207190   -2.6022940   -0.2831670  
O     8.5880990   -3.6586360   -0.0628480  
C     7.6997640   -1.8346760   -1.4323670  
H     6.9302150    0.3018440   -3.5002440  
H     5.2249090   -1.1549570    1.5534510  
H     7.6080000   -3.7864960    1.7645470  
H     9.2016980   -3.7293490   -0.8086780  
H     8.3931250   -2.0413980   -2.2457460  
H     4.9078800    1.7941770   -2.4952370  
C     0.8260150    0.4592540   -1.7393940  
C     0.3639660    1.1289590   -0.6227260  
C     1.5326630    1.4380460    0.1722140  
C     2.6537890    0.9286630   -0.5239050  
N     2.1993260    0.3413990   -1.6837140  
C     3.9694120    1.0261200   -0.0339230  
C     4.1457070    1.6530320    1.1969720  
O     5.3933780    1.7917260    1.7210520  
C     3.0219910    2.1499650    1.9112100  
O     3.3598250    2.7377290    3.1162190  
C     1.7343210    2.0562740    1.4217610  
H     2.7898790   -0.0926790   -2.3767570  
H     5.2940180    2.2492430    2.5743950  
H     2.5650500    3.1107310    3.5252570  
H     0.8975330    2.4656920    1.9794670  
H     0.2773190    0.0987560   -2.5985470  
C    -3.0987260   -1.5666010   -0.6924270  
C    -4.0866760   -0.6633350   -0.3583580  
C    -3.4161410    0.6106640   -0.1791220  
C    -2.0371580    0.4026600   -0.4323160  
N    -1.8785370   -0.9302100   -0.7508260  
C    -1.0515020    1.4083830   -0.3215700  
C    -1.5181530    2.6616410    0.0800940  
O    -0.6473580    3.7091370    0.2083780  
C    -2.8928040    2.8858950    0.3545420  
O    -3.1723690    4.1842270    0.7446500  
C    -3.8439610    1.8924560    0.2288030  
H    -0.9822080   -1.3717940   -0.8902880  
H    -1.1801690    4.4891570    0.4429940  
H    -4.1304250    4.2915920    0.8389790  
H    -4.8884890    2.0906740    0.4547540  
H    -3.1867020   -2.6195210   -0.9191380  
C    -6.3435600   -3.8651450    1.8580630  
C    -5.3587570   -3.0628300    1.3439550  
C    -6.0020560   -2.0586830    0.5417830  
C    -7.3983530   -2.3056210    0.6157300  
N    -7.5759660   -3.4138720    1.4200650  
C    -8.3492850   -1.5061120   -0.0306830  
C    -7.8728590   -0.4361630   -0.7704030  
O    -8.7475430    0.3751140   -1.4390170  
C    -6.4826190   -0.1724470   -0.8596570  
O    -6.1765370    0.9167630   -1.6580650  
C    -5.5253960   -0.9579200   -0.2188630  
H    -4.2983940   -3.1635150    1.5256410  
H    -8.4656790   -3.8229130    1.6571500  
H    -9.4168850   -1.6938790    0.0223110  
H    -8.2092010    1.0207220   -1.9290940  
H    -5.2120920    0.9571740   -1.7723990  
H    -6.2743220   -4.7268150    2.5071280  
