60


C     5.5455740   -1.7456940   -1.2413180  
C     4.9503180   -0.7187110   -0.5181000  
C     6.0342480    0.1704020   -0.1268360  
C     7.2339460   -0.3913480   -0.6280580  
N     6.8974590   -1.5517710   -1.3070300  
C     8.4967540    0.1737350   -0.4186420  
C     8.5535430    1.3444590    0.3207200  
O     9.7526290    1.9503410    0.5514880  
C     7.3650440    1.9224800    0.8386390  
O     7.5772560    3.0866040    1.5519230  
C     6.1227790    1.3549450    0.6303590  
H     7.5418920   -2.1287590   -1.8255060  
H     9.4100360   -0.2628870   -0.8096680  
H     9.5691480    2.7612660    1.0573360  
H     6.7236810    3.4972580    1.7563960  
H     5.2297520    1.8371670    1.0117490  
H     5.0794350   -2.5721150   -1.7574090  
C     1.9072280   -3.8255990    0.3308720  
C     3.0686020   -3.1420790    0.1572900  
C     2.7255690   -1.7499030   -0.0365970  
C     1.2482100   -1.6893920    0.0296520  
N     0.8129860   -2.9805540    0.2052000  
C     0.4818040   -0.5435620   -0.0880090  
C     1.2609730    0.7043630   -0.0287700  
O     0.7791770    1.7925070    0.2410270  
C     2.8140410    0.6600710   -0.2649290  
O     3.3741860    1.7273930   -0.4508400  
C     3.5214990   -0.6415000   -0.2517340  
H     4.0660760   -3.5506540    0.2022760  
H     1.7522230   -4.8759630    0.5393670  
H    -0.1134580   -3.1374850    0.6172930  
C    -2.8666980   -2.7428300    1.9165920  
C    -3.9239500   -1.9740030    1.5722870  
C    -3.3836630   -0.9560060    0.6825310  
C    -1.9142770   -1.2524760    0.6149650  
N    -1.6411840   -2.3140140    1.3290510  
C    -0.9828030   -0.4469130   -0.1623750  
C    -1.5812400    0.4891490   -0.9762180  
O    -0.8993430    1.2321080   -1.8557070  
C    -3.0372880    0.7967560   -0.9528820  
O    -3.4441000    1.7193270   -1.6596210  
C    -3.9527470    0.0135510   -0.0726770  
H    -4.9563340   -2.0852180    1.8697010  
H    -1.5536430    1.8552090   -2.2420380  
H    -2.8533460   -3.6157380    2.5578130  
C    -6.9811800    1.2866930    2.9712680  
C    -5.8120410    0.8918330    2.4120160  
C    -6.1160920    0.6965980    0.9997000  
C    -7.5714830    1.0439530    0.8913760  
N    -8.0682250    1.3852830    2.0453680  
C    -8.2701010    1.0008790   -0.3656520  
C    -7.5704490    0.6316380   -1.4635890  
O    -8.0972850    0.5332150   -2.6932630  
C    -6.1151600    0.2529950   -1.3912950  
O    -5.5882720   -0.1644540   -2.4171130  
C    -5.3881510    0.3399420   -0.0887530  
H    -4.8545060    0.7520200    2.8921510  
H    -9.3227360    1.2568990   -0.4104770  
H    -7.3670080    0.2204060   -3.2708680  
H    -7.1693010    1.5331010    4.0096010  
