62


C    -4.0183350   -0.8034600   -0.0962090  
C    -4.0393440   -2.1768580   -0.1688700  
C    -2.6923370   -2.6285710   -0.3629840  
C    -1.8668390   -1.4791450   -0.4155250  
N    -2.6939850   -0.3755370   -0.2990050  
C    -0.4577770   -1.5338110   -0.5574700  
C     0.0861680   -2.8283530   -0.6262030  
O     1.4339520   -3.0041530   -0.7478150  
C    -0.7329960   -3.9819880   -0.5994310  
O    -0.0210710   -5.1610040   -0.7065450  
C    -2.1070340   -3.9022830   -0.4783770  
H    -4.9267320   -2.7924700   -0.1309870  
H    -2.3600020    0.5107230    0.0587200  
H     1.6004270   -3.9630090   -0.7777570  
H    -0.6258390   -5.9157970   -0.6565850  
H    -2.7146120   -4.8042460   -0.4556590  
C     0.3559120   -0.3223660   -0.6161240  
C    -0.0273480    0.9587030   -0.9473070  
C     1.1243060    1.8101660   -0.8556510  
C     2.2409260    0.9380990   -0.4146440  
N     1.7132600   -0.3260990   -0.2683110  
C     3.5127890    1.3824280   -0.1552320  
C     3.7936130    2.7950800   -0.5144030  
O     4.9219580    3.2555700   -0.5429840  
C     2.6036960    3.7364920   -0.9172570  
O     2.8334650    4.9262660   -1.0829290  
C     1.2855140    3.1452060   -1.0773850  
H    -0.9996810    1.2796540   -1.2873300  
H     0.4644810    3.7954190   -1.3639840  
H     2.2987510   -1.1535390   -0.3580820  
C     5.0648050   -2.6415170   -1.1845460  
C     6.1832710   -2.7145340   -0.4285340  
C     6.2035280   -1.4757860    0.3414340  
C     4.9792060   -0.7356410   -0.1160880  
N     4.3188010   -1.4358730   -0.9953700  
C     4.6200790    0.5773740    0.3919250  
C     5.4201640    1.0518130    1.3977970  
O     5.1828610    2.1893140    2.0569340  
C     6.6446310    0.3266920    1.8846100  
O     7.2975870    0.8505740    2.7854940  
C     7.0121820   -0.9722060    1.2909760  
H     6.9142030   -3.5098600   -0.3854390  
H     5.9325740    2.2963090    2.6835720  
H     7.9052130   -1.4603090    1.6689690  
H     4.6890940   -3.3683240   -1.8949960  
C    -7.7354510   -0.8448600    2.4210010  
C    -6.5488470   -1.1760600    1.8196550  
C    -6.1980940   -0.0907360    0.9471550  
C    -7.2223910    0.8851880    1.0715790  
N    -8.1473460    0.3947610    1.9701660  
C    -7.2057350    2.1040160    0.3844470  
C    -6.1284280    2.3443140   -0.4540710  
O    -6.0682780    3.5063200   -1.1656130  
C    -5.0905120    1.3905720   -0.5947470  
O    -4.0951140    1.7795860   -1.4797130  
C    -5.0957400    0.1701330    0.0885220  
H    -5.9819490   -2.0785670    1.9937740  
H    -8.9822100    0.8760810    2.2649030  
H    -7.9918100    2.8463470    0.4769380  
H    -5.2729970    3.4554630   -1.7246010  
H    -3.6204710    0.9886570   -1.7876250  
H    -8.3278920   -1.3916630    3.1409270  
