60


C    -1.4995120   -3.9886930   -1.1919430  
C    -1.6686270   -2.7211040   -0.6576610  
C    -3.0421940   -2.6528580   -0.1921220  
C    -3.6393790   -3.9018810   -0.4831070  
N    -2.6696260   -4.6892750   -1.0857480  
C    -4.9706270   -4.2005870   -0.1705950  
C    -5.7199700   -3.2125690    0.4515120  
O    -7.0221980   -3.4468370    0.7674910  
C    -5.1337200   -1.9581440    0.7709950  
O    -5.9837080   -1.0816030    1.4087130  
C    -3.8145080   -1.6761230    0.4684250  
H    -2.8147530   -5.6261120   -1.4310420  
H    -5.4286060   -5.1579500   -0.3963020  
H    -7.3740150   -2.6376320    1.1779140  
H    -5.5610720   -0.2103420    1.4864320  
H    -3.3889260   -0.7263950    0.7762540  
H    -0.6320650   -4.4233750   -1.6673440  
C    -0.6809640   -1.6739230   -0.6076420  
C     0.6942160   -1.6939160   -0.6525550  
C     1.1768250   -0.3421050   -0.5571320  
C    -0.0260350    0.5062530   -0.4405700  
N    -1.1114180   -0.3484720   -0.4459060  
C    -0.0559780    1.8685650   -0.3337520  
C     1.2526580    2.5413310   -0.2820760  
O     1.3789340    3.7316100   -0.0590600  
C     2.5539280    1.6717740   -0.4466020  
O     3.6222080    2.2614070   -0.4886430  
C     2.4444380    0.2024220   -0.5516470  
H     1.3066280   -2.5832240   -0.6714570  
H    -2.0335450   -0.0401310   -0.7201840  
C    -3.3984030    1.6587710    2.5343760  
C    -4.2271020    2.5903070    1.9898380  
C    -3.5512960    3.1433860    0.8293650  
C    -2.2597910    2.4259700    0.7254460  
N    -2.2411890    1.5209800    1.7766040  
C    -1.3059200    2.6399210   -0.2307920  
C    -1.6155710    3.6773320   -1.2443060  
O    -0.9062740    3.8798280   -2.2120280  
C    -2.9508250    4.4973370   -1.1056470  
O    -3.1684940    5.4003230   -1.8968910  
C    -3.8881790    4.1304690   -0.0429130  
H    -5.1841190    2.9058320    2.3803500  
H    -4.8206210    4.6826190    0.0229390  
H    -3.5273810    1.0630230    3.4290980  
H    -1.4281170    0.9873970    2.0449600  
C     3.8127070   -1.5832510   -1.6814370  
C     3.6543530   -0.6003810   -0.7445810  
C     4.9130000   -0.5544740    0.0098440  
C     5.7901750   -1.5981920   -0.5760120  
N     5.0575090   -2.1871750   -1.5892140  
C     7.0503030   -1.8809730   -0.1585210  
C     7.5915630   -1.1276910    0.9667440  
O     8.7112730   -1.3120850    1.4197330  
C     6.6708950   -0.0389720    1.6276890  
O     7.0873290    0.5797890    2.5935410  
C     5.3340610    0.1897930    1.0626420  
H     7.6712180   -2.6471620   -0.6128470  
H     4.7334530    0.9753200    1.5053790  
H     3.1156430   -1.8981050   -2.4465240  
H     5.4236620   -2.8623910   -2.2421840  
