60


C    -4.0323790    0.8260680   -0.4527570  
C    -4.2824180    2.1578570   -0.7509970  
C    -5.6731980    2.3966760   -0.5592330  
C    -6.2526510    1.1660180   -0.1390900  
N    -5.2326980    0.2397610   -0.0448630  
C    -7.6188920    1.0243870    0.1209650  
C    -8.4174270    2.1480090   -0.0340140  
O    -9.7544030    2.0670070    0.2042730  
C    -7.8538360    3.3932050   -0.4363390  
O    -8.7810080    4.4103410   -0.5346350  
C    -6.5052180    3.5298340   -0.6942370  
H    -3.5297470    2.8839900   -1.0262670  
H    -5.3803170   -0.7581380   -0.0148680  
H    -8.0670150    0.0880100    0.4366430  
H   -10.1331430    2.9490580    0.0442560  
H    -8.3431860    5.2245630   -0.8239970  
H    -6.0961570    4.4892920   -1.0036500  
C    -1.6892300    0.3177590   -1.2649170  
C    -2.8013640    0.0845270   -0.5041840  
C    -2.4408390   -1.1101160    0.3003860  
C    -1.0668560   -1.4559020   -0.1499540  
N    -0.6444190   -0.6062470   -1.0505150  
C    -0.3463790   -2.5985510    0.3836890  
C    -0.9763530   -3.3022510    1.3753090  
O    -0.4177860   -4.3440800    2.0080990  
C    -2.3318730   -2.9418190    1.8823030  
O    -2.8175100   -3.6253080    2.7855990  
C    -3.0452790   -1.7909030    1.2910270  
H    -1.0967550   -4.6603880    2.6436700  
H    -4.0193310   -1.5518730    1.7064680  
H    -1.5522420    1.0984200   -2.0029040  
C     3.6095820   -0.5524380   -0.1267270  
C     2.2964310   -0.8551030    0.1552910  
C     2.0676760   -2.2164050   -0.2333090  
C     3.3619430   -2.7165680   -0.7687900  
N     4.2412650   -1.6649960   -0.6795430  
C     3.5799760   -3.9797360   -1.2191410  
C     2.4744760   -4.9210050   -1.1872130  
O     2.5696260   -6.0874560   -1.5392460  
C     1.0776520   -4.4105270   -0.6786160  
O     0.1202110   -5.1575850   -0.7711570  
C     0.9595820   -3.0245960   -0.1478250  
H     1.5622330   -0.1796930    0.5642110  
H     4.5430300   -4.3234100   -1.5829740  
H     5.2155090   -1.6537390   -0.9448890  
C     4.3564430    0.6599160    0.0600510  
C     3.9597760    1.8684150    0.5701000  
C     5.1286300    2.7091030    0.5170080  
C     6.1952850    1.8306730   -0.0732250  
N     5.7392970    0.6406370   -0.3367200  
C     7.5335010    2.3115240   -0.2920680  
C     7.8021650    3.5928930    0.0542410  
O     8.9962800    4.1769810   -0.0900070  
C     6.7483690    4.5044010    0.6512140  
O     7.0974640    5.6513490    0.9301430  
C     5.3926300    3.9927080    0.8651380  
H     2.9810370    2.1449220    0.9358820  
H     8.2863950    1.6588130   -0.7193050  
H     8.8792670    5.0950870    0.2453580  
H     4.6637600    4.6726840    1.2948050  
