62


C    -5.8942100   -1.2333110    1.2725460  
C    -4.9575780   -0.4992160    0.5620240  
C    -5.6582930    0.6633150    0.0557570  
C    -7.0022010    0.5652090    0.4925520  
N    -7.1119990   -0.5970510    1.2342160  
C    -7.9828860    1.5092930    0.1637200  
C    -7.5954630    2.5786530   -0.6271890  
O    -8.5043160    3.5325090   -0.9764960  
C    -6.2531870    2.6912060   -1.0807610  
O    -6.0236480    3.8098060   -1.8581750  
C    -5.2914830    1.7546020   -0.7564690  
H    -7.9405320   -0.8992620    1.7227380  
H    -9.0121840    1.4321170    0.4985940  
H    -8.0366420    4.1901590   -1.5200780  
H    -5.0885100    3.8424200   -2.1088550  
H    -4.2672260    1.8732350   -1.0953940  
H    -5.7585010   -2.1300500    1.8611740  
C    -3.2999930   -4.4035060   -0.4579080  
C    -1.9632110   -4.0789270   -0.4139310  
C    -1.8682710   -2.6858260   -0.0960360  
C    -3.1946570   -2.2215710    0.0610170  
N    -4.0413350   -3.2869490   -0.1640790  
C    -3.5562180   -0.8898260    0.3792610  
C    -2.4836250   -0.0068330    0.5232990  
O    -2.7099570    1.3012590    0.8417120  
C    -1.1371050   -0.4226880    0.3846990  
O    -0.2507460    0.5825000    0.5894830  
C    -0.7773350   -1.7640730    0.0677350  
H    -1.1606290   -4.7806670   -0.5723180  
H    -5.0453360   -3.2020340   -0.2168340  
H    -1.8280210    1.7101070    0.9250390  
H     0.6724140    0.1858950    0.4950010  
H    -3.7789520   -5.3483800   -0.6715030  
C     0.5988500   -2.1337110   -0.0948950  
C     1.2033430   -3.3008690   -0.5249810  
C     2.6083710   -3.0807810   -0.4813700  
C     2.7649220   -1.6753520    0.0183980  
N     1.5969530   -1.1397540    0.2295570  
C     4.0565080   -1.0443770    0.2176290  
C     5.1294060   -1.8384700   -0.0793230  
O     6.4000200   -1.4599760    0.0770820  
C     5.0089850   -3.2568700   -0.6072920  
O     6.0819670   -3.8338700   -0.8305130  
C     3.7015170   -3.8385580   -0.7926640  
H     0.7291350   -4.2029620   -0.8730390  
H     6.9236830   -2.2447930   -0.2248990  
H     3.6436010   -4.8556000   -1.1657610  
C     3.3676510    0.8788780    1.6949250  
C     4.1555340    0.3315880    0.7202860  
C     5.0538170    1.3986300    0.2757470  
C     4.7216310    2.5921210    1.0948110  
N     3.6992330    2.2020350    1.9365450  
C     5.3261650    3.8025270    0.9870330  
C     6.3740950    3.9671090   -0.0137590  
O     6.9761060    5.0163110   -0.1867340  
C     6.7274040    2.7275880   -0.9127640  
O     7.5897330    2.8455180   -1.7691990  
C     6.0052090    1.4695990   -0.6910550  
H     5.0609460    4.6576190    1.6014040  
H     6.2778540    0.6240680   -1.3101900  
H     2.5711440    0.4113310    2.2560380  
H     3.2383680    2.8030410    2.6016530  
