62


C    -5.9014550   -0.8020670    3.3038570  
C    -6.7714580   -1.4975410    2.5058520  
C    -6.1733820   -1.5840710    1.2029660  
C    -4.9222380   -0.9199540    1.2764110  
N    -4.7764680   -0.4657730    2.5720690  
C    -4.0473510   -0.7790390    0.1774100  
C    -4.4848170   -1.3367240   -1.0254240  
O    -3.6937440   -1.2605010   -2.1357950  
C    -5.7345290   -2.0028710   -1.1162500  
O    -6.0050320   -2.4962040   -2.3802600  
C    -6.5748190   -2.1386900   -0.0282220  
H    -7.7265940   -1.9038720    2.8093640  
H    -4.0321020    0.1395560    2.8815400  
H    -4.1601100   -1.7260910   -2.8518360  
H    -6.8339860   -2.9963620   -2.3605700  
H    -7.5274770   -2.6552060   -0.1276440  
H    -5.9807090   -0.5222300    4.3449450  
C    -1.7814700   -0.3711300    1.2326510  
C    -2.7456800   -0.0996660    0.3063670  
C    -2.2367900    1.0122680   -0.4950310  
C    -0.9006470    1.3509960    0.0495320  
N    -0.6991830    0.4948130    1.1156610  
C    -0.0743230    2.3298800   -0.4289860  
C    -0.5585530    3.0748080   -1.6108550  
O     0.1284390    3.8787340   -2.2171110  
C    -2.0152620    2.7958160   -2.1335650  
O    -2.4532860    3.4924580   -3.0364630  
C    -2.7800040    1.7090070   -1.5256200  
H    -3.7620940    1.4870190   -1.9268230  
H    -1.7672940   -1.1503060    1.9835830  
H     0.1734720    0.3971380    1.6114750  
C     3.4788740   -0.2639520    0.2263660  
C     4.3241280    0.7334450    0.7110860  
C     3.5851520    1.9503470    0.7419510  
C     2.2799600    1.6579130    0.2552690  
N     2.2476530    0.3157570   -0.0438030  
C     1.2615300    2.6278320    0.1294810  
C     1.6007300    3.9197050    0.5408220  
O     0.6631570    4.8991540    0.5187830  
C     2.9027640    4.2274220    1.0283570  
O     3.0531790    5.5511930    1.3896740  
C     3.8908150    3.2715260    1.1324300  
H     5.3222500    0.5874000    1.1004510  
H     1.4659460   -0.2260050   -0.3882140  
H     1.1062680    5.7363210    0.7420780  
H     3.9806880    5.7258220    1.6072270  
H     4.8767760    3.5320390    1.5114460  
C     7.1753940   -2.5453300   -0.4182180  
C     6.6630110   -3.8034530   -0.4231700  
C     5.2314370   -3.6879990   -0.2468870  
C     4.9521340   -2.2457560   -0.1212800  
N     6.1749680   -1.6044770   -0.1913540  
C     3.7054700   -1.6818170    0.0274720  
C     2.5738530   -2.6304110   -0.0361570  
O     1.4021390   -2.2733700   -0.0737240  
C     2.8619320   -4.1805780   -0.0599400  
O     1.9045870   -4.9363640    0.0213770  
C     4.2382810   -4.6232950   -0.1923910  
H     7.2173410   -4.7232470   -0.5404540  
H     4.4296900   -5.6899050   -0.2492940  
H     8.1995730   -2.2190390   -0.5420540  
H     6.2579280   -0.6157800   -0.3827930  
