62


C     6.8591280   -1.2978050   -0.4651130  
C     6.8720960   -2.6607640   -0.3338580  
C     5.5043020   -3.0972740   -0.3078460  
C     4.7016860   -1.9321730   -0.4305450  
N     5.5501980   -0.8525690   -0.5371770  
C     3.2953370   -1.9920880   -0.4433980  
C     2.7009240   -3.2488030   -0.3383470  
O     1.3400040   -3.3583590   -0.3493500  
C     3.4985110   -4.4158510   -0.2347900  
O     2.7552980   -5.5766660   -0.1552320  
C     4.8793860   -4.3561100   -0.2156550  
H     7.7520100   -3.2851600   -0.2666260  
H     5.2619020    0.1136180   -0.5513380  
H     1.1334220   -4.3040170   -0.2397020  
H     3.3371520   -6.3282360    0.0314510  
H     5.4682950   -5.2672910   -0.1379510  
H     7.6770580   -0.5934750   -0.5171540  
C     1.5414800   -0.6308310   -1.5874540  
C     0.8982090    0.5552160   -1.4427710  
C     1.4350760    1.1956750   -0.2599530  
C     2.4627800    0.2686200    0.2743280  
N     2.4903060   -0.8289200   -0.5806860  
C     3.2112850    0.5029860    1.3850570  
C     3.0093650    1.7588950    2.0958480  
O     3.6666580    2.0870230    3.0719130  
C     1.8849390    2.7331180    1.5885020  
O     1.6281920    3.7180600    2.2561490  
C     1.1447640    2.3895140    0.3458570  
H     0.1463620    0.9613480   -2.1021750  
H     3.9457660   -0.1965200    1.7682010  
H     1.4246290   -1.3917540   -2.3462200  
C    -3.1843420    1.6704030   -0.1906250  
C    -3.5278380    2.9521220   -0.5884620  
C    -2.3325590    3.7262820   -0.6276540  
C    -1.2669500    2.8683510   -0.2419850  
N    -1.8015160    1.6201670   -0.0115740  
C     0.0724540    3.2925370   -0.1222970  
C     0.3154080    4.6313810   -0.4336410  
O     1.5829110    5.1088200   -0.3998580  
C    -0.7385010    5.5015710   -0.8385110  
O    -0.3081020    6.7807640   -1.1194580  
C    -2.0446620    5.0728840   -0.9405970  
H    -4.5222680    3.2756260   -0.8638200  
H    -1.3239930    0.8971820    0.5075550  
H     1.5415690    6.0675260   -0.5641940  
H    -1.0705100    7.3559450   -1.2819500  
H    -2.8310770    5.7573450   -1.2501540  
C    -3.9896930    0.4933570   -0.0292540  
C    -5.3416840    0.3570290    0.1640580  
C    -5.6453420   -1.0442480    0.2464300  
C    -4.3532880   -1.7541910    0.0814350  
N    -3.3725530   -0.7746390   -0.0171050  
C    -4.2195380   -3.1012280    0.0378140  
C    -5.4176070   -3.9243830    0.1987230  
O    -5.3879540   -5.1455630    0.1751800  
C    -6.7926180   -3.1953320    0.4225440  
O    -7.7997390   -3.8745490    0.5693350  
C    -6.8066390   -1.7362870    0.4315490  
H    -6.0434820    1.1691790    0.2888150  
H    -3.2656790   -3.6033410   -0.0936360  
H    -7.7643110   -1.2432120    0.5681620  
H    -2.5052510   -0.9447050   -0.5092280  
