60


C     1.9324930   -0.9427750   -1.5048900  
C     2.1430510   -2.2879560   -1.4189120  
C     3.2561820   -2.4915440   -0.5286820  
C     3.6991950   -1.2136700   -0.1091680  
N     2.8745720   -0.2592660   -0.7277030  
C     4.7329110   -1.0534540    0.8194040  
C     5.3503540   -2.1983730    1.3004080  
O     6.3707930   -2.0876140    2.2001010  
C     4.9334270   -3.4835400    0.8702390  
O     5.6437350   -4.5238220    1.4358280  
C     3.8962470   -3.6404690   -0.0316520  
H     1.5961050   -3.0515580   -1.9569010  
H     5.0815780   -0.0866590    1.1578930  
H     6.6722360   -2.9886630    2.4074460  
H     5.3184750   -5.3660670    1.0851530  
H     3.5750850   -4.6340540   -0.3378360  
H     1.2131080   -0.3798810   -2.0799870  
C    -0.2959200    2.7392330   -0.0086970  
C     0.3559800    1.5383770   -0.1695780  
C     1.7419360    1.8689410   -0.3675420  
C     1.7836050    3.3556050   -0.3022710  
N     0.6060970    3.8623060   -0.0900870  
C     3.0164020    4.0927840   -0.4413470  
C     4.1490840    3.3839340   -0.6397930  
O     5.3691370    3.9310990   -0.7799910  
C     4.1512820    1.8792520   -0.7413360  
O     5.2250650    1.3390290   -0.9983560  
C     2.8767040    1.1329040   -0.5621300  
H    -0.0884410    0.5579240   -0.1349730  
H     3.0132980    5.1752160   -0.3811160  
H     5.9742810    3.1761440   -0.9508570  
C    -3.5545450   -0.1792120    0.1187910  
C    -4.6372380    0.6257290    0.3658250  
C    -4.1149000    1.9676790    0.4495100  
C    -2.6402860    1.8191200    0.2231630  
N    -2.3320460    0.5770330    0.0316920  
C    -1.7105570    2.9538720    0.2202490  
C    -2.3000710    4.1809090    0.4455760  
O    -1.6611670    5.3460890    0.4969390  
C    -3.7879600    4.3439270    0.6756270  
O    -4.1933770    5.4930630    0.8673650  
C    -4.6718420    3.1796860    0.6662370  
H    -5.6640720    0.3156190    0.4714970  
H    -2.3711510    6.0096030    0.6749460  
H    -5.7306490    3.3504340    0.8338810  
C    -6.7754950   -3.1602480    0.1119360  
C    -6.1034120   -4.3105130   -0.1137280  
C    -4.7054220   -3.9161960   -0.2215110  
C    -4.7189860   -2.4270970   -0.0274690  
N    -5.9328730   -2.0028420    0.1652350  
C    -3.4979250   -1.6170260   -0.0616850  
C    -2.3299900   -2.3240210   -0.2767030  
O    -1.1100800   -1.7974200   -0.3311780  
C    -2.3111320   -3.8227440   -0.4818230  
O    -1.2176080   -4.3491530   -0.6816910  
C    -3.5622710   -4.5904930   -0.4398400  
H    -6.4961030   -5.3139640   -0.1990430  
H    -0.4849110   -2.5438690   -0.4883440  
H    -3.4955260   -5.6638770   -0.5885520  
H    -7.8409290   -3.0228620    0.2514420  
