64


C    -6.9673810   -1.0922340    2.9857600  
C    -8.1547110   -0.8191080    2.3572310  
C    -7.8370260   -0.4251350    1.0148090  
C    -6.4226200   -0.4870930    0.8857450  
N    -5.9229850   -0.8823350    2.1087270  
C    -5.7271910   -0.1419160   -0.2977310  
C    -6.5387450    0.2896220   -1.3462740  
O    -5.9628460    0.6846830   -2.5423260  
C    -7.9478520    0.3570560   -1.2424400  
O    -8.5667050    0.8037100   -2.3978920  
C    -8.6081990    0.0018370   -0.0832150  
H    -9.1394270   -0.8791870    2.7997790  
H    -4.9503570   -1.0817670    2.2876660  
H    -6.6927090    0.9382690   -3.1365680  
H    -9.5248420    0.8355910   -2.2611690  
H    -9.6924960    0.0650810   -0.0201130  
H    -6.7733250   -1.4169380    3.9984110  
C    -2.7498630   -3.3413030    0.7885370  
C    -3.9016240   -2.6505870    0.5134890  
C    -3.5165140   -1.3447450    0.0413610  
C    -2.0981980   -1.3185840    0.0358620  
N    -1.6604680   -2.5448860    0.4933670  
C    -1.3320630   -0.2122550   -0.3877600  
C    -2.0699520    0.8835370   -0.8337940  
O    -1.4319740    1.9916130   -1.3006750  
C    -3.4910290    0.8861440   -0.8346500  
O    -4.0351380    2.0689150   -1.2897990  
C    -4.2455710   -0.1974560   -0.3835140  
H    -4.9068440   -3.0355910    0.6048210  
H    -0.6950140   -2.7716050    0.6745880  
H    -2.1450060    2.6024540   -1.5729490  
H    -4.7668670    1.8422720   -1.9050600  
H    -2.6114290   -4.3484540    1.1557410  
C     0.9330130   -1.1800570   -0.9841030  
C     0.1410070   -0.2370990   -0.3961510  
C     1.0490880    0.7159030    0.2411670  
C     2.4142620    0.2301030   -0.0160310  
N     2.2827120   -0.9505720   -0.7239900  
C     3.5782230    0.8511200    0.3803200  
C     3.3927270    2.1600460    1.0400250  
O     4.3172380    2.9205160    1.3043980  
C     1.9395960    2.6305840    1.4296240  
O     1.8333500    3.6474520    2.0989300  
C     0.8085820    1.8466590    0.9610280  
H    -0.1916020    2.2037260    1.1754790  
H     0.6386670   -2.0269900   -1.5906400  
H     3.0373910   -1.3209500   -1.2856170  
C     4.9035810    0.3059360    0.1572900  
C     5.3205200   -0.9912140   -0.1491100  
C     6.7417510   -0.9778650   -0.2377140  
C     7.1594720    0.3592950    0.0217570  
N     6.0316350    1.1066050    0.2484020  
C     8.5071900    0.7411140    0.0221740  
C     9.4493090   -0.2400800   -0.2404470  
O    10.7755860    0.0747980   -0.2515960  
C     9.0503260   -1.5825800   -0.5007300  
O    10.1092200   -2.4369110   -0.7445080  
C     7.7227350   -1.9587870   -0.5028140  
H     4.6924810   -1.8694860   -0.1975190  
H     5.9668820    2.0678030    0.5614510  
H     8.8294820    1.7579050    0.2199520  
H    11.2651730   -0.7427640   -0.4471390  
H     9.7736670   -3.3332430   -0.8927580  
H     7.4430210   -2.9911700   -0.7043540  
