64


C     1.3250610    1.0219190   -1.9886950  
C     2.6607260    1.1220950   -1.7239630  
C     2.9104370    0.4634440   -0.4673960  
C     1.6717730   -0.0372330   -0.0011570  
N     0.7150500    0.3204060   -0.9478230  
C     1.5256200   -0.7617060    1.1843590  
C     2.6790650   -0.9794920    1.9223650  
O     2.6125990   -1.6664810    3.0988530  
C     3.9338150   -0.4863610    1.4807370  
O     4.9729650   -0.7706640    2.3452900  
C     4.0848580    0.2345070    0.2965340  
H     3.3962680    1.5987580   -2.3559320  
H     0.5711280   -1.1382850    1.5341480  
H     3.5090430   -1.6659730    3.4778810  
H     5.7724950   -0.3094510    2.0395630  
H     0.7275740    1.3744390   -2.8166150  
C    -1.2194740   -1.1155640   -1.3846040  
C    -2.5638110   -1.0648970   -1.1319420  
C    -2.8248960    0.1596340   -0.4270040  
C    -1.5879040    0.8314690   -0.2844170  
N    -0.6203600    0.0280290   -0.8739230  
C    -1.4482160    2.0793830    0.3267840  
C    -2.6007960    2.6773990    0.8121220  
O    -2.5261550    3.8878810    1.4303590  
C    -3.8619640    2.0412960    0.6844360  
O    -4.8919970    2.7596340    1.2441240  
C    -4.0042330    0.7842530    0.0733660  
H    -3.2858840   -1.8092520   -1.4328400  
H    -0.4889150    2.5725500    0.4356560  
H    -3.4220220    4.1107690    1.7389010  
H    -5.7049540    2.2185630    1.2500190  
H    -0.6141110   -1.8584950   -1.8827310  
C     5.6915270    2.0462480   -0.4854540  
C     5.4046430    0.7493080   -0.1137260  
C     6.6558010    0.0203770   -0.2050180  
C     7.6490980    0.9394680   -0.6317080  
N     7.0295310    2.1619250   -0.7958620  
C     8.9833230    0.5701210   -0.8430500  
C     9.3229710   -0.7553680   -0.6231940  
O    10.6090670   -1.1679390   -0.8103980  
C     8.3402760   -1.6945360   -0.2082320  
O     8.8313200   -2.9745510   -0.0414450  
C     7.0237680   -1.3280500   -0.0012500  
H     7.4872890    3.0127180   -1.0836740  
H     9.7440600    1.2713060   -1.1706900  
H    10.6370400   -2.1214360   -0.6192580  
H     8.1103900   -3.5677240    0.2171720  
H     6.2877430   -2.0669450    0.3059370  
H     5.0363090    2.9044630   -0.5299030  
C    -5.3028260    0.1341550   -0.0069490  
C    -5.6437670   -1.1871020    0.0824710  
C    -7.0736140   -1.3093360   -0.0354970  
C    -7.5855250    0.0663360   -0.2176030  
N    -6.4838250    0.9313620   -0.1120390  
C    -8.8814640    0.3779870   -0.4384690  
C    -9.8628450   -0.7122450   -0.4637800  
O   -11.0525300   -0.5208360   -0.6545310  
C    -9.3492840   -2.1766990   -0.2159700  
O   -10.1598940   -3.0915110   -0.2181160  
C    -7.9169390   -2.3787080   -0.0095120  
H    -4.9565380   -1.9964790    0.2816590  
H    -9.2405700    1.3931140   -0.5794610  
H    -7.5678090   -3.3962310    0.1372160  
H    -6.4555220    1.7446520   -0.7200950  
