66


C    -0.0355020    2.1181150   -0.2124540  
C    -1.2543790    1.5343890   -0.4649130  
C    -1.0459260    0.1197590   -0.5932850  
C     0.3360160   -0.1210990   -0.4175960  
N     0.9502960    1.1127150   -0.2400370  
C     0.9271120   -1.4047000   -0.4089260  
C     0.0185990   -2.4626960   -0.5766810  
O     0.4565430   -3.7632000   -0.5567980  
C    -1.3603660   -2.2499820   -0.8050450  
O    -2.0697060   -3.4077670   -1.0385910  
C    -1.9107470   -0.9703350   -0.8222390  
H    -2.1894200    2.0605120   -0.5891400  
H     1.7941640    1.1886910    0.3168950  
H    -0.3326410   -4.3229140   -0.6791380  
H    -3.0160940   -3.2650940   -0.8603400  
C    -2.0602500    5.5395950    1.8759940  
C    -1.7496270    4.3036380    1.3710010  
C    -0.4973130    4.4305600    0.6796720  
C    -0.0901740    5.7845000    0.8093980  
N    -1.0645470    6.4366260    1.5372070  
C     1.1078270    6.2769740    0.2786070  
C     1.9145230    5.3795020   -0.4025260  
O     3.0870500    5.8042860   -0.9588980  
C     1.5361250    4.0213710   -0.5443990  
O     2.4450480    3.2673590   -1.2678930  
C     0.3408710    3.5190360   -0.0186620  
H    -2.3357780    3.4047840    1.4927720  
H    -1.0430230    7.4106200    1.7944410  
H     1.4159130    7.3131270    0.3742640  
H     3.4656350    5.0416490   -1.4305360  
H     2.0255010    2.4247130   -1.5191640  
H    -2.9142870    5.8606080    2.4555470  
C     2.3621900   -1.5983520   -0.2157650  
C     3.4198010   -0.7070480   -0.3593400  
C     4.6246070   -1.4059490   -0.0442940  
C     4.2540430   -2.7361140    0.2909420  
N     2.8864410   -2.8197070    0.1867830  
C     5.1920330   -3.7129880    0.6505560  
C     6.5264570   -3.3406910    0.6721820  
O     7.4836110   -4.2523140    1.0156220  
C     6.9154210   -2.0136930    0.3405090  
O     8.2806970   -1.8002230    0.4104510  
C     5.9898630   -1.0516040   -0.0135120  
H     3.3605040    0.3109190   -0.7155040  
H     2.3240220   -3.6539090    0.2674800  
H     4.9138520   -4.7299100    0.9073450  
H     8.3417710   -3.7967100    0.9703260  
H     8.4741530   -0.8805440    0.1766070  
H     6.3122910   -0.0423630   -0.2629690  
C    -3.8336480   -0.0420670   -2.1169760  
C    -5.1979470   -0.1361720   -2.1084850  
C    -5.5583980   -0.9777870   -1.0027680  
C    -4.3498880   -1.3615910   -0.3639380  
N    -3.2966290   -0.7808180   -1.0647270  
C    -4.3261110   -2.1712430    0.7837310  
C    -5.5446880   -2.6165390    1.2788540  
O    -5.5761180   -3.4035890    2.3923780  
C    -6.7602390   -2.2538180    0.6428400  
O    -7.8853880   -2.7770440    1.2509650  
C    -6.7793320   -1.4408970   -0.4764790  
H    -5.8701630    0.3358520   -2.8118990  
H    -3.4118150   -2.4147670    1.3150140  
H    -6.5108220   -3.5896260    2.5876410  
H    -8.6781990   -2.4592550    0.7942620  
H    -7.7253750   -1.1654520   -0.9388040  
H    -3.1687210    0.4748520   -2.7935990  
