60


C     6.1535520   -0.7648920   -2.9199460  
C     7.1292540   -1.2667240   -2.1001160  
C     6.5966350   -1.2729970   -0.7671290  
C     5.2748470   -0.7611380   -0.8447180  
N     5.0341450   -0.4582910   -2.1669720  
C     4.4544480   -0.5767590    0.2932890  
C     5.0014050   -0.9632030    1.5218930  
O     4.2416420   -0.8900650    2.6480030  
C     6.3138880   -1.4900470    1.6078670  
O     6.6869300   -1.8337980    2.8933610  
C     7.1119520   -1.6433530    0.4900970  
H     8.1145790   -1.5898370   -2.4061570  
H     4.1730620   -0.0763190   -2.5267780  
H     4.8153580   -1.1217060    3.3994890  
H     7.6239880   -2.0784100    2.9058760  
H     8.1178430   -2.0477250    0.5836940  
H     6.1549150   -0.5979450   -3.9876950  
C     0.7341840   -1.5424300   -1.9647460  
C     2.0016460   -1.5827070   -1.4906220  
C     2.1086760   -0.4348550   -0.5974910  
C     0.7621330    0.2120920   -0.6629100  
N    -0.0379030   -0.4595270   -1.4539170  
C     0.4501550    1.4268780    0.0813110  
C     1.4370240    1.8701640    0.9168470  
O     1.2871150    2.9209670    1.7294570  
C     2.8002420    1.2422530    1.0022320  
O     3.6325630    1.8138940    1.6969140  
C     3.1080900    0.0086270    0.2096880  
H     2.7742200   -2.3091240   -1.6978660  
H     2.1691330    3.0700630    2.1368680  
H     0.2652510   -2.2255410   -2.6643910  
C    -3.8849410    0.3245950    0.1161240  
C    -2.5116090    0.3374140    0.2255230  
C    -2.0551370    1.6666240   -0.0302920  
C    -3.2768650    2.4831200   -0.2412520  
N    -4.3422240    1.6157100   -0.1459990  
C    -3.2770530    3.8212110   -0.4711630  
C    -1.9926270    4.4999100   -0.5553710  
O    -1.8803280    5.7050760   -0.7230060  
C    -0.6806600    3.6376600   -0.4492920  
O     0.3823310    4.1787940   -0.7019910  
C    -0.7918520    2.2002510   -0.0985310  
H    -1.8775360   -0.4933820    0.4819310  
H    -4.1827710    4.4072520   -0.5904590  
H    -5.3259220    1.8487470   -0.1046210  
C    -3.1926020   -3.9142790   -0.7239770  
C    -4.4075140   -4.4157640   -0.3886260  
C    -5.2337170   -3.2975160    0.0161630  
C    -4.3768630   -2.0947090   -0.0894100  
N    -3.1528570   -2.5333130   -0.5255680  
C    -4.7866980   -0.8052910    0.1862290  
C    -6.2185410   -0.6276580    0.4737810  
O    -6.7586740    0.4698400    0.5409250  
C    -7.1124810   -1.9009720    0.6931190  
O    -8.2619070   -1.7442700    1.0703250  
C    -6.5322170   -3.2130060    0.4150700  
H    -4.7117940   -5.4513420   -0.4278130  
H    -7.1724930   -4.0825210    0.5255940  
H    -2.3121060   -4.4245580   -1.0905230  
H    -2.4117390   -1.9182160   -0.8437110  
