60


C    -7.7120420    0.3510960    0.5380650  
C    -6.4381320    0.8491510    0.4101460  
C    -5.6774750   -0.1195100   -0.3212850  
C    -6.5528900   -1.2007250   -0.6029350  
N    -7.7861710   -0.8794170   -0.0764440  
C    -6.1492050   -2.3557270   -1.2790060  
C    -4.8253400   -2.4347520   -1.6844270  
O    -4.3939360   -3.5333300   -2.3617340  
C    -3.9202330   -1.3792570   -1.4164820  
O    -2.6572020   -1.6104520   -1.9108610  
C    -4.3152100   -0.2111470   -0.7382910  
H    -6.0897740    1.7863300    0.8170920  
H    -8.6022060   -1.4708950   -0.1038400  
H    -6.8241190   -3.1767390   -1.4982740  
H    -3.4566310   -3.3919520   -2.5821430  
H    -2.1318870   -0.7906060   -1.8827750  
H    -8.5784090    0.7782740    1.0225800  
C    -3.3818000    0.8719600   -0.5012990  
C    -3.5783760    2.2266250   -0.4494470  
C    -2.3192260    2.8746640   -0.2107210  
C    -1.3261350    1.7869170   -0.0956490  
N    -1.9859250    0.5904540   -0.3553660  
C    -0.0125800    1.9886710    0.2102430  
C     0.4679390    3.3793440    0.3248280  
O     1.6427580    3.6482890    0.5177860  
C    -0.5753100    4.5411440    0.1553600  
O    -0.1701610    5.6891960    0.2571380  
C    -1.9608550    4.1877100   -0.1114610  
H    -4.5149350    2.7290710   -0.6399310  
H    -2.6776370    4.9965420   -0.2088670  
H    -1.7031340   -0.2480610    0.1488400  
C     2.1712470    0.8969670   -0.2069660  
C     2.8831650   -0.2092480    0.1608790  
C     2.0339620   -0.9521020    1.0969650  
C     0.7918430   -0.1544540    1.2455980  
N     0.9141110    0.9392660    0.3899340  
C    -0.2231300   -0.4564190    2.0992070  
C    -0.1134080   -1.6643110    2.9167040  
O    -0.9699860   -2.0032020    3.7171520  
C     1.1713620   -2.5442730    2.7462350  
O     1.2778000   -3.5727490    3.3928690  
C     2.2138220   -2.0871360    1.8165990  
H    -1.0756050    0.1930660    2.2691030  
H     3.1035180   -2.6987880    1.7336090  
H     2.4541650    1.6761430   -0.8976300  
C     6.4623460    2.3423540   -0.5417140  
C     5.2281020    1.9388700   -0.1536870  
C     5.1891770    0.5073080   -0.4433900  
C     6.5371430    0.2186420   -1.0090410  
N     7.2755450    1.2910130   -1.0698030  
C     6.9267670   -1.1092170   -1.4120550  
C     6.0244510   -2.1035700   -1.2562600  
O     6.2552630   -3.3891510   -1.5782210  
C     4.6508840   -1.8490670   -0.7032140  
O     3.8897400   -2.8123780   -0.6294680  
C     4.2478760   -0.4679130   -0.2916860  
H     4.4441030    2.5360120    0.2910440  
H     7.9171710   -1.2853250   -1.8167810  
H     5.4228040   -3.8667150   -1.3731550  
H     6.8830230    3.3391000   -0.4853180  
