60


C     5.9224360    3.8442550    1.2604910  
C     7.1922550    3.5873600    0.8161710  
C     7.1399110    2.3594200    0.0735750  
C     5.7919490    1.9171500    0.0977720  
N     5.0696390    2.8488700    0.8157060  
C     5.3563460    0.7225760   -0.5163170  
C     6.3391880   -0.0271210   -1.1654280  
O     5.9979590   -1.1877530   -1.8009720  
C     7.6907790    0.4019210   -1.1976490  
O     8.5235520   -0.4587540   -1.8882700  
C     8.0998640    1.5771000   -0.5974080  
H     8.0647180    4.2007330    0.9942750  
H     4.1070410    2.7374760    1.0939440  
H     6.8129200   -1.5494120   -2.1917370  
H     9.4262260   -0.1078390   -1.8887330  
H     9.1430800    1.8835600   -0.6386260  
H     5.5425870    4.6637290    1.8541050  
C     2.8706330    1.0619870   -0.8598150  
C     3.9420590    0.3081010   -0.4862180  
C     3.3987930   -0.9724790   -0.0282670  
C     1.9272990   -0.8755310   -0.1703680  
N     1.6706410    0.3617670   -0.7068020  
C     1.0535170   -1.8664470    0.1938500  
C     1.6147820   -3.1280320    0.6923330  
O     0.9228740   -4.0928540    0.9782080  
C     3.1768960   -3.2368350    0.8390880  
O     3.6425120   -4.2801230    1.2652980  
C     3.9994410   -2.0909590    0.4503390  
H     5.0750650   -2.1811030    0.5427720  
H     2.8570050    2.0608940   -1.2756910  
H     0.7513130    0.7762040   -0.7612320  
C    -1.1824150   -2.6980630   -0.5230920  
C    -2.4796820   -2.3073780   -0.4856380  
C    -2.5397540   -1.0360540    0.1974690  
C    -1.1438580   -0.7087460    0.5614330  
N    -0.3505210   -1.7451350    0.0872030  
C    -0.7600330    0.4027440    1.2560900  
C    -1.7780010    1.3716140    1.6084350  
O    -1.5472160    2.4068200    2.2169760  
C    -3.2605930    1.0900740    1.1633530  
O    -4.0885130    1.9563800    1.3882050  
C    -3.5961050   -0.2045520    0.5104660  
H    -3.3112420   -2.8453320   -0.9132990  
H     0.2537120    0.5735050    1.5988980  
H    -0.7396220   -3.5879100   -0.9433710  
C    -5.5152690   -1.8374890    0.4018700  
C    -4.9838030   -0.5781770    0.2824440  
C    -6.1408110    0.2475810   -0.1456390  
C    -7.2649470   -0.7288000   -0.2397870  
N    -6.8864700   -1.9354580    0.0953080  
C    -8.5866690   -0.3410210   -0.6504200  
C    -8.7929190    0.9580290   -0.9743810  
O    -9.9681780    1.4612130   -1.3799100  
C    -7.6795670    1.9658460   -0.9064610  
O    -7.9369020    3.1235440   -1.2293230  
C    -6.3325510    1.5420840   -0.4625810  
H    -9.3756860   -1.0831660   -0.6987700  
H    -9.8021210    2.4165640   -1.5399120  
H    -5.5732870    2.3101070   -0.3895180  
H    -4.9984780   -2.7270360    0.7410310  
