60


C     0.7767030    3.8598350   -1.2240040  
C     1.2888190    2.7105890   -0.6332330  
C     2.6862660    2.9829510   -0.3484140  
C     2.9451750    4.2994540   -0.7983440  
N     1.7599500    4.7974740   -1.3217940  
C     4.1939370    4.9169970   -0.6818900  
C     5.2139560    4.1861520   -0.0915220  
O     6.4503490    4.7351470    0.0407060  
C     4.9710270    2.8707330    0.3867730  
O     6.0695910    2.2792970    0.9707850  
C     3.7299380    2.2688700    0.2736760  
H     1.6484290    5.7087930   -1.7413970  
H     4.3878270    5.9264640   -1.0287880  
H     7.0231880    4.0761730    0.4699230  
H     5.8593510    1.3649150    1.2123840  
H     3.5730720    1.2803470    0.6986420  
H    -0.2149110    4.0481550   -1.6096650  
C     0.5444100    1.5057770   -0.4080920  
C    -0.8246730    1.2965640   -0.3448150  
C    -1.0689550   -0.0924060   -0.1731530  
C     0.2609230   -0.7311810   -0.1401520  
N     1.1959690    0.2903050   -0.2142300  
C     0.5095510   -2.0714900   -0.0830470  
C    -0.6787870   -2.9452540   -0.0158590  
O    -0.6018010   -4.1433190    0.1814350  
C    -2.1011480   -2.3033650   -0.1373830  
O    -3.0391680   -3.0853050   -0.2689980  
C    -2.2439780   -0.8423000   -0.0775450  
H    -1.5676310    2.0726810   -0.4258960  
H     2.1439740    0.1248210   -0.5216040  
C    -3.5589720   -0.2441110    0.0232860  
C    -3.9316230    1.0351060    0.4026550  
C    -5.3616850    1.1070590    0.3887990  
C    -5.8362700   -0.2368970   -0.0290120  
N    -4.7076270   -0.9924010   -0.2417880  
C    -7.1448900   -0.5782710   -0.1546220  
C    -8.1584630    0.4309280    0.1339120  
O    -9.3588350    0.2145470    0.0473960  
C    -7.6780230    1.8629240    0.5760760  
O    -8.5182140    2.7197230    0.8179190  
C    -6.2436400    2.1089990    0.6780860  
H    -3.2727690    1.8215420    0.7339430  
H    -7.4748930   -1.5665590   -0.4592250  
H    -5.9230500    3.0994430    0.9878080  
H    -4.6508540   -1.9878890   -0.4220970  
C     4.0348700   -1.6440590    2.6306690  
C     2.8266350   -1.5005460    2.0227140  
C     2.8125080   -2.3852790    0.8736850  
C     4.1313140   -3.0622200    0.8647910  
N     4.8414760   -2.5358850    1.9333960  
C     4.5099990   -4.0228700   -0.0155840  
C     3.5612380   -4.4207150   -1.0488380  
O     3.7912610   -5.2964150   -1.8668480  
C     2.1870740   -3.6653960   -1.1192410  
O     1.4621260   -3.8604330   -2.0761920  
C     1.8472720   -2.6786310   -0.0552690  
H     2.0165530   -0.8689180    2.3542070  
H     5.4720710   -4.5244560    0.0222890  
H     4.4055880   -1.1754450    3.5333310  
H     5.7001670   -2.9301530    2.2868160  
