62


C    -1.7153450   -0.1920270   -3.0314480  
C    -2.9072940    0.1111580   -2.4310690  
C    -2.7266250   -0.0658490   -1.0162160  
C    -1.3831100   -0.4720000   -0.8175560  
N    -0.7764250   -0.5117640   -2.0615000  
C    -0.8303960   -0.7633340    0.4483450  
C    -1.6969900   -0.6284910    1.5345510  
O    -1.2392860   -0.8533810    2.7945330  
C    -3.0429930   -0.2177780    1.3554070  
O    -3.7598590   -0.1391610    2.5317350  
C    -3.5855690    0.0758800    0.1035700  
H    -3.8147310    0.4201790   -2.9291120  
H     0.1042360   -0.9704590   -2.2434940  
H    -2.0102180   -0.8321580    3.3888540  
H    -4.7055600   -0.0666210    2.3125460  
H    -1.4409210   -0.1935570   -4.0769640  
C     2.9056340    1.2367190   -0.6121720  
C     3.8304400    0.3089870   -0.2134180  
C     3.0653420   -0.8147560    0.3398890  
C     1.6372000   -0.4441140    0.2182940  
N     1.6153990    0.8109060   -0.3665700  
C     0.5719460   -1.1965430    0.6235280  
C     0.8902470   -2.5082280    1.2271510  
O     0.0388210   -3.3213060    1.5387130  
C     2.4017300   -2.8817340    1.4463780  
O     2.6672560   -3.9161570    2.0373580  
C     3.4345820   -1.9791710    0.9316050  
H     4.4681750   -2.2851770    1.0405750  
H     3.0781360    2.1916030   -1.0910110  
H     0.7709810    1.2925190   -0.6366250  
C     6.5643820    3.6718720    0.7538550  
C     5.4847420    2.8571130    0.6283340  
C     5.9386920    1.6215770    0.0225890  
C     7.3960320    1.7857400   -0.1901440  
N     7.7055420    3.0577140    0.2505930  
C     8.2252060    0.8394480   -0.7052370  
C     7.6484020   -0.4393960   -1.0782660  
O     8.2997220   -1.3740970   -1.5200880  
C     6.0951350   -0.6339790   -0.9045560  
O     5.6031410   -1.6839460   -1.2810840  
C     5.2816050    0.4644080   -0.3206990  
H     4.4792240    3.0807220    0.9501760  
H     9.2921020    0.9874610   -0.8397070  
H     6.6285640    4.6674330    1.1724690  
H     8.6382870    3.4374690    0.2920540  
C    -7.1633390   -1.7881910   -1.9212280  
C    -5.9046140   -1.5350080   -1.4419770  
C    -5.9653090   -0.2847320   -0.7384030  
C    -7.3064990    0.1756390   -0.8238030  
N    -8.0121700   -0.7599250   -1.5520660  
C    -7.7420050    1.3683430   -0.2328350  
C    -6.8024300    2.1152210    0.4585590  
O    -7.1650700    3.2932030    1.0468320  
C    -5.4574020    1.6736770    0.5614340  
O    -4.6412480    2.5335780    1.2679790  
C    -5.0121240    0.4854330   -0.0212610  
H    -5.0338070   -2.1604990   -1.5741570  
H    -8.9945450   -0.7071900   -1.7703580  
H    -8.7661130    1.7214990   -0.2992530  
H    -6.3634870    3.6680470    1.4512870  
H    -3.7267860    2.2074480    1.2128910  
H    -7.5334170   -2.6224230   -2.5004050  
