62


C    -3.2454310    0.7648960   -1.9525580  
C    -4.5443670    1.1752480   -1.8346170  
C    -5.1119430    0.4733690   -0.7177170  
C    -4.0959780   -0.3637870   -0.1905220  
N    -2.9518080   -0.1744060   -0.9629760  
C    -4.2947890   -1.1763900    0.9314420  
C    -5.5479300   -1.1534640    1.5229150  
O    -5.7985230   -1.9326260    2.6177500  
C    -6.5801440   -0.3285470    1.0042840  
O    -7.7723810   -0.4162720    1.7018400  
C    -6.3773600    0.4793770   -0.0989350  
H    -5.0445000    1.8869350   -2.4775970  
H    -3.5205390   -1.8176430    1.3350890  
H    -6.7239820   -1.7771160    2.8726300  
H    -8.4304390    0.1582750    1.2839470  
H    -7.1807390    1.1098780   -0.4757700  
H    -2.4895550    1.0271870   -2.6792850  
C     0.8896750    1.7515710   -0.2858420  
C     1.6449330    0.5830180   -0.2065200  
C     0.7640290   -0.5178400   -0.3567520  
C    -0.5381750    0.0284470   -0.5448160  
N    -0.4397020    1.3899010   -0.4902060  
C    -1.6802920   -0.7618700   -0.7651790  
C    -1.4811960   -2.1395690   -0.8222240  
O    -2.5210330   -2.9714390   -1.0643690  
C    -0.1877740   -2.7086960   -0.6369810  
O    -0.1929680   -4.0851790   -0.6957530  
C     0.9452470   -1.9356720   -0.3770240  
H     2.7081260    0.5635330   -0.0419720  
H    -1.2013200    2.0499030   -0.5655110  
H    -2.1400590   -3.8717450   -1.0655880  
H     0.5381440   -4.3706230   -1.2851490  
C     3.8965750   -1.3820260    2.8683790  
C     4.8905810   -2.2190220    2.4990710  
C     4.4252060   -2.8387860    1.2607110  
C     3.0887110   -2.2082570    1.0146380  
N     2.7843990   -1.3749620    1.9615990  
C     2.2593310   -2.5647280   -0.1424960  
C     2.7746030   -3.5533640   -0.9273960  
O     2.1314020   -4.0449720   -2.0260000  
C     4.0942810   -4.2023240   -0.7038830  
O     4.4512360   -5.0675620   -1.5086190  
C     4.9176450   -3.7898730    0.4464360  
H     5.8250040   -2.4187030    3.0049620  
H     2.7493510   -4.7215620   -2.3913220  
H     5.8714710   -4.2902580    0.5833110  
H     3.8467970   -0.7409310    3.7398630  
C     4.8768250    3.5370080    0.2955590  
C     4.5863270    4.8562470    0.3112320  
C     3.1410270    4.9296570    0.1239760  
C     2.7083690    3.5017820    0.0114390  
N     3.7281210    2.7016610    0.1112890  
C     1.2982990    3.1336600   -0.1881390  
C     0.4277470    4.1950540   -0.2723360  
O    -0.9102750    4.0436510   -0.4624690  
C     0.8347280    5.6075720   -0.1645190  
O    -0.0418310    6.4781210   -0.2518720  
C     2.2583370    5.9406670    0.0418800  
H     5.2612040    5.6922060    0.4323620  
H    -1.2645440    4.9621110   -0.4700560  
H     2.5172140    6.9928500    0.1150180  
H     5.8437020    3.0604300    0.4020010  
