64


C    -4.8634520   -0.1182080   -0.0134290  
C    -5.4689390   -1.3585130   -0.1908140  
C    -6.8610570   -1.2059880    0.0781460  
C    -7.0675870    0.1597850    0.4177170  
N    -5.8494610    0.7908450    0.3455720  
C    -8.3281020    0.6720270    0.7519100  
C    -9.3972290   -0.2087670    0.7458140  
O   -10.6461480    0.2347650    1.0645910  
C    -9.2093290   -1.5796620    0.4092110  
O   -10.3734570   -2.3228640    0.4483500  
C    -7.9675180   -2.0829450    0.0782390  
H    -4.9595260   -2.2902880   -0.3930080  
H    -5.6405740    1.7314820    0.6464060  
H    -8.4908230    1.7126720    1.0121680  
H   -11.2469050   -0.5284650    1.0095840  
H   -10.1750420   -3.2476230    0.2396970  
H    -7.8488040   -3.1346250   -0.1752650  
C    -1.6600660   -1.8956020   -2.4392270  
C    -0.6301510   -1.0943570   -2.0157630  
C    -1.1788140   -0.1654670   -1.0719310  
C    -2.5591830   -0.4619610   -0.9576010  
N    -2.8184490   -1.5321030   -1.7879830  
C    -3.4670390    0.2695750   -0.1536870  
C    -2.9118850    1.3846510    0.4924370  
O    -3.7027080    2.1813060    1.2818070  
C    -1.5430820    1.7078850    0.3960560  
O    -1.1944680    2.8055800    1.1538100  
C    -0.6371230    0.9468820   -0.3627460  
H     0.3926690   -1.1506100   -2.3559630  
H    -3.7485520   -1.8444430   -2.0222390  
H    -3.1142720    2.8340190    1.7030010  
H    -0.2220540    2.8523800    1.2304030  
H    -1.6618210   -2.7074530   -3.1526010  
C     0.7742970    1.2692040   -0.4010540  
C     1.8708910    0.4548530   -0.5222110  
C     3.0581410    1.2607190   -0.4594010  
C     2.6036390    2.6523480   -0.2985020  
N     1.2044680    2.6149100   -0.1933740  
C     3.4104670    3.7374220   -0.2398320  
C     4.8518330    3.5222830   -0.3058220  
O     5.6672870    4.4260920   -0.2186990  
C     5.3816910    2.0509600   -0.4765590  
O     6.5818790    1.8767620   -0.5996750  
C     4.3959190    0.9503720   -0.5168210  
H     1.8456830   -0.6232050   -0.5663780  
H     3.0445240    4.7517390   -0.1152350  
H     0.6747470    3.3619790   -0.6323510  
C     4.3744960   -1.1883010   -1.7752500  
C     4.9816090   -2.4086990   -1.7078200  
C     5.8722860   -2.3797510   -0.5799330  
C     5.7724140   -1.0907890    0.0004020  
N     4.8405630   -0.3639730   -0.7465130  
C     6.4791590   -0.7314700    1.1533060  
C     7.3172810   -1.6823970    1.7143440  
O     8.0345350   -1.3775980    2.8357690  
C     7.4390410   -2.9733100    1.1379110  
O     8.3099500   -3.8098750    1.8115390  
C     6.7292300   -3.3299900    0.0061560  
H     4.8280670   -3.2316780   -2.3928650  
H     6.4186950    0.2532810    1.5994150  
H     8.5769730   -2.1557660    3.0499140  
H     8.4012640   -4.6401520    1.3214440  
H     6.8263050   -4.3292710   -0.4141350  
H     3.6735930   -0.7918110   -2.4953300  
