62


C    -3.4562560    1.2712800   -1.6948220  
C    -4.1801030    0.4856280   -0.8200280  
C    -5.1140270    1.3765480   -0.1571840  
C    -4.9007250    2.6757650   -0.6858300  
N    -3.8856180    2.5763400   -1.6165720  
C    -5.6200210    3.7974030   -0.2562300  
C    -6.5731480    3.6068060    0.7317250  
O    -7.3033120    4.6640670    1.1833390  
C    -6.7917960    2.3161820    1.2863970  
O    -7.7627600    2.2918700    2.2662130  
C    -6.0794770    1.2102720    0.8611980  
H    -3.5208090    3.3405770   -2.1640340  
H    -5.4553040    4.7920720   -0.6574800  
H    -7.8931560    4.3330950    1.8827750  
H    -7.8224230    1.4028050    2.6464710  
H    -6.2538570    0.2374390    1.3143360  
H    -2.6819320    0.9833060   -2.3914490  
C    -0.5823020   -2.1584150   -0.1299030  
C    -1.4473850   -1.0719010   -0.3248330  
C    -2.7548140   -1.5831900   -0.4414570  
C    -2.6621210   -3.0103510   -0.2999090  
N    -1.3450920   -3.3185610   -0.1205920  
C    -3.7832660   -3.8453490   -0.3366430  
C    -5.0114070   -3.2322200   -0.5224110  
O    -6.1373310   -3.9830220   -0.5840870  
C    -5.1261780   -1.8138740   -0.6698490  
O    -6.4229430   -1.3992130   -0.8750190  
C    -4.0300500   -0.9667800   -0.6358520  
H    -1.1497420   -0.0339460   -0.3603740  
H    -0.9220580   -4.2279210    0.0068260  
H    -3.7243480   -4.9228900   -0.2318390  
H    -6.8815710   -3.3774830   -0.7541720  
H    -6.4286590   -0.4433360   -1.0573260  
C     0.8197550   -2.2376150    0.0427900  
C     1.7794460   -1.2256400    0.0664150  
C     3.0183990   -1.8705520    0.2628860  
C     2.6646470   -3.3331010    0.3342530  
N     1.3773260   -3.5333360    0.2120140  
C     3.6582850   -4.3468580    0.4971920  
C     4.9483720   -3.9373080    0.5736400  
O     5.9825930   -4.7610590    0.7288810  
C     5.3631310   -2.4699910    0.5265220  
O     6.5659210   -2.2756950    0.7046600  
C     4.3402190   -1.4303620    0.3407150  
H     1.6048450   -0.1698740   -0.0703230  
H     3.3775840   -5.3927540    0.5507980  
H     6.7662550   -4.1586710    0.7849260  
C     4.7203440   -0.0404860    0.2666000  
C     3.9835450    1.0638960    0.6376590  
C     4.8000170    2.2061600    0.3358530  
C     6.0460340    1.6178580   -0.2573100  
N     6.0044820    0.3200880   -0.2880290  
C     7.1238720    2.4553240   -0.7216450  
C     6.9830570    3.7937190   -0.5805430  
O     7.9013580    4.6965980   -0.9566570  
C     5.7453080    4.4145390    0.0300640  
O     5.7215720    5.6466970    0.1061430  
C     4.6592320    3.5497350    0.4811990  
H     3.0231710    1.0764430    1.1315300  
H     8.0117310    2.0082180   -1.1546300  
H     7.5054180    5.5672940   -0.7220980  
H     3.7828570    4.0292250    0.9065930  
