62


C    -3.1830480    1.5648720   -1.3114530  
C    -3.1008660    0.4294730   -0.5129330  
C    -4.4430120    0.2093560    0.0055910  
C    -5.2580920    1.2486540   -0.5050260  
N    -4.4595610    2.0474800   -1.3099620  
C    -6.6135320    1.3924700   -0.1909060  
C    -7.1674580    0.4597430    0.6712960  
O    -8.4834310    0.5417730    1.0109750  
C    -6.3677520   -0.5854230    1.2047720  
O    -7.0566330   -1.4349070    2.0463200  
C    -5.0292050   -0.7183990    0.8888870  
H    -4.7886220    2.8233310   -1.8642320  
H    -7.2291010    2.1929080   -0.5880950  
H    -8.6732690   -0.2002820    1.6112820  
H    -6.4706580   -2.1502640    2.3355410  
H    -4.4512380   -1.5441390    1.2884330  
H    -2.4172420    2.0161580   -1.9244900  
C     1.1849250    1.6174210   -0.0174060  
C    -0.1806590    1.6640680   -0.1587490  
C    -0.6206780    0.2866640   -0.2228140  
C     0.6346090   -0.4964580   -0.1267360  
N     1.6762150    0.2781170   -0.0192620  
C     0.6581770   -1.9657000   -0.1655950  
C    -0.5813190   -2.5341690   -0.2180190  
O    -0.7786930   -3.8890910   -0.2317950  
C    -1.8588260   -1.7877670   -0.2517970  
O    -2.8966590   -2.4649350   -0.2583750  
C    -1.8596860   -0.2972790   -0.3042080  
H    -0.8176440    2.5346280   -0.0822510  
H    -1.7603010   -3.9853990   -0.2508730  
C     4.4802070   -1.8611430    2.2778150  
C     3.2285840   -1.6015090    1.7865700  
C     3.0042360   -2.4970770    0.6883520  
C     4.1761620   -3.2971790    0.5732780  
N     5.0570140   -2.8845940    1.5494330  
C     4.3292740   -4.3120810   -0.3746560  
C     3.2590460   -4.5473830   -1.2223280  
O     3.3350840   -5.5251550   -2.1697760  
C     2.0655790   -3.7903320   -1.1243600  
O     1.1165110   -4.1332010   -2.0686420  
C     1.9113110   -2.7434560   -0.1970940  
H     2.5804470   -0.8132150    2.1315160  
H     5.9722450   -3.2747250    1.7077090  
H     5.2305090   -4.9114650   -0.4578420  
H     2.4704380   -5.5074060   -2.6229730  
H     0.2663960   -4.2776730   -1.5994030  
H     5.0211210   -1.3810340    3.0806660  
C     1.4064280    5.4775110   -2.0708290  
C     2.5175720    5.9900120   -1.4812930  
C     2.9800530    5.0162880   -0.5141470  
C     2.0293140    3.8863900   -0.5843160  
N     1.0801110    4.2414540   -1.5220210  
C     2.1280980    2.7159760    0.1234360  
C     3.2359370    2.6434620    1.1063430  
O     3.3313230    1.7600720    1.9386770  
C     4.2949540    3.8068000    1.1409280  
O     5.2730120    3.6826800    1.8621650  
C     4.0583360    4.9890920    0.3174720  
H     2.9758150    6.9449720   -1.6935330  
H     4.7798380    5.7985480    0.3713380  
H     0.7852430    5.9002760   -2.8494900  
H     0.4134360    3.5823240   -1.8974620  
