62


C    -6.8580970    2.6038320   -0.3599670  
C    -7.8790030    1.8784550    0.1964870  
C    -7.3600770    0.5707520    0.4775940  
C    -5.9972130    0.5669030    0.0734500  
N    -5.7253980    1.8182110   -0.4388990  
C    -5.1562320   -0.5665940    0.1726490  
C    -5.7724320   -1.7119110    0.6744610  
O    -5.0519720   -2.8895990    0.7693740  
C    -7.1257400   -1.7312920    1.0857890  
O    -7.5390360   -2.9620630    1.5629130  
C    -7.9237310   -0.6075370    1.0035110  
H    -8.8858140    2.2289730    0.3763810  
H    -4.8280690    2.1103090   -0.7937120  
H    -5.6487390   -3.5580060    1.1536270  
H    -8.4684980   -2.9138530    1.8307390  
H    -8.9636500   -0.6408620    1.3210440  
H    -6.8402820    3.6250530   -0.7137390  
C    -1.8231490    2.2704530    1.1158250  
C    -2.9987210    1.5870000    1.0903750  
C    -2.8529030    0.4899020    0.1620580  
C    -1.5325390    0.5489630   -0.3446100  
N    -0.9014940    1.6538470    0.2559430  
C    -1.0456950   -0.3563300   -1.2926130  
C    -1.8992100   -1.3840380   -1.6704620  
O    -1.4806180   -2.3140960   -2.5642040  
C    -3.2167930   -1.4846830   -1.1517140  
O    -3.9287430   -2.5500820   -1.6471890  
C    -3.7369940   -0.5362000   -0.2665010  
H    -3.8681840    1.8111460    1.6910050  
H    -0.0630360   -0.2890150   -1.7417840  
H    -2.2201410   -2.9447740   -2.6600510  
H    -4.4168940   -2.9595130   -0.8987670  
H    -1.5106350    3.1150530    1.7108630  
C     0.3949020    2.0952340    0.0948680  
C     0.8930270    3.3651750    0.2151090  
C     2.3169490    3.2862310    0.0498050  
C     2.6307760    1.8607670   -0.1846440  
N     1.4148970    1.1900260   -0.2095430  
C     3.8890030    1.3262530   -0.3043070  
C     5.0020860    2.3053690   -0.2369260  
O     6.1738530    1.9779580   -0.3273640  
C     4.6805740    3.8365620   -0.0617890  
O     5.6224750    4.6161700   -0.0283880  
C     3.2945550    4.2388360    0.0791360  
H     0.3145500    4.2658630    0.3562230  
H     3.0814830    5.2913690    0.2361570  
H     1.3459280    0.1978590   -0.0174230  
C     3.3581650   -0.9762690   -1.2301410  
C     4.1333850   -0.0953180   -0.5219690  
C     5.2273050   -0.9487510    0.0119090  
C     4.9025310   -2.3120380   -0.4931210  
N     3.8190650   -2.3115620   -1.2236570  
C     5.7192260   -3.4567360   -0.1881710  
C     6.8039580   -3.2689420    0.6003790  
O     7.6491570   -4.2433140    0.9739280  
C     7.1511380   -1.9110550    1.1393320  
O     8.1431950   -1.8174700    1.8596430  
C     6.3048290   -0.7459820    0.7931980  
H     5.4507050   -4.4304990   -0.5824450  
H     8.3234910   -3.8005700    1.5349950  
H     6.6192370    0.2202950    1.1669140  
H     2.4792860   -0.7445700   -1.8206240  
