60


C    -6.4031240    1.8371610   -2.4364500  
C    -5.3437850    1.1558300   -1.8899380  
C    -5.8639380    0.3302280   -0.8293550  
C    -7.2658750    0.5554070   -0.7964250  
N    -7.5593700    1.4870050   -1.7723090  
C    -8.1292920   -0.1181370    0.0737930  
C    -7.5603780   -1.0635330    0.9105410  
O    -8.3379910   -1.7758760    1.7665550  
C    -6.1595740   -1.3159060    0.9054760  
O    -5.7732550   -2.2621180    1.8204910  
C    -5.2805740   -0.6087030    0.0778390  
H    -4.3230460    1.2035880   -2.2416720  
H    -8.4860280    1.8090840   -2.0043900  
H    -9.2013090    0.0490870    0.0915800  
H    -7.7333700   -2.3988110    2.2148970  
H    -5.0863660   -2.8239050    1.3876170  
H    -6.4291090    2.5401830   -3.2569460  
C    -2.1465900    2.4002120    0.3606830  
C    -1.0069770    1.6295000    0.3131920  
C    -1.4654620    0.2380960    0.2185330  
C    -2.9453680    0.2887920    0.2152210  
N    -3.2771110    1.6267000    0.3150180  
C    -3.8098150   -0.7788380    0.1474920  
C    -3.1532400   -2.0888920    0.1914730  
O    -3.7575580   -3.1518290    0.3335720  
C    -1.5861860   -2.1787340    0.0919000  
O    -1.0822240   -3.2839410   -0.0059400  
C    -0.8030730   -0.9443250    0.1525600  
H     0.2775250   -1.0065510    0.1252920  
H    -2.2313430    3.4772630    0.4184990  
H    -4.2229840    1.9704520    0.2116410  
C     0.3423560    2.1242640    0.3668670  
C     0.7959890    3.3775910    0.6921550  
C     2.2242670    3.3256250    0.5674180  
C     2.5138040    1.9157410    0.1329740  
N     1.4181010    1.2263410    0.0299750  
C     3.8744880    1.4306320   -0.1131240  
C     4.8572760    2.3605140    0.0965850  
O     6.1658200    2.1267720   -0.1043200  
C     4.5928930    3.7717430    0.5451590  
O     5.5800720    4.5024450    0.6822300  
C     3.2235110    4.2170070    0.7736890  
H     0.2173610    4.2313940    1.0169390  
H     6.6033270    2.9841250    0.1159620  
H     3.0731940    5.2431730    1.0933680  
C     3.2512280   -0.6909140   -1.3398200  
C     4.0994290    0.0652020   -0.5754420  
C     5.2434470   -0.8395970   -0.3186430  
C     4.8826840   -2.0937640   -1.0470250  
N     3.7269880   -1.9881400   -1.6440840  
C     5.7355920   -3.2519400   -1.0478570  
C     6.8844940   -3.1927800   -0.3335930  
O     7.7702750   -4.1965870   -0.2347470  
C     7.2624860   -1.9590710    0.4369460  
O     8.3165150   -1.9817370    1.0705760  
C     6.3753940   -0.7768240    0.4087380  
H     5.4391930   -4.1379600   -1.5981600  
H     8.4846320   -3.8558310    0.3476730  
H     6.7027860    0.0948770    0.9606280  
H     2.2855430   -0.3900570   -1.7198310  
