62


C    -5.3964640   -1.6244890    1.8548660  
C    -6.7491020   -1.7494620    1.8105370  
C    -7.2231510   -0.9453750    0.7134870  
C    -6.0976670   -0.3196300    0.1270110  
N    -4.9619440   -0.7420750    0.8495670  
C    -6.2059040    0.4730570   -1.0193530  
C    -7.4725860    0.6704310   -1.5508630  
O    -7.6210230    1.4484150   -2.6604620  
C    -8.6118570    0.0735280   -0.9553380  
O    -9.7976330    0.3640140   -1.5953310  
C    -8.4984650   -0.7323000    0.1643000  
H    -7.3523220   -2.3311360    2.4943600  
H    -5.3609900    0.9572130   -1.4896150  
H    -8.5698060    1.4752580   -2.8729010  
H   -10.5341400   -0.0549060   -1.1257560  
H    -9.3778630   -1.2030430    0.5986410  
H    -4.6741730   -2.0278800    2.5480860  
C    -1.3610320   -3.2539510    0.6153830  
C    -2.6535810   -2.8772760    0.7633480  
C    -2.6381970   -1.4225530    0.6823860  
C    -1.2076400   -1.0706110    0.5183970  
N    -0.4747320   -2.1557210    0.4568630  
C    -0.7297620    0.3055970    0.4017940  
C    -1.7162580    1.2413620    0.2468350  
O    -1.4800410    2.5352290   -0.0178520  
C    -3.1721750    0.9349820    0.3852590  
O    -3.9584820    1.8779870    0.3359550  
C    -3.6172990   -0.4778460    0.6144640  
H    -3.5234910   -3.5085390    0.8702030  
H    -2.3570720    2.9755730    0.0130730  
H    -0.9537690   -4.2572870    0.5941720  
C     2.8998990   -1.3660250   -1.6010210  
C     3.7798460   -0.3883520   -1.2007730  
C     3.0577310    0.5192000   -0.3470000  
C     1.7276070    0.0371410   -0.2934400  
N     1.6527740   -1.0868920   -1.0943550  
C     0.7008500    0.6839170    0.4400010  
C     1.1196220    1.7761550    1.2169310  
O     0.2531430    2.3877120    2.0652330  
C     2.4548540    2.2596630    1.1662260  
O     2.6685740    3.3647150    1.9677720  
C     3.4196590    1.6691690    0.3782830  
H     0.9305250   -1.7826090   -0.9081360  
H     0.7413830    3.1108610    2.4977380  
H     3.6184490    3.5443050    2.0296510  
H     4.4325430    2.0623920    0.3449080  
H     3.0751740   -2.2406260   -2.2114210  
C     5.5834750   -0.0209160   -2.8919700  
C     6.9387810    0.0294300   -2.9580130  
C     7.4399230   -0.2016400   -1.6213440  
C     6.2433760   -0.4021840   -0.7642160  
N     5.1341100   -0.2805850   -1.5943700  
C     6.2892120   -0.6583270    0.5686070  
C     7.5959620   -0.7288940    1.2154580  
O     7.7378540   -0.9433610    2.4106380  
C     8.8780310   -0.5132250    0.3278830  
O     9.9785190   -0.5668610    0.8565400  
C     8.6955910   -0.2551600   -1.1011170  
H     7.5325020    0.2135730   -3.8416490  
H     5.4006940   -0.8103850    1.1716770  
H     9.5867450   -0.1139880   -1.7054660  
H     4.8471830    0.1128420   -3.6734880  
