60


C    -5.1575390    4.0993910   -1.5720150  
C    -6.4686030    3.9817280   -1.1929770  
C    -6.5900130    2.7435470   -0.4769910  
C    -5.3013170    2.1507900   -0.4474800  
N    -4.4471030    3.0058720   -1.1113910  
C    -5.0309500    0.8951490    0.1490190  
C    -6.1320470    0.2527560    0.7278370  
O    -5.9716690   -0.9535970    1.3518460  
C    -7.4232280    0.8365650    0.7110700  
O    -8.3837560    0.0624170    1.3365110  
C    -7.6659980    2.0643610    0.1257890  
H    -7.2572940    4.6923110   -1.3980700  
H    -3.4864620    2.7940320   -1.3333390  
H    -6.8377580   -1.1960150    1.7254950  
H    -9.2187360    0.5511570    1.3799810  
H    -8.6682990    2.4875890    0.1249400  
H    -4.6581630    4.8809180   -2.1269870  
C    -2.5057470    1.0123210    0.3974340  
C    -3.6727700    0.3439870    0.1772950  
C    -3.2327910   -1.0372800   -0.1115660  
C    -1.7437740   -0.9974410   -0.0053410  
N    -1.3422410    0.2047960    0.2975490  
C    -0.8989160   -2.1771700   -0.2216790  
C    -1.5826480   -3.3288940   -0.5659250  
O    -1.0325940   -4.5133560   -0.8146980  
C    -3.0848200   -3.3660980   -0.7023740  
O    -3.5904960   -4.4438720   -1.0172910  
C    -3.8849890   -2.1592870   -0.4584030  
H    -1.7950730   -5.1035340   -1.0280080  
H    -4.9620250   -2.2416650   -0.5386040  
H    -2.3851450    2.0553270    0.6658930  
C     0.5410250   -2.0986430   -0.0880350  
C     1.3081180   -1.0002860    0.2324050  
C     2.6707400   -1.4581100    0.2184330  
C     2.5752920   -2.9047150   -0.1315790  
N     1.3440010   -3.2744560   -0.3122010  
C     3.7428030   -3.7410000   -0.2629820  
C     4.9494310   -3.1713510   -0.0498230  
O     6.1194060   -3.8229400   -0.1430860  
C     5.0958900   -1.7217400    0.3386320  
O     6.2291220   -1.3184450    0.5904710  
C     3.8844300   -0.8670180    0.4292560  
H     0.9429170   -0.0042180    0.4194170  
H     3.6344810   -4.7864660   -0.5281850  
H     6.8082250   -3.1684470    0.1062520  
C     3.2423590    1.0346240    1.8765200  
C     3.5406840    2.3416030    2.0629490  
C     4.5670840    2.6956290    1.1078330  
C     4.8579450    1.4628760    0.3350740  
N     4.0283380    0.4605280    0.8637380  
C     5.7205300    1.4156090   -0.7072450  
C     6.4491060    2.6339940   -1.0681390  
O     7.2441320    2.6734890   -1.9936330  
C     6.1881110    3.9358000   -0.2309840  
O     6.7971140    4.9559090   -0.5126930  
C     5.2024790    3.8682360    0.8489540  
H     3.0998060    2.9977890    2.7995450  
H     5.9239330    0.5213390   -1.2827740  
H     4.9972730    4.7784870    1.4041500  
H     2.5320420    0.4077670    2.3972460  
