62


C    -5.2621080    0.1470540   -0.2080430  
C    -5.4491990   -1.1030020    0.3883590  
C    -6.8181930   -1.4387950    0.2603000  
C    -7.4538900   -0.3604100   -0.4275290  
N    -6.4943940    0.5781410   -0.6961440  
C    -8.8217600   -0.3602850   -0.7258130  
C    -9.5597390   -1.4628260   -0.3256910  
O   -10.8917460   -1.5183570   -0.5880060  
C    -8.9417430   -2.5519230    0.3634170  
O    -9.8229870   -3.5637280    0.6860740  
C    -7.5970590   -2.5522310    0.6570300  
H    -4.6645260   -1.6802670    0.8503060  
H    -6.6215770    1.4597340   -1.1719590  
H    -9.3126220    0.4542880   -1.2476270  
H   -11.2246630   -2.3610830   -0.2321620  
H    -9.3511590   -4.2721960    1.1486100  
H    -7.1435970   -3.3900380    1.1822990  
C    -1.1317550   -0.6688280    1.0405420  
C    -0.4789500    0.4668480    0.6655040  
C    -1.5360040    1.2929130    0.0466720  
C    -2.7731740    0.4704520    0.1593710  
N    -2.5181280   -0.6680040    0.7398850  
C    -4.0682600    0.9432770   -0.3501390  
C    -4.0369870    2.1766820   -0.9649610  
O    -5.1420210    2.7684920   -1.4992980  
C    -2.8263530    2.9891010   -1.1127140  
O    -2.9126080    4.0864790   -1.6848720  
C    -1.5440170    2.4882980   -0.5722110  
H    -4.8098390    3.6219140   -1.8612520  
H    -0.6702690    3.1202070   -0.6987450  
H    -0.7103580   -1.5337070    1.5383340  
C     3.1551650   -1.9112980   -0.3722410  
C     1.8800580   -1.4761600   -0.1843910  
C     1.9481250   -0.1544150    0.3831120  
C     3.3180370    0.1763400    0.5126550  
N     4.0583350   -0.9191190    0.0345810  
C     3.7524080    1.3842860    1.0678720  
C     2.7744180    2.2902050    1.4583190  
O     3.1464100    3.4747760    2.0139050  
C     1.3997530    1.9908260    1.3078190  
O     0.5650400    2.9919010    1.7600360  
C     0.9541700    0.7764670    0.7796020  
H     0.9841850   -2.0220800   -0.4422700  
H     4.7938230    1.6252340    1.2408380  
H     2.3326630    3.9422250    2.2729780  
H    -0.3307020    2.6388420    1.8821420  
H     3.5316200   -2.8252170   -0.8059910  
C     5.4299910   -1.0568770   -0.0460700  
C     6.1849440   -2.1964180    0.0136290  
C     7.5558600   -1.8173890   -0.2023490  
C     7.5523690   -0.3463240   -0.3943070  
N     6.2335810    0.0735570   -0.2311380  
C     8.6488070    0.3940630   -0.6757310  
C     9.9413090   -0.2896620   -0.7671520  
O    10.9814440    0.2996770   -1.0131630  
C     9.9775800   -1.8423980   -0.5232150  
O    11.0528080   -2.4210730   -0.5873750  
C     8.7185400   -2.5266650   -0.2442770  
H     5.8222220   -3.1865730    0.2460930  
H     8.6256780    1.4697910   -0.8214860  
H     8.7524820   -3.6016030   -0.0956970  
H     5.8760990    0.9177080   -0.6573070  
