60


C     5.4374260   -1.2942170    1.8167450  
C     4.8932790   -0.4857840    0.8237710  
C     6.0169390    0.2103660    0.2143420  
C     7.1822800   -0.2119890    0.9001170  
N     6.7905300   -1.1330050    1.8605850  
C     8.4633140    0.2727890    0.6175240  
C     8.5768360    1.2188780   -0.3887950  
O     9.7985840    1.7241030   -0.7161340  
C     7.4224970    1.6654080   -1.0837680  
O     7.6904930    2.6076490   -2.0566390  
C     6.1603100    1.1816650   -0.7958670  
H     7.4180020   -1.6602580    2.4488660  
H     9.3492570   -0.0595000    1.1486360  
H     9.6639480    2.3520180   -1.4472680  
H     6.8790330    2.8049370   -2.5478430  
H     5.3016690    1.5217050   -1.3639360  
H     4.9390320   -2.0120880    2.4514170  
C     1.2569050   -0.7592110    3.3818790  
C     2.5437850   -0.5895070    2.9889100  
C     2.5014760   -0.5546300    1.5301830  
C     1.0632660   -0.7077230    1.2139650  
N     0.3420020   -0.8393520    2.2968440  
C     0.5586370   -0.7127130   -0.1537370  
C     1.4893330   -0.5118000   -1.1277890  
O     1.1802990   -0.3986940   -2.4304930  
C     2.9496840   -0.3447160   -0.8406020  
O     3.6813080   -0.1474750   -1.8113860  
C     3.4643910   -0.4383760    0.5644750  
H     3.4168500   -0.4600350    3.6120000  
H     2.0399670   -0.3040500   -2.8949010  
H     0.8693930   -0.8232220    4.3917500  
C    -3.2528830    1.2368620    1.0703420  
C    -1.9562980    0.8808400    0.9230770  
C    -1.9068820   -0.2595500    0.0389490  
C    -3.3125210   -0.5500670   -0.3324930  
N    -4.1043350    0.3797930    0.3499500  
C    -3.6900340   -1.4901170   -1.2338690  
C    -2.6529660   -2.3113120   -1.8454820  
O    -2.8919790   -3.1621300   -2.6888270  
C    -1.1664520   -2.0942780   -1.3969130  
O    -0.3213300   -2.8710220   -1.8036320  
C    -0.8561650   -0.9699020   -0.4761340  
H    -1.1105310    1.3472780    1.4018710  
H    -4.7158710   -1.6642480   -1.5293900  
H    -3.6867110    2.0454090    1.6375730  
C    -6.5145970    3.9360610   -0.1508460  
C    -7.7635690    3.4190470   -0.1684760  
C    -7.5869150    1.9808100    0.0124620  
C    -6.1064480    1.8120440    0.1238470  
N    -5.4879030    2.9510730    0.0312200  
C    -5.5015540    0.4983510    0.3076830  
C    -6.3524800   -0.5650090    0.4274600  
O    -5.9439940   -1.8244970    0.6580460  
C    -7.8312720   -0.4125230    0.3070720  
O    -8.5211470   -1.4262050    0.4287680  
C    -8.4187900    0.9259490    0.0882370  
H    -8.7029450    3.9390500   -0.2942640  
H    -6.7681600   -2.3611150    0.6816330  
H    -9.5002590    0.9849690    0.0128310  
H    -6.2157830    4.9718800   -0.2544080  
