60


C     7.1269100   -1.7198110    2.3764610  
C     8.2494920   -0.9924610    2.0841550  
C     7.8362770    0.1164160    1.2706930  
C     6.4304140    0.0010380    1.1060530  
N     6.0221340   -1.1167550    1.7996380  
C     5.6870080    0.9332140    0.3569850  
C     6.3791420    1.9966220   -0.2212820  
O     5.7002930    2.9285530   -0.9498800  
C     7.7795510    2.1248670   -0.0439160  
O     8.3080410    3.2381180   -0.6678200  
C     8.5100640    1.2058200    0.6854730  
H     9.2552920   -1.2152380    2.4118410  
H     5.0892970   -1.4991620    1.7863610  
H     6.3594760    3.5629330   -1.2833320  
H     9.2746460    3.2182080   -0.6085490  
H     9.5836860    1.3295660    0.8089480  
H     7.0124520   -2.6252000    2.9552250  
C     3.3615940    1.8189020    0.5757530  
C     2.0862620    1.4391090    0.3044790  
C     2.1393540    0.1242770   -0.2880420  
C     3.5753250   -0.2368960   -0.3377430  
N     4.2771390    0.8316190    0.2058830  
C     4.0694230   -1.4044650   -0.8356190  
C     3.1214750   -2.3919990   -1.3177370  
O     3.4482090   -3.4771550   -1.7746350  
C     1.5850290   -2.0588470   -1.2345480  
O     0.8017380   -2.9217350   -1.5960440  
C     1.1516410   -0.7266350   -0.7416790  
H     1.1972200    2.0106310    0.5203970  
H     5.1291380   -1.6225450   -0.9034540  
H     3.7304870    2.7319140    1.0205670  
C    -0.7395530    0.9034860   -1.1159100  
C    -0.2509990   -0.3358800   -0.8041230  
C    -1.4710910   -1.1300150   -0.5200490  
C    -2.5912220   -0.1645400   -0.6971420  
N    -2.1445200    1.0104100   -1.0562660  
C    -3.9931070   -0.5223940   -0.4888910  
C    -4.2171500   -1.8272370   -0.1414280  
O    -5.4432630   -2.3587730    0.0296290  
C    -3.1150910   -2.8077920    0.0634130  
O    -3.4210690   -3.9570170    0.3879750  
C    -1.7097300   -2.3989990   -0.1466160  
H    -5.2803210   -3.2980980    0.2738570  
H    -0.9479850   -3.1586790   -0.0264880  
H    -0.1682560    1.7691050   -1.4274600  
C    -4.9838150    1.5169840   -1.5657280  
C    -5.0405440    0.4840300   -0.6647660  
C    -6.2948710    0.6574480    0.0738150  
C    -6.9547100    1.8556510   -0.5061230  
N    -6.1092540    2.3120810   -1.4991070  
C    -8.1413520    2.3710500   -0.0983620  
C    -8.8328560    1.7244160    1.0113320  
O    -9.9050950    2.1127110    1.4496600  
C    -8.1416060    0.4786300    1.6710120  
O    -8.6880560   -0.0680220    2.6165180  
C    -6.8598510    0.0134240    1.1286550  
H    -8.5936850    3.2504990   -0.5467000  
H    -6.4163470   -0.8596720    1.5885180  
H    -4.1891620    1.7504010   -2.2575770  
H    -6.2693120    3.1359450   -2.0578430  
