62


C    -5.5111470   -1.8223130    1.1491440  
C    -6.8176520   -1.4293140    1.1560810  
C    -6.8883280   -0.1568890    0.4906360  
C    -5.5713710    0.1901810    0.1032560  
N    -4.7252820   -0.8485080    0.5135800  
C    -5.2830910    1.3557140   -0.6144550  
C    -6.3425670    2.1961290   -0.9214110  
O    -6.1116940    3.3483900   -1.6101940  
C    -7.6676470    1.8703680   -0.5274420  
O    -8.6085800    2.8046180   -0.9079410  
C    -7.9497020    0.7092080    0.1680460  
H    -7.6379030   -1.9712960    1.6073250  
H    -4.2802360    1.6389370   -0.9079010  
H    -6.9633240    3.8094140   -1.7017140  
H    -9.4756410    2.5580620   -0.5533980  
H    -8.9724110    0.4686890    0.4509320  
H    -5.0340450   -2.6788590    1.6036240  
C    -2.5124900   -4.1410160   -1.1462540  
C    -1.2436900   -3.6726810   -0.9573670  
C    -1.3422870   -2.3709780   -0.3527290  
C    -2.7838890   -2.1105310   -0.2104000  
N    -3.4406400   -3.2362370   -0.6736940  
C    -3.3469190   -0.9663700    0.2917170  
C    -2.4162900    0.0949540    0.7048000  
O    -2.7657120    1.1196140    1.2600990  
C    -0.8826130   -0.1099930    0.4180980  
O    -0.1760690    0.8829520    0.5377360  
C    -0.3822230   -1.4370470    0.0221780  
H    -0.3387830   -4.1728910   -1.2609980  
H    -2.8389760   -5.0688740   -1.5965560  
H    -4.4428200   -3.3013040   -0.7750420  
C     1.0433280   -1.7003610    0.0088530  
C     1.7141110   -2.9102880    0.0485010  
C     3.1216540   -2.6421210    0.0493560  
C     3.2593820   -1.1678700    0.0119650  
N     1.9743340   -0.6635070   -0.0059250  
C     4.4444170   -0.4886700   -0.0175940  
C     5.6748810   -1.3121550    0.0454490  
O     6.7889640   -0.8290010    0.1409520  
C     5.5448010   -2.8807590    0.0360140  
O     6.5676930   -3.5521740    0.0121510  
C     4.2119020   -3.4651170    0.0616620  
H     1.2651290   -3.8869350    0.1376920  
H     4.1296830   -4.5478340    0.0698770  
H     1.7042220    0.3113710    0.0278640  
C     2.9366860    2.6253420    2.7623100  
C     3.4049210    3.7187450    2.0838970  
C     4.0731790    3.2338910    0.9088780  
C     3.9729090    1.8183780    0.9280070  
N     3.2655350    1.4762570    2.0641600  
C     4.5381310    0.9857050   -0.0621500  
C     5.2130750    1.6357120   -1.0983510  
O     5.7409280    0.9067300   -2.1202770  
C     5.3196930    3.0493240   -1.1320950  
O     6.0088810    3.5277730   -2.2333010  
C     4.7630710    3.8498250   -0.1528300  
H     3.2830270    4.7513420    2.3809150  
H     3.1230450    0.5338710    2.3917020  
H     6.2447050    1.5216370   -2.6811080  
H     6.1610210    4.4781790   -2.1269030  
H     4.8572230    4.9327390   -0.2067020  
H     2.3777500    2.5624820    3.6851300  
