66


C    -0.0514300   -1.3452250    2.1846220  
C    -0.5721040   -2.6285120    2.1046430  
C    -1.8084990   -2.5536180    1.3718950  
C    -1.9821830   -1.1975440    0.9983290  
N    -0.9070860   -0.4954910    1.4962680  
C    -3.0546570   -0.7093290    0.2234420  
C    -4.0176090   -1.6518440   -0.1372920  
O    -5.0813440   -1.2835590   -0.9037320  
C    -3.8809740   -3.0128230    0.2507790  
O    -4.9157820   -3.8172150   -0.1948520  
C    -2.7980520   -3.4767090    0.9773270  
H    -0.1282240   -3.5155520    2.5382710  
H    -0.8540850    0.5110570    1.5290670  
H    -5.6245720   -2.0791630   -1.0386740  
H    -4.7599580   -4.7290000    0.0916240  
H    -2.7224910   -4.5311940    1.2361520  
C     1.8308570   -1.2583630    3.8966940  
C     1.1483530   -0.7920410    2.7920860  
C     1.8491930    0.3986720    2.3521330  
C     2.9379820    0.5956790    3.2350630  
N     2.9043130   -0.4337870    4.1588780  
C     3.8370380    1.6623860    3.0978630  
C     3.6327110    2.5436480    2.0461600  
O     4.4767180    3.6012750    1.8666410  
C     2.5550580    2.3525370    1.1407030  
O     2.4776880    3.2888990    0.1328030  
C     1.6737470    1.2990220    1.2818300  
H     3.5481310   -0.5494740    4.9255510  
H     4.6748770    1.8163490    3.7703660  
H     4.1757360    4.0695570    1.0684160  
H     1.7545200    3.0495530   -0.4734520  
H     0.8905380    1.1655340    0.5436080  
H     1.6150440   -2.1049780    4.5327240  
C    -0.0515080    1.3452300   -2.1846530  
C    -0.5721970    2.6285090   -2.1046920  
C    -1.8085660    2.5536180   -1.3718970  
C    -1.9822230    1.1975510   -0.9982980  
N    -0.9071220    0.4954990   -1.4962350  
C    -3.0546690    0.7093350   -0.2233760  
C    -4.0176230    1.6518450    0.1373710  
O    -5.0813330    1.2835600    0.9038450  
C    -3.8810120    3.0128190   -0.2507250  
O    -4.9158200    3.8172050    0.1949140  
C    -2.7981180    3.4767050   -0.9773160  
H    -0.1283290    3.5155500   -2.5383290  
H    -0.8541840   -0.5110510   -1.5291360  
H    -5.6245450    2.0791690    1.0388220  
H    -4.7599390    4.7290150   -0.0914550  
H    -2.7225800    4.5311850   -1.2361680  
C     1.8307560    1.2583430   -3.8967540  
C     1.1482650    0.7920380   -2.7921320  
C     1.8491110   -0.3986690   -2.3521690  
C     2.9378880   -0.5956910   -3.2351100  
N     2.9042220    0.4337750   -4.1589260  
C     3.8369390   -1.6624020   -3.0979090  
C     3.6326210   -2.5436510   -2.0461940  
O     4.4766210   -3.6012840   -1.8666760  
C     2.5549850   -2.3525200   -1.1407200  
O     2.4776270   -3.2888630   -0.1328030  
C     1.6736790   -1.2990020   -1.2818480  
H     3.5479570    0.5493810   -4.9256810  
H     4.6747680   -1.8163790   -3.7704210  
H     4.1756410   -4.0695600   -1.0684460  
H     1.7544400   -3.0495270    0.4734360  
H     0.8904820   -1.1654980   -0.5436170  
H     1.6149410    2.1049520   -4.5327920  
