62


C     4.9328380   -0.8178800   -0.0899380  
C     5.6968380   -1.7937070    0.4990320  
C     7.0488330   -1.5797070    0.0665530  
C     7.0434570   -0.4420340   -0.7825900  
N     5.7388770    0.0150990   -0.8530380  
C     8.2028410    0.0597470   -1.3840930  
C     9.3940960   -0.6008950   -1.1248310  
O    10.5531250   -0.1580290   -1.6914990  
C     9.4213170   -1.7363220   -0.2716530  
O    10.6817990   -2.2780720   -0.1075570  
C     8.2737420   -2.2273670    0.3229120  
H     5.3360970   -2.5457630    1.1865250  
H     5.3892990    0.7045790   -1.5012930  
H     8.2020220    0.9287750   -2.0338540  
H    11.2662470   -0.7454460   -1.3871790  
H    10.6312410   -3.0450380    0.4816910  
H     8.3203420   -3.0983020    0.9736170  
C     2.5901720   -1.5911260   -0.2562720  
C     1.3369080   -1.0590320   -0.1144440  
C     1.4920500    0.3298210    0.2152730  
C     2.8877240    0.5835950    0.2531830  
N     3.5479480   -0.6104470   -0.0362480  
C     3.4263560    1.8434170    0.5243770  
C     2.5283960    2.8861110    0.7074600  
O     2.9889870    4.1388040    0.9559440  
C     1.1265330    2.6804320    0.6373580  
O     0.3970780    3.8195970    0.8657950  
C     0.5738290    1.4042090    0.4400130  
H     0.4120690   -1.6000720   -0.2476620  
H     4.4926610    2.0303080    0.5808790  
H     2.1971660    4.7079290    1.0116190  
H    -0.3497680    3.8227140    0.2241440  
H     2.9051140   -2.5906270   -0.5181160  
C    -1.8624530   -1.5938230    2.6116870  
C    -0.8713820   -0.7773970    2.1763120  
C    -1.4406220    0.1049170    1.1818450  
C    -2.8576590   -0.2793810    1.0607860  
N    -3.0460970   -1.3318590    1.9164940  
C    -3.7955150    0.3189810    0.2346130  
C    -3.3376620    1.5376040   -0.4281570  
O    -4.0564780    2.2789400   -1.0885100  
C    -1.8343830    1.9858290   -0.2721910  
O    -1.5493590    3.0660240   -0.7807100  
C    -0.8768560    1.1458350    0.4667330  
H     0.1517110   -0.7676970    2.5167590  
H    -1.8443140   -2.3652190    3.3692790  
H    -3.9622550   -1.6606140    2.1877140  
C    -5.1421940   -0.1810760    0.0478120  
C    -5.6781470   -1.4282060    0.3209790  
C    -7.0599810   -1.4133290   -0.0692500  
C    -7.3204780   -0.0527880   -0.6025340  
N    -6.1336320    0.6374110   -0.4898850  
C    -8.5181100    0.3606580   -1.0892460  
C    -9.6312930   -0.5845840   -1.0916830  
O   -10.7442800   -0.3014500   -1.5089950  
C    -9.3783490   -2.0317720   -0.5288690  
O   -10.3013750   -2.8337770   -0.5218460  
C    -8.0427520   -2.3582110   -0.0334800  
H    -5.1395800   -2.3045650    0.6494760  
H    -8.6905140    1.3595640   -1.4775180  
H    -7.8792340   -3.3610210    0.3500300  
H    -5.9125050    1.5476340   -0.8745340  
