64


C    -4.8538360    0.2309880    0.0016390  
C    -5.3785320    1.4438840   -0.3785150  
C    -6.8100960    1.3367780   -0.3635590  
C    -7.1227190    0.0168090    0.0398120  
N    -5.9216240   -0.6761940    0.1986000  
C    -8.4348690   -0.4350430    0.1979810  
C    -9.4578500    0.4648690   -0.0697700  
O   -10.7569860    0.0765640    0.0721680  
C    -9.1639880    1.7862530   -0.4978910  
O   -10.2854650    2.5555740   -0.7362790  
C    -7.8619830    2.2285270   -0.6501910  
H    -4.7988570    2.3001710   -0.6942630  
H    -5.8375380   -1.4169210    0.8853200  
H    -8.6790160   -1.4448060    0.5118140  
H   -11.3141350    0.8386410   -0.1630230  
H   -10.0175300    3.4449380   -1.0109790  
H    -7.6604330    3.2471590   -0.9753040  
C    -1.1394920    2.2672480    1.4660570  
C    -2.4312080    1.9748360    1.1189860  
C    -2.4327360    0.6461440    0.5744160  
C    -1.0935050    0.1829300    0.6104890  
N    -0.3248910    1.1998670    1.1378090  
C    -0.6941110   -1.1129000    0.2005270  
C    -1.7455310   -1.9486000   -0.2017460  
O    -1.4885140   -3.2371940   -0.6030500  
C    -3.0855070   -1.5082670   -0.2465800  
O    -3.9610050   -2.4737120   -0.7108880  
C    -3.4672200   -0.2127410    0.1152410  
H    -3.2874220    2.6188210    1.2527950  
H     0.6285470    1.0792770    1.4419340  
H    -2.3364500   -3.6051470   -0.9131150  
H    -4.8104400   -2.0482480   -0.9336960  
H    -0.7214640    3.1572450    1.9147390  
C     0.7021970   -1.5342660    0.1914390  
C     1.8704180   -0.7763950    0.1470560  
C     2.9754910   -1.6776290    0.1434370  
C     2.4313360   -2.9898770    0.1780520  
N     1.0637330   -2.8695810    0.2245340  
C     3.2202520   -4.1428480    0.1458250  
C     4.5958760   -3.9790250    0.0716080  
O     5.4069480   -5.0740690    0.0555210  
C     5.1735450   -2.6871460    0.0247120  
O     6.5491940   -2.7070520   -0.0207540  
C     4.3915380   -1.5185940    0.0611300  
H     1.9209180    0.2939420    0.0173910  
H     0.3896350   -3.6167640    0.1366130  
H     2.8008620   -5.1429690    0.1807860  
H     6.3251560   -4.7513530    0.0467690  
H     6.8944680   -1.8032320    0.1091030  
C     5.0093150   -0.2052160    0.0482600  
C     4.6357840    0.9624240    0.6584410  
C     5.6010560    1.9828150    0.3514830  
C     6.6066280    1.3396310   -0.5215780  
N     6.2591430   -0.0176770   -0.6177780  
C     7.6487620    1.9838070   -1.0913030  
C     7.8264700    3.4107400   -0.8003580  
O     8.7410180    4.0675760   -1.2705760  
C     6.8028990    4.1016790    0.1711330  
O     6.9510790    5.2868390    0.4341120  
C     5.7088150    3.2953910    0.7033520  
H     3.7921300    1.0725820    1.3236600  
H     8.3746570    1.4992690   -1.7375610  
H     4.9929640    3.7869590    1.3551570  
H     6.3960630   -0.4839290   -1.5098160  
