66


C     1.4910650    2.2725050    0.0441000  
C     2.2885680    3.4008870   -0.0432130  
C     3.6596540    2.9658660   -0.0458790  
C     3.6385910    1.5498610    0.0326120  
N     2.3245020    1.1647030    0.0962190  
C     4.7768920    0.7158530   -0.0077600  
C     6.0046850    1.3771800   -0.0638100  
O     7.1686630    0.6640930   -0.0956870  
C     6.0576760    2.7963750   -0.1130260  
O     7.3491180    3.2932390   -0.1776070  
C     4.9215830    3.5902720   -0.1205810  
H     1.9322400    4.4166600   -0.1477410  
H     2.0133180    0.2331530    0.3236390  
H     7.8942120    1.3089220   -0.1648180  
H     7.3189790    4.2588880   -0.2435780  
H     5.0135840    4.6732050   -0.1805730  
C    -0.9556200    2.8216340    0.5313810  
C     0.0581260    2.0253450    0.0456190  
C    -0.5710070    0.7964850   -0.4050430  
C    -1.9567670    0.9191270   -0.1568110  
N    -2.1651190    2.1762140    0.3818920  
C    -2.8922660   -0.1137720   -0.4160360  
C    -2.3385330   -1.3124770   -0.8881580  
O    -3.1365250   -2.4085220   -1.1084330  
C    -0.9570930   -1.4405340   -1.1759880  
O    -0.5993190   -2.6706000   -1.6836130  
C    -0.0770870   -0.3943640   -0.9779060  
H    -3.0299530    2.4561560    0.8201180  
H    -2.5432890   -3.1145750   -1.4261120  
H     0.3694120   -2.8044380   -1.6261130  
H     0.9540150   -0.4964590   -1.2958680  
H    -0.9041720    3.7970710    0.9937330  
C    -4.3229450    0.0673890   -0.1787880  
C    -5.0834470    1.2286380   -0.1393650  
C    -6.4368660    0.8542250    0.1294860  
C    -6.4553020   -0.5621460    0.2494140  
N    -5.1658760   -1.0063350    0.0704260  
C    -7.6290370   -1.2824470    0.5057050  
C    -8.8055570   -0.5627230    0.6428960  
O    -9.9799920   -1.2156600    0.8926540  
C    -8.8060550    0.8531860    0.5269810  
O   -10.0557350    1.4264010    0.6907840  
C    -7.6472740    1.5631390    0.2754590  
H    -4.7331630    2.2245000   -0.3726700  
H    -4.8658430   -1.9652390   -0.0281670  
H    -7.6474160   -2.3636360    0.5967450  
H   -10.6765610   -0.5390310    0.9452220  
H    -9.9867870    2.3843130    0.5668330  
H    -7.6750680    2.6481390    0.1907540  
C     5.9054530   -2.6384550    2.8355120  
C     5.8534060   -1.4382630    2.1771820  
C     5.0126080   -1.6222210    1.0298580  
C     4.5687140   -2.9743350    1.0528270  
N     5.1313930   -3.5678660    2.1641030  
C     3.6848720   -3.5062240    0.1042570  
C     3.2790900   -2.6571820   -0.9091290  
O     2.3632220   -3.0811130   -1.8612000  
C     3.7442030   -1.3236320   -0.9801400  
O     3.2700080   -0.6389890   -2.0820200  
C     4.5668050   -0.7586940   -0.0013800  
H     6.3722940   -0.5328620    2.4545600  
H     4.9989290   -4.5272450    2.4422270  
H     3.3168270   -4.5264320    0.1437080  
H     2.4396580   -2.4594730   -2.6085050  
H     3.6266380    0.2661300   -2.0652120  
H     6.4395250   -2.9185300    3.7326620  
