60


C    -5.0760900   -0.7662240    2.2739100  
C    -4.6007130   -0.6086460    0.9742130  
C    -5.6340820   -1.1476800    0.1019010  
C    -6.6726540   -1.6202460    0.9409100  
N    -6.3007120   -1.3610570    2.2526140  
C    -7.8281650   -2.2460180    0.4633530  
C    -7.9426560   -2.4064550   -0.9085970  
O    -9.0469900   -3.0023400   -1.4351030  
C    -6.9103190   -1.9509270   -1.7703170  
O    -7.1639010   -2.1799740   -3.1067640  
C    -5.7711320   -1.3345450   -1.2877680  
H    -6.8798420   -1.5240000    3.0627200  
H    -8.6173220   -2.6037740    1.1164160  
H    -8.9391970   -3.0098640   -2.4022580  
H    -6.4551050   -1.7948700   -3.6434280  
H    -5.0133090   -0.9738700   -1.9741110  
H    -4.6316340   -0.4338950    3.2004880  
C    -0.6473600   -0.6592990    3.0299840  
C    -1.9092050   -0.9901320    2.6578580  
C    -2.2020910   -0.1575790    1.4954050  
C    -0.9612560    0.6217990    1.2987110  
N    -0.0611870    0.3362540    2.2022380  
C    -0.8096330    1.5905330    0.2188470  
C    -1.8608310    1.6876000   -0.6422860  
O    -1.8467400    2.4533700   -1.7444340  
C    -3.1268900    0.8984240   -0.4774010  
O    -3.9876860    1.0669550   -1.3407790  
C    -3.3063860   -0.0135290    0.6966610  
H    -2.5527880   -1.7421770    3.0906980  
H    -2.7360390    2.3441820   -2.1479220  
H    -0.0614070   -1.0656950    3.8454940  
C     3.6275250    0.8374150   -0.1222750  
C     2.2782700    0.6446270    0.0541400  
C     1.6811760    1.9553320    0.0129550  
C     2.8433660    2.8726210   -0.2080970  
N     3.9660140    2.2257060   -0.2942810  
C     2.6747110    4.2980110   -0.3298920  
C     1.4188890    4.7883640   -0.2366860  
O     1.1111420    6.0931640   -0.3125920  
C     0.2250260    3.8982430   -0.0069880  
O    -0.8594630    4.4546940    0.1455410  
C     0.3982840    2.4170790    0.0644560  
H     1.7579660   -0.2849850    0.2247230  
H     3.5377850    4.9355240   -0.4848890  
H     0.1383670    6.1363090   -0.1791240  
C     4.6552130   -0.1693820   -0.1476420  
C     4.5061870   -1.5242060    0.0382290  
C     5.8257410   -2.0857570   -0.0840750  
C     6.7037150   -0.8988740   -0.3551760  
N     6.0262970    0.2076890   -0.3908330  
C     8.1261420   -1.0450490   -0.5439830  
C     8.6460630   -2.2918620   -0.4673490  
O     9.9471960   -2.5800960   -0.6210590  
C     7.7860930   -3.5050310   -0.1945320  
O     8.3550170   -4.5967950   -0.1440860  
C     6.3418470   -3.3367170   -0.0056860  
H     3.5937490   -2.0671350    0.2418710  
H     8.7394520   -0.1724720   -0.7389760  
H    10.0078710   -3.5557070   -0.5105730  
H     5.7572740   -4.2308600    0.1882270  
