60


C     3.7615930   -2.2894630    1.0967610  
C     4.1242320   -1.0774740    0.5302120  
C     5.5170130   -1.2044980    0.1435450  
C     5.9272570   -2.5076150    0.5148540  
N     4.8338350   -3.1364260    1.0900080  
C     7.2164970   -2.9982270    0.2829770  
C     8.1157720   -2.1539760   -0.3492070  
O     9.3829250   -2.5790750   -0.5998470  
C     7.7190150   -0.8497520   -0.7522880  
O     8.7159120   -0.1409410   -1.3853360  
C     6.4422100   -0.3710840   -0.5181370  
H     4.8338560   -4.0733310    1.4644040  
H     7.5264750   -3.9990140    0.5648510  
H     9.8440090   -1.8655940   -1.0745820  
H     8.3634450    0.6919900   -1.7328980  
H     6.1600230    0.6163280   -0.8748360  
H     2.8177500   -2.5871050    1.5302690  
C     3.2538040    0.0621580    0.3918270  
C     1.8809040    0.1298160    0.2971190  
C     1.5000370    1.5099260    0.1899550  
C     2.7626670    2.2847880    0.2357470  
N     3.7873480    1.3541080    0.3158500  
C     2.8486620    3.6359710    0.1846160  
C     1.6138450    4.4003460    0.0384920  
O     1.5935980    5.6179970   -0.0451960  
C     0.2563060    3.6135890   -0.0083940  
O    -0.7827140    4.2518600   -0.0166050  
C     0.2834980    2.1349280    0.0349840  
H     1.2206740   -0.7201000    0.2061380  
H     3.7893880    4.1775990    0.2118540  
H     4.7155060    1.5803300    0.6422070  
C    -1.6695840   -0.6706710    2.7997800  
C    -2.8113520   -0.9280760    2.1054310  
C    -2.7571060   -0.1562160    0.8842250  
C    -1.4676980    0.5701320    0.9174550  
N    -0.8591140    0.2137810    2.1091340  
C    -1.0003690    1.4218610   -0.0424620  
C    -1.8546640    1.5822330   -1.2394480  
O    -1.4927640    2.1872060   -2.2312520  
C    -3.2640180    0.8957700   -1.2613280  
O    -4.0317300    1.1792690   -2.1644600  
C    -3.6285250   -0.0331280   -0.1699860  
H    -3.6160510   -1.5764440    2.4161850  
H    -1.3543300   -1.0532740    3.7617660  
H     0.0362770    0.5633410    2.4123400  
C    -7.3264770   -0.3535610    2.3704320  
C    -6.0853780   -0.0077910    1.9501970  
C    -5.9132810   -0.6888260    0.6710730  
C    -7.2060810   -1.4136030    0.4753630  
N    -8.0247580   -1.2164240    1.4709390  
C    -7.4698840   -2.1957720   -0.7047260  
C    -6.5003710   -2.2604950   -1.6451640  
O    -6.6024350   -2.9585430   -2.7881160  
C    -5.1704690   -1.5782710   -1.4647040  
O    -4.3077390   -1.8035350   -2.3068800  
C    -4.9212060   -0.7265100   -0.2568490  
H    -5.3721390    0.6417630    2.4363760  
H    -8.4207010   -2.7047210   -0.8173350  
H    -5.7378170   -2.8449510   -3.2405820  
H    -7.8290660   -0.0450560    3.2797520  
