64


C     4.3368040   -0.7677700   -0.0400030  
C     4.7788840   -1.9995980    0.3968270  
C     6.2014530   -2.0328100    0.2414220  
C     6.5884700   -0.7779340   -0.2992610  
N     5.4430930   -0.0168020   -0.4344050  
C     7.9189810   -0.4586810   -0.5940580  
C     8.8802990   -1.4228420   -0.3326850  
O    10.1923020   -1.1661170   -0.6043750  
C     8.5141700   -2.6800460    0.2204710  
O     9.5854740   -3.5282920    0.4285210  
C     7.1995980   -2.9920710    0.5102070  
H     4.1543490   -2.7710940    0.8269250  
H     5.3827700    0.8376540   -0.9673220  
H     8.2186080    0.4981750   -1.0091230  
H    10.6996020   -1.9552450   -0.3471890  
H     9.2695280   -4.3607380    0.8095890  
H     6.9440130   -3.9622440    0.9318910  
C     1.8512710   -0.9388330   -0.4070930  
C     2.9876900   -0.2358020   -0.1243680  
C     2.5645140    1.1473070    0.0927610  
C     1.0909550    1.1727440   -0.0888770  
N     0.7308600   -0.1171770   -0.3835920  
C     0.2789730    2.2820050    0.0121190  
C     0.9870600    3.5415130    0.2261950  
O     0.4595440    4.6523090    0.1346530  
C     2.5210260    3.5248230    0.5718600  
O     3.0479390    4.5691850    0.9164590  
C     3.2516840    2.2669820    0.4381140  
H     4.3140650    2.2707150    0.6571840  
H     1.7485390   -1.9876230   -0.6498200  
H    -0.2258320   -0.4194900   -0.4963210  
C    -2.7518940   -0.4305940    1.9269220  
C    -1.6064900    0.2393390    1.5939630  
C    -1.9425500    1.2083740    0.5779940  
C    -3.3332940    1.0869240    0.3389140  
N    -3.8009400    0.0712580    1.1665820  
C    -4.0444440    1.9033340   -0.5424600  
C    -3.3186650    2.8947260   -1.1829980  
O    -3.9353710    3.7502940   -2.0378180  
C    -1.9191430    3.0493860   -0.9719040  
O    -1.3637410    4.0652680   -1.7074740  
C    -1.1955460    2.1990250   -0.1295840  
H    -0.6395240    0.0855270    2.0510030  
H    -5.1108340    1.8016910   -0.7083570  
H    -3.2428480    4.3747950   -2.3296860  
H    -0.7137270    4.5251080   -1.1220630  
H    -2.9381590   -1.2188810    2.6414400  
C    -6.0665480    0.2053430    2.0959270  
C    -7.2461380   -0.4572950    1.9091590  
C    -7.0238500   -1.4674670    0.9078710  
C    -5.6685520   -1.3760540    0.5083150  
N    -5.1023760   -0.3454030    1.2515870  
C    -5.0936910   -2.2098780   -0.4547560  
C    -5.9143830   -3.1663160   -1.0331970  
O    -5.4113990   -4.0104450   -1.9799690  
C    -7.2776500   -3.2786070   -0.6498030  
O    -7.9613450   -4.2788640   -1.3147390  
C    -7.8359710   -2.4481710    0.3046020  
H    -8.1741150   -0.2516790    2.4250390  
H    -4.0559510   -2.1284200   -0.7577660  
H    -6.1401370   -4.5872790   -2.2672880  
H    -8.8883620   -4.2795200   -1.0342310  
H    -8.8829880   -2.5536200    0.5820540  
H    -5.7988170    1.0260070    2.7452030  
