60


C     2.7017140   -1.1396920   -0.1257290  
C     3.4288000   -0.0082780    0.2641350  
C     4.8077700   -0.3152370    0.1306980  
C     4.8907180   -1.6574750   -0.3465410  
N     3.6100690   -2.1204780   -0.4969950  
C     6.1124290   -2.2972790   -0.5862630  
C     7.2688970   -1.5746350   -0.3397670  
O     8.4843470   -2.1455470   -0.5531500  
C     7.2058630   -0.2307610    0.1383130  
O     8.4469500    0.3419700    0.3285500  
C     6.0033490    0.3998050    0.3731430  
H     3.0293340    0.9044240    0.6822570  
H     3.3039650   -3.0624670   -0.7105000  
H     6.1815240   -3.3181320   -0.9462520  
H     9.1617480   -1.4888970   -0.3142220  
H     8.3423470    1.2359760    0.6865070  
H     5.9780370    1.4246010    0.7377960  
C    -0.7272860    1.6159020    0.0221260  
C    -1.7334700    0.6694980    0.1040060  
C    -1.1384300   -0.6294820    0.0003750  
C     0.3090780   -0.4055370   -0.1052440  
N     0.4922720    0.9578030   -0.0878610  
C     1.2779150   -1.3896290   -0.1629030  
C     0.7538230   -2.7665380   -0.2714410  
O     1.4637020   -3.7452100   -0.4687060  
C    -0.7955390   -3.0307900   -0.1607360  
O    -1.1752180   -4.1795190   -0.3095540  
C    -1.7070050   -1.8920050    0.0222210  
H    -2.7754720    0.8666340    0.2937180  
H     1.3699330    1.4418760   -0.2001970  
C    -5.2265990   -0.5609990   -2.3022100  
C    -6.2024630   -1.2040080   -1.6116240  
C    -5.5642470   -1.9175830   -0.5244930  
C    -4.1166500   -1.6272090   -0.6343920  
N    -3.9818540   -0.7712210   -1.7147470  
C    -3.1410050   -2.1565770    0.1667630  
C    -3.6057280   -3.0378850    1.2692000  
O    -2.8558840   -3.4563800    2.1313660  
C    -5.1360150   -3.3813620    1.3755780  
O    -5.5000060   -4.1633410    2.2398750  
C    -6.0566130   -2.7457110    0.4373480  
H    -7.2597830   -1.1942070   -1.8328840  
H    -7.1123790   -2.9841030    0.5219800  
H    -5.3040100    0.0593220   -3.1855680  
H    -3.0946970   -0.5265080   -2.1275390  
C    -4.0411000    4.6003250   -0.4486180  
C    -3.3548330    3.4285510   -0.4820140  
C    -1.9920260    3.7708840   -0.1089010  
C    -2.0463480    5.2495050    0.1045860  
N    -3.2463120    5.7244860   -0.0806740  
C    -0.8846050    6.0147970    0.4684700  
C     0.2922260    5.3586630    0.5790280  
O     1.4585790    5.9569310    0.8740320  
C     0.3960210    3.8807450    0.3464480  
O     1.5307700    3.3979250    0.3866760  
C    -0.8314350    3.0629730    0.0728320  
H    -3.7325520    2.4585500   -0.7661150  
H    -0.9660790    7.0849740    0.6218840  
H     2.1385540    5.2508900    0.8557540  
H    -5.0888450    4.7604480   -0.6737470  
