62


C    -2.0669220    5.5598250   -0.3777130  
C    -1.7675300    4.2176930   -0.3293820  
C    -0.3529150    4.0982570   -0.1347000  
C     0.1551060    5.4181210   -0.0842340  
N    -0.9088540    6.2848680   -0.2221920  
C     1.5179880    5.7191570    0.0518260  
C     2.3999020    4.6584030    0.1249720  
O     3.7368090    4.8837270    0.2449090  
C     1.9429100    3.3109710    0.0818710  
O     2.9481650    2.4157340    0.1734310  
C     0.5593920    2.9921770   -0.0214340  
H    -2.4867990    3.4259720   -0.4645820  
H    -0.8400160    7.2904610   -0.2369420  
H     1.8942350    6.7367840    0.0871090  
H     4.1590520    4.0045800    0.2670630  
H     2.5592020    1.4925260    0.0934190  
H    -3.0171560    6.0558530   -0.5146430  
C     0.1222470    1.6241530    0.0134310  
C    -1.1326260    1.0600170    0.1025650  
C    -0.9558160   -0.3518130    0.0689380  
C     0.5320640   -0.5500660   -0.0128030  
N     1.1382380    0.5963900   -0.0409960  
C     1.1632770   -1.8633200   -0.0596900  
C     0.2751700   -2.8926130   -0.0829790  
O     0.6457690   -4.1898410   -0.1933850  
C    -1.2228920   -2.7452330    0.0004420  
O    -1.8630340   -3.8019490   -0.0561650  
C    -1.8215770   -1.4163650    0.1184900  
H    -2.0796840    1.5634110    0.1767410  
H    -0.2150400   -4.6816250   -0.1804810  
C    -4.8455030    0.6415380   -2.3611550  
C    -5.9994090    0.3091850   -1.7396550  
C    -5.5950970   -0.5146390   -0.6046760  
C    -4.0979440   -0.5675360   -0.7058700  
N    -3.6722610    0.1077040   -1.7323250  
C    -3.2877820   -1.3150100    0.2457060  
C    -3.9691970   -1.9531100    1.2409990  
O    -3.3728480   -2.6485900    2.2180860  
C    -5.4677920   -1.9110910    1.3630700  
O    -5.9777780   -2.5162870    2.3046570  
C    -6.2584830   -1.1553620    0.3756930  
H    -7.0109580    0.5765500   -2.0118140  
H    -4.1044120   -2.9983690    2.7741970  
H    -7.3377040   -1.1567190    0.4947590  
H    -4.7161490    1.2440510   -3.2523580  
C     4.5796730   -0.2785020    2.4237600  
C     3.3348220   -0.5788120    1.9372570  
C     3.5173670   -1.3933530    0.7666750  
C     4.9184710   -1.5633770    0.6040460  
N     5.5386790   -0.8652120    1.6192730  
C     5.4855950   -2.3393340   -0.4133410  
C     4.6109780   -2.9817980   -1.2728950  
O     5.0870200   -3.7723720   -2.2749530  
C     3.2043680   -2.8401070   -1.1327120  
O     2.4759170   -3.5248670   -2.0874500  
C     2.6316060   -2.0317660   -0.1461610  
H     2.3981590   -0.2529340    2.3640740  
H     6.5341360   -0.8216070    1.7688080  
H     6.5568590   -2.4661290   -0.5326750  
H     4.2954570   -4.1207470   -2.7278090  
H     1.7753210   -4.0319860   -1.6284700  
H     4.8680350    0.3114960    3.2821890  
