62


C     0.0988850    4.9288410   -0.0448930  
C     0.3717130    3.5720210    0.1438550  
C    -0.7435120    3.0400300    0.9130950  
C    -1.6359640    4.1098800    1.1438820  
N    -1.0836400    5.2410680    0.5489080  
C    -2.8396040    3.9673170    1.8413660  
C    -3.1507750    2.6990300    2.3121340  
O    -4.3116920    2.4932780    2.9920840  
C    -2.2665940    1.6105240    2.0870870  
O    -2.7061450    0.4122430    2.6055530  
C    -1.0728850    1.7657480    1.4069050  
H    -1.5013950    6.1601190    0.5542640  
H    -3.5261110    4.7894920    2.0143100  
H    -4.3547810    1.5452060    3.2081380  
H    -2.1071410   -0.2985490    2.3262720  
H    -0.3991910    0.9312840    1.2496560  
H     0.6785370    5.6820140   -0.5592430  
C     1.5128050    2.8666620   -0.3440870  
C     2.5679150    3.2766780   -1.1327480  
C     3.4109440    2.1381910   -1.2986760  
C     2.7166680    1.0434950   -0.5295030  
N     1.6256440    1.4722060    0.0182030  
C     3.2636580   -0.3111320   -0.4176460  
C     4.4539640   -0.4817630   -1.0513890  
O     5.1524310   -1.6435840   -1.0348520  
C     5.1697370    0.5866880   -1.8442090  
O     6.2411920    0.2383230   -2.3605790  
C     4.5898710    1.9063590   -1.9436400  
H     2.7380270    4.2600710   -1.5488290  
H     5.9530940   -1.4394020   -1.5860460  
H     5.1288280    2.6570290   -2.5122330  
C    -1.0053580   -1.8483510   -0.2242740  
C     0.1849240   -1.2093240   -0.5835970  
C     1.2046010   -1.6396050    0.2972670  
C     0.6028140   -2.5791290    1.1885740  
N    -0.7318540   -2.6564190    0.8815400  
C     1.3229930   -3.2726100    2.1660250  
C     2.6834630   -3.0255950    2.2231460  
O     3.4584570   -3.6757640    3.1214720  
C     3.3154390   -2.0832940    1.3494670  
O     4.6625570   -1.9462750    1.5902730  
C     2.6023680   -1.3499980    0.4055820  
H     0.2997880   -0.5315820   -1.4126650  
H    -1.3870000   -3.3651080    1.1871350  
H     0.8684940   -3.9912960    2.8392060  
H     4.3695590   -3.3563250    2.9686500  
H     5.1352540   -1.9372790    0.7300270  
C    -3.0500970    0.9067830   -3.1282150  
C    -2.1467260    0.4320060   -2.2298950  
C    -2.7178200   -0.8119610   -1.7300490  
C    -4.0023390   -0.9195650   -2.4455680  
N    -4.1925150    0.0775520   -3.2743210  
C    -4.9216920   -2.0071890   -2.2216580  
C    -4.5925580   -2.9364220   -1.2969080  
O    -5.3820990   -3.9806830   -0.9625620  
C    -3.3104040   -2.8620490   -0.5412800  
O    -3.1277740   -3.7301930    0.3228280  
C    -2.3058950   -1.7792100   -0.8408530  
H    -1.2330890    0.9082620   -1.9071590  
H    -5.8561070   -2.0480330   -2.7707030  
H    -4.8948900   -4.4653680   -0.2643850  
H    -2.9939800    1.8215270   -3.7062210  
