60


C    -4.5831580    0.3857530    2.5611510  
C    -3.7405180    0.1618030    1.4965010  
C    -4.3776950   -0.7913200    0.6250810  
C    -5.6193920   -1.1111970    1.2278920  
N    -5.7085420   -0.3910430    2.4053300  
C    -6.5227840   -2.0162760    0.6560530  
C    -6.1632370   -2.6033390   -0.5461920  
O    -7.0071820   -3.4853650   -1.1502210  
C    -4.9185390   -2.2934190   -1.1624330  
O    -4.7073810   -2.9640770   -2.3494690  
C    -4.0268630   -1.4041900   -0.5944540  
H    -6.4941890   -0.4043220    3.0368770  
H    -7.4775000   -2.2619580    1.1094470  
H    -6.5917920   -3.7571440   -1.9871900  
H    -3.9174320   -2.6139690   -2.7876790  
H    -3.0815100   -1.1798020   -1.0822180  
H    -4.4629880    1.0431490    3.4100840  
C    -1.3788110    0.5758070    2.1879510  
C    -0.2974100    1.2918190    1.7818100  
C    -0.6713020    1.9813780    0.5657660  
C    -2.0839690    1.6133920    0.3085280  
N    -2.4625100    0.7417170    1.3270550  
C    -2.8380350    2.0893870   -0.7157200  
C    -2.2154670    3.0140140   -1.6532520  
O    -2.8128480    3.5220810   -2.5900550  
C    -0.6943220    3.3538240   -1.4601090  
O    -0.1225860    3.9804060   -2.3334460  
C     0.0128200    2.8381500   -0.2573510  
H     0.6565680    1.3458730    2.2841010  
H    -3.8811960    1.8274160   -0.8535590  
H    -1.4949220   -0.0715440    3.0470540  
C     3.7508810    0.4960560    0.1078180  
C     4.6389170    1.5401460    0.2351140  
C     3.8822420    2.7611270    0.2025080  
C     2.4596860    2.3659170    0.0485100  
N     2.4535870    0.9893500    0.0023880  
C     1.4131390    3.2394070   -0.0557230  
C     1.7385770    4.6795880    0.0581500  
O     0.8808600    5.5421740    0.1189640  
C     3.2443950    5.1135020    0.1725900  
O     3.5132480    6.3051410    0.1938250  
C     4.2620310    4.0705120    0.2601430  
H     5.7115350    1.4575980    0.3355760  
H     5.2993390    4.3773790    0.3522110  
H     1.6503670    0.3866970   -0.1050850  
C     3.9663300   -0.9262030    0.0706510  
C     5.1322550   -1.6392200    0.1438510  
C     4.7405670   -3.0251630    0.0535120  
C     3.2444520   -2.9830580   -0.0746460  
N     2.8008740   -1.7599320   -0.0641430  
C     2.4624430   -4.1852710   -0.1906820  
C     3.1246880   -5.3665010   -0.1821720  
O     2.5330400   -6.5611640   -0.2819010  
C     4.6330140   -5.4422200   -0.0550940  
O     5.1379020   -6.5635310   -0.0568060  
C     5.4094510   -4.2027960    0.0627560  
H     6.1390250   -1.2588870    0.2440300  
H     1.3835300   -4.1294270   -0.2812070  
H     3.2632490   -7.2200540   -0.2466300  
H     6.4873190   -4.2954190    0.1516070  
