62


C    -5.7593680    0.3867990    3.0107850  
C    -4.8863680    0.6162720    1.9790120  
C    -5.0634890   -0.4424120    1.0218760  
C    -6.0845560   -1.2855970    1.5367560  
N    -6.4762400   -0.7660680    2.7543730  
C    -6.5718010   -2.4031460    0.8519460  
C    -6.0296750   -2.6557130   -0.3978200  
O    -6.4683200   -3.7118570   -1.1353900  
C    -5.0129670   -1.8288940   -0.9472270  
O    -4.5805200   -2.2410740   -2.1870970  
C    -4.4820750   -0.7391670   -0.2485550  
H    -4.1999040    1.4471860    1.9111180  
H    -7.2169490   -1.1344960    3.3295980  
H    -7.3560610   -3.0427970    1.2440100  
H    -5.9755530   -3.6589730   -1.9775050  
H    -4.4944050   -1.4291380   -2.7396060  
H    -5.9316110    0.9518270    3.9160420  
C    -0.6405000    0.5533710    1.5460750  
C    -1.8241730   -0.0524370    1.2753940  
C    -2.2568360    0.3985290   -0.0268580  
C    -1.2043870    1.3270770   -0.5043860  
N    -0.2421820    1.3911610    0.4975450  
C    -1.2207430    1.9754090   -1.6965950  
C    -2.3361760    1.7104570   -2.5842160  
O    -2.4911200    2.2568110   -3.6662010  
C    -3.3922270    0.6275650   -2.1468240  
O    -4.1869680    0.2619110   -3.0125040  
C    -3.3712740    0.0869760   -0.7770950  
H    -2.3476980   -0.7479190    1.9118400  
H    -0.4651420    2.6903070   -2.0000200  
H    -0.0065740    0.4702900    2.4190680  
C     3.9496790    0.1662720    0.2635860  
C     4.4881400    1.4516440    0.2998310  
C     3.4035040    2.3725360    0.3869020  
C     2.2115550    1.5967850    0.3977370  
N     2.5676700    0.2775170    0.3174560  
C     0.9352740    2.1833560    0.4796860  
C     0.8680320    3.5738760    0.5558420  
O    -0.3393260    4.1866000    0.6495620  
C     2.0569540    4.3553460    0.5312880  
O     1.8145130    5.7109940    0.6052600  
C     3.3087100    3.7791840    0.4526910  
H     5.5372740    1.7035760    0.3635710  
H     1.9740450   -0.5407900    0.3893790  
H    -0.1779780    5.1466210    0.6687970  
H     2.6524860    6.1967400    0.5943870  
H     4.2008950    4.4014310    0.4396320  
C     7.9541370   -1.0294320   -1.1012500  
C     7.9105340   -2.3502350   -0.7928470  
C     6.6029550   -2.6202250   -0.2331270  
C     5.8877900   -1.3281060   -0.2236860  
N     6.7721580   -0.3930990   -0.7249280  
C     4.5934810   -1.1331290    0.2016880  
C     3.8622950   -2.3616900    0.5741200  
O     2.6591850   -2.3836670    0.8055900  
C     4.6428800   -3.7263860    0.6758340  
O     4.0439640   -4.6930840    1.1205080  
C     6.0239350   -3.7675440    0.2212480  
H     8.7001600   -3.0724540   -0.9405630  
H     6.5446090   -4.7190760    0.2532680  
H     8.7507000   -0.4538580   -1.5538310  
H     6.4711530    0.5078230   -1.0689960  
