60


C    -6.0315240    0.1015590    2.4527900  
C    -5.1837360   -0.2542510    1.4287600  
C    -5.9175650   -1.1019400    0.5251970  
C    -7.2209750   -1.2237100    1.0661360  
N    -7.2547480   -0.4910320    2.2393640  
C    -8.2237480   -1.9827750    0.4491320  
C    -7.8996060   -2.6258860   -0.7343780  
O    -8.8377810   -3.3733850   -1.3792000  
C    -6.5932420   -2.5143470   -1.2883250  
O    -6.4306680   -3.2165730   -2.4639980  
C    -5.6050490   -1.7675360   -0.6767690  
H    -8.0604430   -0.3866110    2.8362830  
H    -9.2253900   -2.0781630    0.8553480  
H    -8.4261650   -3.7204030   -2.1897430  
H    -5.5546570   -3.0354740   -2.8361070  
H    -4.6129320   -1.6941670   -1.1156170  
H    -5.8511770    0.7334960    3.3103720  
C    -2.7914890   -0.2935600    2.1535040  
C    -1.5975820    0.2414540    1.7876960  
C    -1.8332760    1.0628360    0.6253630  
C    -3.2893040    0.9705770    0.3512170  
N    -3.8259850    0.1240800    1.3156670  
C    -3.9349820    1.6248780   -0.6468260  
C    -3.1484670    2.4757710   -1.5293950  
O    -3.6334100    3.1162850   -2.4493330  
C    -1.5979420    2.5696680   -1.2887290  
O    -0.9285760    3.2221300   -2.0714630  
C    -1.0066600    1.8400500   -0.1421970  
H    -0.6455140    0.0626860    2.2620050  
H    -5.0049160    1.5509030   -0.8073740  
H    -3.0249540   -0.9710060    2.9641990  
C     2.1890200   -1.1656810   -0.1274060  
C     3.3239610   -0.4128840    0.0151330  
C     2.8250610    0.9704690    0.1258450  
C     1.3386730    0.8314780    0.0201460  
N     0.9931870   -0.4236680   -0.1231490  
C     0.4473050    1.9711550    0.0770300  
C     1.0416260    3.1889370    0.2626110  
O     0.3554840    4.3297200    0.3760800  
C     2.5259760    3.3549160    0.4028590  
O     2.9660800    4.4874000    0.5846060  
C     3.4041930    2.1673330    0.3268250  
H     1.0253950    5.0403200    0.4828860  
H     4.4694970    2.3310540    0.4541560  
H     2.1357670   -2.2396030   -0.2637580  
C     4.6888070   -0.8700330    0.0513170  
C     5.1916600   -2.0854880    0.4460460  
C     6.6179840   -2.0628980    0.2734480  
C     6.9433610   -0.7216240   -0.2695490  
N     5.7453610   -0.0184600   -0.3241360  
C     8.1868850   -0.3209520   -0.6255280  
C     9.2986180   -1.2533050   -0.4337020  
O    10.4518280   -0.9755660   -0.7224000  
C     8.9843080   -2.6649780    0.1834590  
O     9.9053050   -3.4489350    0.3607790  
C     7.5955670   -2.9834840    0.5089210  
H     4.6156870   -2.8940080    0.8732700  
H     8.4070940    0.6616360   -1.0318870  
H     7.3864410   -3.9680680    0.9160570  
H     5.6083100    0.7478460   -0.9686790  
