62


C    -1.8142670    0.2357060    1.9242240  
C    -1.0372590   -0.1860330    0.8675060  
C    -1.9173140   -0.5432570   -0.2139230  
C    -3.2308730   -0.3114230    0.2571540  
N    -3.1338170    0.1561920    1.5557940  
C    -4.3912720   -0.5621950   -0.5052030  
C    -4.1765690   -1.0572870   -1.7906740  
O    -5.2328620   -1.2987780   -2.6086850  
C    -2.8594230   -1.2978800   -2.2771080  
O    -2.8350250   -1.7864260   -3.5662440  
C    -1.7345270   -1.0510100   -1.5152350  
H    -3.9262780    0.3848620    2.1376300  
H    -4.8798870   -1.6538750   -3.4430900  
H    -1.9187280   -1.9159910   -3.8526900  
H    -0.7406480   -1.2452500   -1.9113310  
H    -1.5185390    0.5901460    2.9011500  
C     1.1308830   -1.2009780    1.5706460  
C     2.4709140   -1.0083210    1.3826860  
C     2.6265570    0.1143820    0.5030730  
C     1.2525100    0.5801770    0.2063420  
N     0.3765450   -0.2759170    0.8706040  
C     0.9351670    1.6470120   -0.5695850  
C     2.0273220    2.4217190   -1.1352490  
O     1.8628870    3.3860580   -1.8649840  
C     3.4992240    2.0040520   -0.7773120  
O     4.3900940    2.7645000   -1.1380440  
C     3.7409960    0.7500930   -0.0289050  
H     3.2554000   -1.5758150    1.8556810  
H    -0.0864350    1.9404710   -0.7828020  
H     0.6218210   -1.9443850    2.1697170  
C     5.0958860    0.2533530    0.1308310  
C     5.5430520   -1.0150030    0.4522290  
C     6.9769190   -1.0012060    0.4332600  
C     7.3694980    0.3831510    0.0676130  
N     6.1970230    1.0860640   -0.0842710  
C     8.6543400    0.8007870   -0.0708120  
C     9.7270560   -0.1620830    0.1559220  
O    10.9116650    0.1223230    0.0551130  
C     9.3337520   -1.6341940    0.5495410  
O    10.2220400   -2.4519380    0.7453010  
C     7.9150910   -1.9645870    0.6648920  
H     4.9311110   -1.8874460    0.6157380  
H     8.9237870    1.8168990   -0.3414630  
H     7.6548540   -2.9841510    0.9335700  
H     6.0829570    2.0165510   -0.4667240  
C    -6.2691490    3.2160050    0.7950510  
C    -7.4677970    2.7014770    1.2134040  
C    -7.4227360    1.2834420    0.9870510  
C    -6.1517790    0.9938610    0.4276650  
N    -5.4602870    2.1878600    0.3401470  
C    -5.7442820   -0.3026020    0.0472780  
C    -6.6729960   -1.3235020    0.2521660  
O    -6.3497350   -2.6090230   -0.0606840  
C    -7.9492770   -1.0500540    0.8119040  
O    -8.7399680   -2.1758700    0.9559440  
C    -8.3311760    0.2247720    1.1833930  
H    -8.2887820    3.2651710    1.6349060  
H    -4.5855420    2.3054200   -0.1479200  
H    -7.1376680   -3.1519450    0.1160260  
H    -9.6213480   -1.9151530    1.2611410  
H    -9.3151400    0.4022980    1.6129600  
H    -5.9108030    4.2357880    0.7908650  
