64


C     4.0839680    1.0148410    0.0904620  
C     4.1619550   -0.3772980    0.0907580  
C     5.4833810   -0.7304490    0.4692130  
C     6.1968460    0.4842810    0.6960870  
N     5.3302790    1.5184880    0.4615360  
C     7.5416850    0.5061100    1.0873490  
C     8.1776620   -0.7138050    1.2525420  
O     9.4858070   -0.7535640    1.6321510  
C     7.4814470   -1.9383910    1.0308790  
O     8.2612250   -3.0615200    1.2397480  
C     6.1584860   -1.9603570    0.6460190  
H     3.3456210   -1.0339800   -0.1666090  
H     5.5313850    2.5059920    0.5202580  
H     8.0902750    1.4258030    1.2617870  
H     9.7394570   -1.6909760    1.6928370  
H     7.7295300   -3.8554930    1.0819250  
H     5.6449870   -2.9057820    0.4825740  
C    -0.0747790    0.0595320   -1.0029780  
C    -0.5884910    1.3200330   -1.1673670  
C     0.4989310    2.2339590   -0.9066080  
C     1.6547540    1.3464290   -0.5719770  
N     1.3176610    0.0965440   -0.6291150  
C     2.9767060    1.8887430   -0.2233750  
C     3.0550060    3.2603660   -0.2299680  
O     4.1923950    3.9452020    0.0673420  
C     1.9272880    4.1554460   -0.5655080  
O     2.1358760    5.3781680   -0.5387040  
C     0.6215660    3.5787810   -0.9083890  
H    -1.5791010    1.6032380   -1.4935850  
H     3.9311180    4.8914820   -0.0282630  
H    -0.1847220    4.2684830   -1.1389050  
C    -4.2822880   -0.9595740   -0.1566150  
C    -4.1879880   -2.3034570   -0.4385790  
C    -2.8423420   -2.5734340   -0.8538230  
C    -2.1375320   -1.3487870   -0.8163030  
N    -3.0385900   -0.3671300   -0.4392450  
C    -0.7550640   -1.2234690   -1.1020030  
C    -0.1024440   -2.4179720   -1.4689570  
O     1.2058490   -2.4198010   -1.8246090  
C    -0.8123010   -3.6461680   -1.5351320  
O    -0.0251790   -4.7119480   -1.9291700  
C    -2.1575530   -3.7420150   -1.2381450  
H    -5.0054570   -3.0094110   -0.3972090  
H    -2.7378670    0.4949710   -0.0005900  
H     1.4337130   -3.3365460   -2.0624300  
H    -0.5675870   -5.5114890   -1.9946850  
H    -2.6689820   -4.7007900   -1.2926930  
C    -7.6238660   -1.7371150    2.7395030  
C    -6.4973390   -1.8525570    1.9671700  
C    -6.3684720   -0.6329080    1.2199980  
C    -7.4586390    0.1967940    1.5939960  
N    -8.2089300   -0.5049380    2.5152240  
C    -7.6485910    1.4863370    1.0842560  
C    -6.7152200    1.9493470    0.1701650  
O    -6.8582880    3.1912660   -0.3778560  
C    -5.6159590    1.1446570   -0.2177240  
O    -4.7855920    1.7490860   -1.1503640  
C    -5.4153050   -0.1443590    0.2858540  
H    -5.8271660   -2.6991870    1.9468630  
H    -9.0426710   -0.1631550    2.9662890  
H    -8.4848030    2.1175250    1.3669670  
H    -6.1419100    3.2959190   -1.0283860  
H    -4.2550320    1.0603190   -1.5870600  
H    -8.0635240   -2.4340190    3.4390320  
