60


C    -6.2750450   -0.7160760    3.2830280  
C    -5.2109160   -0.4322890    2.4626080  
C    -5.6804320   -0.5200650    1.1035150  
C    -7.0598230   -0.8529430    1.1759500  
N    -7.3854240   -0.9817970    2.5113990  
C    -7.8797530   -0.9698900    0.0496640  
C    -7.2941490   -0.7131010   -1.1795820  
O    -8.0340820   -0.7830820   -2.3160230  
C    -5.9170540   -0.3760200   -1.2903320  
O    -5.5020790   -0.1861640   -2.5864620  
C    -5.0744830   -0.3124860   -0.1745960  
H    -4.2248360   -0.1444310    2.7979600  
H    -8.3095580   -1.1740520    2.8656350  
H    -8.9348980   -1.2162090    0.1081720  
H    -7.4303810   -0.5276060   -3.0403590  
H    -4.9211000    0.6094440   -2.5913260  
H    -6.3337110   -0.7402520    4.3619450  
C    -1.7180930   -2.4276500    1.6682000  
C    -0.6708420   -1.6789710    1.2247690  
C    -1.2198630   -0.6487210    0.3771940  
C    -2.6859270   -0.8529250    0.3633620  
N    -2.9135990   -1.9659700    1.1442220  
C    -3.6172310   -0.0796410   -0.2941730  
C    -3.0487830    0.9703560   -1.1405520  
O    -3.7129320    1.6725980   -1.9007180  
C    -1.4957650    1.2410590   -1.1394330  
O    -1.0664070    2.1300320   -1.8521980  
C    -0.6353270    0.3710280   -0.3270030  
H     0.3706200   -1.8241900    1.4686020  
H    -1.7153350   -3.2833320    2.3303470  
H    -3.8363440   -2.2498140    1.4437950  
C     1.6698870   -0.4275340   -0.8113690  
C     2.9602430    0.0047360   -0.7532640  
C     2.9137740    1.3682450   -0.2313930  
C     1.4845470    1.6813090   -0.0016570  
N     0.7636650    0.5441650   -0.3790590  
C     1.0348310    2.8491290    0.5166180  
C     2.0114230    3.8886570    0.8417320  
O     1.6967330    4.9652890    1.3233580  
C     3.5278070    3.5955690    0.5579690  
O     4.3556480    4.4600000    0.7945390  
C     3.8890020    2.2780030    0.0223430  
H    -0.0135660    3.0655270    0.6853880  
H     4.9411690    2.0740900   -0.1478300  
H     1.2926500   -1.3848010   -1.1461790  
C     4.3299220   -1.3124400   -2.4137620  
C     4.1421910   -0.7396200   -1.1895110  
C     5.3310450   -1.0581900   -0.4003030  
C     6.2145760   -1.8615700   -1.2812130  
N     5.5386810   -1.9913490   -2.4802250  
C     7.4278070   -2.3478920   -0.9174660  
C     7.9010710   -2.0877900    0.4397610  
O     8.9766260   -2.4864260    0.8583240  
C     6.9671700   -1.2660770    1.4019670  
O     7.3301340   -1.0628260    2.5488880  
C     5.6838020   -0.7788880    0.8810830  
H     8.0615700   -2.9296870   -1.5797790  
H     5.0543030   -0.2036090    1.5523450  
H     3.6770880   -1.2825410   -3.2764440  
H     5.9162500   -2.4231350   -3.3092280  
