62


C    -3.1706360    1.2301780   -1.5628420  
C    -2.9735930    0.1204940   -0.7618500  
C    -4.2448750   -0.1420640   -0.1200990  
C    -5.1572720    0.8418520   -0.5762240  
N    -4.4744890    1.6594410   -1.4562770  
C    -6.4874460    0.9075320   -0.1422430  
C    -6.9051180   -0.0418430    0.7761970  
O    -8.1915780   -0.0307030    1.2336120  
C    -6.0036560   -1.0320240    1.2494310  
O    -6.5667110   -1.9073320    2.1612610  
C    -4.6923720   -1.0912690    0.8196750  
H    -4.8730270    2.4359910   -1.9600610  
H    -7.1851890    1.6615790   -0.4921310  
H    -8.2779170   -0.7717270    1.8579080  
H    -5.9055280   -2.5657820    2.4209120  
H    -4.0270560   -1.8695820    1.1808360  
H    -2.4828990    1.7225250   -2.2360700  
C     1.0858390    1.7159650   -0.2319120  
C     1.7580200    0.4940750   -0.1796590  
C     0.7946360   -0.5373260   -0.2913410  
C    -0.4745450    0.0965370   -0.4343060  
N    -0.2693550    1.4488860   -0.3900160  
C    -1.6964080   -0.5904320   -0.6035650  
C    -1.5768450   -1.9817210   -0.6452510  
O    -2.6762060   -2.7597630   -0.8318890  
C    -0.3229000   -2.6472410   -0.5246380  
O    -0.4318700   -4.0215060   -0.5784460  
C     0.8773320   -1.9651830   -0.3186730  
H     2.8226840    0.3976610   -0.0570880  
H    -0.9898720    2.1564820   -0.3890890  
H    -2.3360430   -3.6756340   -0.8754360  
H     0.2499570   -4.3586620   -1.1996290  
C     5.2053300    3.2123090    0.2260140  
C     5.0087640    4.5490130    0.2481230  
C     3.5675210    4.7237270    0.1032210  
C     3.0326360    3.3308290    0.0058700  
N     3.9961770    2.4605000    0.0772410  
C     1.5938650    3.0638100   -0.1516030  
C     0.7989750    4.1858010   -0.2142950  
O    -0.5542640    4.1323980   -0.3678510  
C     1.3061210    5.5625090   -0.1195220  
O     0.4906340    6.4951700   -0.1816910  
C     2.7548760    5.7938490    0.0450960  
H     5.7440840    5.3353810    0.3479890  
H    -0.8330260    5.0770530   -0.3569220  
H     3.0891840    6.8252430    0.1092330  
H     6.1390520    2.6688560    0.3045740  
C     4.0273980   -1.6249280    2.7662490  
C     4.9363500   -2.5333680    2.3487550  
C     4.3608020   -3.1187300    1.1406620  
C     3.0640290   -2.3913970    0.9618020  
N     2.8722830   -1.5377010    1.9208450  
C     2.1499070   -2.6882920   -0.1482990  
C     2.5491400   -3.7174120   -0.9510880  
O     1.8148480   -4.1613850   -2.0143110  
C     3.8236070   -4.4612540   -0.7937290  
O     4.0743290   -5.3539570   -1.6107460  
C     4.7356060   -4.1071360    0.3081240  
H     5.8792460   -2.8008710    2.8052900  
H     2.3623770   -4.8834870   -2.4042990  
H     5.6553430   -4.6772780    0.3980730  
H     4.0723250   -0.9801630    3.6353680  
