60


C     2.6786630   -3.1120120    3.0001730  
C     2.7375700   -1.9595650    2.2552220  
C     3.7098320   -2.1722960    1.2242400  
C     4.2213900   -3.4838320    1.4071360  
N     3.5685570   -4.0322710    2.4909160  
C     5.2218270   -4.0343040    0.6002840  
C     5.7295150   -3.2458080   -0.4214160  
O     6.6927890   -3.7456440   -1.2439740  
C     5.2485400   -1.9307990   -0.6310310  
O     5.8411630   -1.2983530   -1.7013240  
C     4.2393820   -1.3677360    0.1711310  
H     2.1701610   -1.0613470    2.4470120  
H     3.7235020   -4.9592860    2.8556180  
H     5.6024900   -5.0412430    0.7375540  
H     6.8736070   -3.0705220   -1.9214130  
H     5.3239690   -0.5091510   -1.9467750  
H     2.0700390   -3.3516670    3.8603840  
C     3.7277050   -0.0374160   -0.0952890  
C     2.4629760    0.4768950    0.0687490  
C     2.4515670    1.8422030   -0.3597610  
C     3.8328460    2.1432500   -0.7733040  
N     4.5578090    0.9472260   -0.6910500  
C     4.2968970    3.3660080   -1.1234680  
C     3.3527650    4.4801520   -1.1280600  
O     3.6880040    5.6322800   -1.3487470  
C     1.8365800    4.1621030   -0.8817820  
O     1.0273290    5.0256670   -1.1607930  
C     1.4549620    2.8070210   -0.3931190  
H     1.6130380   -0.0859160    0.4171220  
H     5.3328240    3.5632620   -1.3827250  
H     5.5359420    0.9877480   -0.4229760  
C     0.0889320    2.5471740   -0.0037860  
C    -0.6347010    1.3766800   -0.1229310  
C    -1.9359130    1.6530360    0.4150870  
C    -1.8461660    3.0757980    0.8521160  
N    -0.6773650    3.5937970    0.6124800  
C    -2.9594140    3.7592660    1.4587970  
C    -4.1206060    3.0778680    1.5724220  
O    -5.2473990    3.5926810    2.0917600  
C    -4.2612590    1.6487870    1.1162750  
O    -5.3713890    1.1355470    1.2748570  
C    -3.0971590    0.9208660    0.5430690  
H    -0.3280030    0.4725380   -0.6268510  
H    -2.8563410    4.7899320    1.7788170  
H    -5.9091980    2.8679590    2.0437490  
C    -2.1970670   -1.4218920    0.3641280  
C    -3.1998830   -0.4925740    0.2301860  
C    -4.3271780   -1.2791490   -0.3319110  
C    -3.7736510   -2.6574340   -0.4648280  
N    -2.5360700   -2.7239330   -0.0406920  
C    -4.5431470   -3.7458480   -0.9991610  
C    -5.8078570   -3.4850940   -1.4107710  
O    -6.6378670   -4.3990980   -1.9339810  
C    -6.3918440   -2.1042850   -1.3109660  
O    -7.5427110   -1.9397930   -1.7107060  
C    -5.5801430   -1.0054160   -0.7422340  
H    -4.1026280   -4.7339810   -1.0712620  
H    -7.4682440   -3.9135130   -2.1357200  
H    -6.0541010   -0.0354110   -0.6633110  
H    -1.2126790   -1.2493300    0.7812910  
