64


C    -4.4913740   -0.3327210    0.1417930  
C    -5.2616230   -0.7421710    1.2066340  
C    -6.4706240   -1.3157670    0.6894070  
C    -6.3960060   -1.2365640   -0.7227440  
N    -5.2131700   -0.5773350   -1.0466120  
C    -7.3964070   -1.7336660   -1.5621730  
C    -8.5050860   -2.3147180   -0.9618410  
O    -9.5094660   -2.8196210   -1.7348970  
C    -8.6079750   -2.3831910    0.4523940  
O    -9.7731400   -2.9776980    0.8977860  
C    -7.6134260   -1.8915340    1.2786100  
H    -5.0126070   -0.5911390    2.2475830  
H    -4.7298610   -0.7487290   -1.9198560  
H    -7.3409680   -1.6788840   -2.6446290  
H   -10.1875770   -3.1712240   -1.1325370  
H    -9.7780770   -2.9943490    1.8661820  
H    -7.7124320   -1.9589800    2.3602060  
C    -0.8257320   -0.7336450    2.6946170  
C    -2.0672160   -0.8975240    2.1376490  
C    -2.1690180    0.0339130    1.0494340  
C    -0.9378690    0.7360600    0.9915490  
N    -0.1479380    0.2604040    2.0163250  
C    -0.6559250    1.7501270    0.0479390  
C    -1.6705030    2.0100590   -0.8787700  
O    -1.4674360    2.9281390   -1.8625440  
C    -2.9018540    1.3150840   -0.8457740  
O    -3.7827310    1.7137770   -1.8371860  
C    -3.1900470    0.3317010    0.1060860  
H    -2.8162720   -1.6079740    2.4538440  
H     0.8148200    0.5228760    2.1635640  
H    -2.3162300    3.0328280   -2.3284360  
H    -4.6794080    1.4156120   -1.5995790  
H    -0.3606820   -1.2445330    3.5258610  
C     3.7063110    0.6671300   -0.0332270  
C     2.3299880    0.5840430   -0.0412630  
C     1.8579110    1.9351180    0.0357820  
C     3.1078930    2.7598980    0.0857540  
N     4.1803210    2.0177570    0.0484650  
C     3.0716440    4.1954770    0.1486570  
C     1.8521650    4.7792020    0.1676160  
O     1.6494480    6.1000820    0.2280080  
C     0.5613700    3.9776400    0.1572330  
O    -0.4712480    4.6354970    0.2876540  
C     0.6077170    2.5073160    0.0489720  
H     1.7262780   -0.3070350   -0.1346430  
H     3.9915880    4.7685950    0.1762340  
H     0.6684130    6.1963360    0.2713100  
C     4.7019670   -0.3518370   -0.1033290  
C     4.6230660   -1.7416750   -0.1920070  
C     5.9482330   -2.2399950   -0.2318920  
C     6.8254960   -1.1095410   -0.1643410  
N     6.0432300    0.0080710   -0.0868830  
C     8.2207320   -1.2389220   -0.1815630  
C     8.7409610   -2.5187670   -0.2679180  
O    10.0874060   -2.7049260   -0.2890790  
C     7.8813290   -3.6591370   -0.3360410  
O     8.5657930   -4.8541670   -0.4176200  
C     6.5104770   -3.5360960   -0.3189050  
H     3.7080300   -2.3170400   -0.2251350  
H     6.3290580    0.9760570   -0.0337820  
H     8.8912430   -0.3877520   -0.1315560  
H    10.2490420   -3.6623750   -0.3556350  
H     7.9358220   -5.5880500   -0.4730260  
H     5.8742690   -4.4169870   -0.3720490  
