62


C    -2.9877820    1.1930800    1.2269340  
C    -1.7054230    0.8251150    0.9093970  
C    -1.7900480   -0.2049250   -0.0934230  
C    -3.1706130   -0.4023610   -0.3523570  
N    -3.8892480    0.4546140    0.4737800  
C    -3.6467170   -1.2782460   -1.3322070  
C    -2.6966270   -1.9514010   -2.0818430  
O    -3.0809860   -2.8029240   -3.0696460  
C    -1.3037720   -1.7833540   -1.8457250  
O    -0.5121810   -2.5536590   -2.6602090  
C    -0.8186310   -0.9505650   -0.8311880  
H    -0.8084010    1.2633170    1.3235530  
H    -4.7031530   -1.4188290   -1.5285870  
H    -2.2523550   -3.1244870   -3.4748250  
H     0.2644340   -2.0009180   -2.9189730  
H    -3.3534900    1.9163220    1.9422330  
C     1.1714610   -1.2091400    3.0462080  
C     2.4668650   -1.0076740    2.6839780  
C     2.4956890   -0.8508760    1.2476600  
C     1.0920260   -0.9612180    0.7999750  
N     0.3505240   -1.2089080    1.9289890  
C     0.6206390   -0.8597200   -0.4968660  
C     1.6626620   -0.7095390   -1.4943030  
O     1.4828990   -0.7937330   -2.7122770  
C     3.1439110   -0.4174700   -1.0467840  
O     3.9167290   -0.0635770   -1.9201220  
C     3.5370340   -0.6102810    0.3688110  
H     3.3112690   -0.9538700    3.3524450  
H     0.7460360   -1.3609780    4.0289940  
H    -0.6600260   -1.2238230    1.9358380  
C     5.5033620   -1.3477570    1.7604160  
C     4.9299250   -0.5837930    0.7717180  
C     6.0611740    0.2475060    0.2787020  
C     7.2119950   -0.1726220    1.1251440  
N     6.8716360   -1.1121050    1.9723000  
C     8.5182780    0.4094810    0.9898930  
C     8.6840620    1.3883450    0.0673910  
O     9.8430830    2.0252880   -0.1634170  
C     7.5428900    1.8510580   -0.7893790  
O     7.7611600    2.7529620   -1.5968760  
C     6.2115760    1.2196760   -0.6412720  
H     9.3291040    0.0669840    1.6231980  
H     9.6455870    2.6723010   -0.8762680  
H     5.4289260    1.5593950   -1.3070340  
H     5.0185660   -2.1241300    2.3390810  
C    -6.3398130    3.8244870   -0.8003310  
C    -7.5576480    3.2942700   -0.4622440  
C    -7.3141610    1.9895690    0.0869220  
C    -5.9102420    1.7907500    0.0543690  
N    -5.3397030    2.9222290   -0.4828710  
C    -5.3015570    0.6084170    0.5114290  
C    -6.1317210   -0.3940850    1.0077950  
O    -5.5946000   -1.5564500    1.4711160  
C    -7.5391510   -0.2075420    1.0330500  
O    -8.2235750   -1.2914030    1.5503680  
C    -8.1335910    0.9590360    0.5897310  
H    -8.5173920    3.7757270   -0.5893640  
H    -4.3554780    3.0372330   -0.6703350  
H    -6.3376030   -2.1261030    1.7372240  
H    -9.1763130   -1.1213700    1.5138290  
H    -9.2152150    1.0717730    0.6252700  
H    -6.0935070    4.7792870   -1.2427570  
