64


C     0.5218840   -0.7679760    0.3174610  
C     0.6570080   -2.1462300    0.3949790  
C     2.0483920   -2.4437510    0.3594600  
C     2.7374110   -1.2035960    0.2559480  
N     1.7940480   -0.2017220    0.2646120  
C     4.1413470   -1.0853270    0.1592800  
C     4.8463300   -2.2914070    0.1877870  
O     6.2018960   -2.2853550    0.1173620  
C     4.1733800   -3.5444120    0.3046710  
O     5.0349820   -4.6211870    0.3256400  
C     2.8011060   -3.6379610    0.3938300  
H    -0.1589950   -2.8464490    0.5093220  
H     1.9928800    0.7471290   -0.0208580  
H     6.5003850   -3.2113850    0.1557990  
H     4.5307280   -5.4452000    0.3982150  
H     2.3142110   -4.6067780    0.4781900  
C    -0.6578120    0.0459620    0.3491400  
C    -1.9633620   -0.2806760    0.0690090  
C    -2.7713590    0.8871430    0.2472800  
C    -1.8408030    1.9633420    0.6619830  
N    -0.5650370    1.4150890    0.6575580  
C    -2.2111840    3.2236800    0.9936060  
C    -3.6185220    3.5642050    0.8567580  
O    -4.0811950    4.6529880    1.1590840  
C    -4.5842950    2.4872050    0.2426370  
O    -5.7066430    2.8861830   -0.0797950  
C    -4.1276880    1.1054440    0.0725700  
H    -2.3091150   -1.2402560   -0.2816110  
H    -1.5223210    3.9844240    1.3466540  
H     0.1714760    1.7835280    1.2446130  
C    -4.8073790   -2.9314100    1.9314200  
C    -4.3697690   -1.6614910    1.6568660  
C    -5.0654420   -1.2096970    0.4814410  
C    -5.9328980   -2.2663190    0.0959690  
N    -5.7390600   -3.3073630    0.9826680  
C    -6.8208550   -2.1742840   -0.9808770  
C    -6.8487860   -0.9698890   -1.6645370  
O    -7.7030480   -0.7916890   -2.7087180  
C    -5.9985850    0.1102990   -1.3023880  
O    -6.1501070    1.2200220   -2.1009410  
C    -5.0695140    0.0104190   -0.2615170  
H    -3.6406630   -1.1107050    2.2323530  
H    -6.2691490   -4.1642650    0.9919990  
H    -7.4886820   -2.9798730   -1.2689690  
H    -7.5716450    0.1348250   -2.9907460  
H    -6.1471960    2.0017100   -1.4970350  
H    -4.5321040   -3.6062930    2.7297560  
C     6.7091380    0.7419010   -3.0711150  
C     5.9609940   -0.1217380   -2.3153740  
C     5.5791750    0.5809020   -1.1239780  
C     6.1317600    1.8867120   -1.2180740  
N     6.8151380    1.9547670   -2.4143850  
C     5.9536210    2.8640500   -0.2321100  
C     5.1998730    2.5154100    0.8768180  
O     5.0018080    3.4211350    1.8805030  
C     4.6262640    1.2233480    0.9855140  
O     3.8895800    1.0351020    2.1451450  
C     4.7980270    0.2411460    0.0098360  
H     5.7178240   -1.1425300   -2.5708200  
H     7.3136710    2.7617020   -2.7545870  
H     6.3850580    3.8576170   -0.2989940  
H     4.5367960    2.9528400    2.5955600  
H     3.7740340    0.0811040    2.2869490  
H     7.1842560    0.5958310   -4.0309550  
