60


C    -4.0905070   -2.6965610   -0.1162450  
C    -4.5442700   -1.3738440   -0.0521300  
C    -5.9874260   -1.4523520    0.1101930  
C    -6.3277290   -2.8227210    0.1351140  
N    -5.1439050   -3.5439350   -0.0056870  
C    -7.6375870   -3.2869340    0.2783280  
C    -8.6354310   -2.3296610    0.4004760  
O    -9.9315530   -2.7174050    0.5429980  
C    -8.3132950   -0.9466340    0.3780040  
O    -9.4087270   -0.1213670    0.5101730  
C    -7.0117900   -0.4982590    0.2354970  
H    -5.0781600   -4.5515130   -0.0213330  
H    -7.8960700   -4.3404440    0.2974650  
H   -10.4706680   -1.9102030    0.6136480  
H    -9.1220040    0.8041290    0.4907010  
H    -6.7677870    0.5591000    0.2192460  
H    -3.0842810   -3.0725680   -0.2332950  
C    -3.7217520   -0.2148770   -0.1304320  
C    -2.3390540   -0.1269940   -0.2828620  
C    -2.0238300    1.2503610   -0.2864110  
C    -3.3576630    1.9276970   -0.1212630  
N    -4.3374070    1.0706520   -0.0395150  
C    -3.4848030    3.3540510   -0.0540630  
C    -2.3415360    4.0744500   -0.1160120  
O    -2.2921000    5.4064190   -0.0525740  
C    -0.9700630    3.4318140   -0.2684640  
O    -0.0283270    4.2327560   -0.3115260  
C    -0.8393260    1.9767290   -0.3725090  
H    -1.6447230   -0.9508030   -0.3500230  
H    -4.4584880    3.8176150    0.0562550  
H    -1.3328280    5.6260980   -0.1287060  
C     0.6774260    0.2076540   -1.3323450  
C     0.4514600    1.3601900   -0.6222500  
C     1.8058670    1.7418630   -0.1341910  
C     2.6904940    0.6776870   -0.6648590  
N     2.0231260   -0.1968490   -1.3714980  
C     4.1186410    0.6561560   -0.4024720  
C     4.6301790    1.6665900    0.3623230  
O     5.9354470    1.7993250    0.6573600  
C     3.7546680    2.7196600    0.9390370  
O     4.2890430    3.5966660    1.6226730  
C     2.3038220    2.7165390    0.6499640  
H     5.9853520    2.6035130    1.2223910  
H     1.7208230    3.5310930    1.0594040  
H    -0.0538110   -0.3735680   -1.8780200  
C     4.8253640   -0.8595030   -2.2413500  
C     5.6802540   -1.8877730   -2.4552260  
C     6.3568990   -2.1604080   -1.2079310  
C     5.8234470   -1.1834000   -0.2261360  
N     4.9016090   -0.3918470   -0.9196810  
C     6.1712350   -1.1624490    1.0837560  
C     7.1575950   -2.1333720    1.5586330  
O     7.5236240   -2.1843470    2.7228950  
C     7.7633150   -3.1493810    0.5254950  
O     8.5975100   -3.9565230    0.9063920  
C     7.2833930   -3.0901520   -0.8550270  
H     5.8246900   -2.4134700   -3.3880380  
H     5.7717840   -0.4569790    1.8003510  
H     7.6800700   -3.8151730   -1.5593270  
H     4.1348260   -0.3841440   -2.9210240  
