64


C    -2.6949700   -1.1380830    0.0829150  
C    -3.3899760   -0.0277990    0.5447230  
C    -4.7856940   -0.3091910    0.4293000  
C    -4.8992360   -1.6182910   -0.1131290  
N    -3.6243780   -2.0881680   -0.3209830  
C    -6.1360870   -2.2297810   -0.3560990  
C    -7.2784500   -1.5088680   -0.0465180  
O    -8.5112750   -2.0572590   -0.2629000  
C    -7.1841700   -0.1984940    0.4956010  
O    -8.4115320    0.3895900    0.7495020  
C    -5.9639910    0.4039890    0.7341540  
H    -2.9586050    0.8612140    0.9821270  
H    -3.3627830   -3.0245070   -0.5920280  
H    -6.2273060   -3.2288310   -0.7698030  
H    -9.1694300   -1.3983830    0.0174480  
H    -8.2720630    1.2734430    1.1198030  
H    -5.9185550    1.4087620    1.1505130  
C     0.6724560    1.7016200   -0.1830100  
C     1.6980710    0.7569640   -0.1647590  
C     1.1013310   -0.5307290   -0.0778800  
C    -0.3101010   -0.3301240   -0.0452040  
N    -0.5358490    1.0190470   -0.0934150  
C    -1.2584960   -1.3805440   -0.0110520  
C    -0.6925120   -2.6570120   -0.1026020  
O    -1.4877270   -3.7670430   -0.1464640  
C     0.7127580   -2.8855150   -0.1308450  
O     1.0379140   -4.2248550   -0.1566980  
C     1.6437220   -1.8534770   -0.0780300  
H     2.7460350    0.9977080   -0.2360770  
H    -1.4357700    1.4597430   -0.2196110  
H    -0.8671000   -4.5214120   -0.2156180  
H     1.7656110   -4.3432800   -0.8085860  
C     4.1235820    4.4266490   -0.4127540  
C     3.5171940    5.6305360   -0.5058380  
C     2.0873470    5.3409520   -0.4685470  
C     2.0143600    3.8518850   -0.3495080  
N     3.2052160    3.3320140   -0.3146160  
C     0.7285910    3.1416120   -0.2810800  
C    -0.3834760    3.9498050   -0.3197760  
O    -1.6548550    3.4679820   -0.2618990  
C    -0.3327600    5.4178440   -0.4355450  
O    -1.4037070    6.0398690   -0.4682790  
C     0.9760960    6.0973350   -0.5097020  
H     3.9721820    6.6078220   -0.5885810  
H    -2.2231260    4.2694720   -0.3273730  
H     0.9698660    7.1801830   -0.5926150  
H     5.1839670    4.2061030   -0.4042620  
C     4.6963770   -0.2262790    2.6823310  
C     5.7835370   -0.9004620    2.1901790  
C     5.3179670   -1.7021550    1.0955610  
C     3.9218830   -1.4641470    0.9681870  
N     3.5724300   -0.5757330    1.9628160  
C     3.1031130   -2.1022130    0.0046720  
C     3.7726400   -3.0052120   -0.8219240  
O     3.0694400   -3.7015500   -1.7924110  
C     5.1593240   -3.2580070   -0.7129780  
O     5.6255080   -4.1891770   -1.6263880  
C     5.9414300   -2.6195390    0.2285570  
H     6.7952510   -0.8427010    2.5672730  
H     2.6634230   -0.1462510    2.0468680  
H     3.7174190   -4.2521180   -2.2692940  
H     6.5878330   -4.2648220   -1.5496460  
H     7.0059330   -2.8315710    0.3026730  
H     4.6239810    0.4791970    3.4980680  
