62


C     1.8578500   -2.5523310   -0.7976350  
C     2.3629030   -3.7711710   -1.1271200  
C     3.7824270   -3.7355270   -0.8841480  
C     4.0956860   -2.4444460   -0.3969290  
N     2.8904870   -1.7213050   -0.3345640  
C     5.4099860   -2.0493490   -0.1193760  
C     6.4145190   -2.9930740   -0.2929600  
O     7.7055270   -2.6526640   -0.0271250  
C     6.1118380   -4.3001640   -0.7515910  
O     7.2135500   -5.1191900   -0.8698650  
C     4.8144290   -4.6741860   -1.0555570  
H     1.7908410   -4.6126200   -1.4933210  
H     5.6825570   -1.0464200    0.1852630  
H     8.2604020   -3.4255960   -0.2305090  
H     6.9490360   -5.9765430   -1.2352820  
H     4.6011820   -5.6737480   -1.4281960  
H     0.8432950   -2.1835910   -0.8013980  
C     2.6884580   -0.4271520    0.0966210  
C     1.7049560    0.4562850   -0.2633880  
C     1.8818520    1.6448420    0.5231550  
C     3.0659530    1.4006950    1.3778290  
N     3.5475450    0.1380800    1.0410050  
C     3.5658210    2.2710770    2.2860430  
C     2.9117420    3.5692970    2.4225020  
O     3.3070910    4.4336050    3.1882710  
C     1.6475180    3.8595050    1.5382160  
O     1.0326880    4.8943280    1.7351490  
C     1.2107670    2.8442850    0.5540610  
H     0.9675420    0.3046120   -1.0357240  
H     4.4449250    2.0686900    2.8900860  
H     4.1019490   -0.4226880    1.6728090  
C    -2.8043670    0.9488940   -0.2192660  
C    -1.5387500    1.1891320    0.2700510  
C    -1.0940430    2.3886960   -0.3711730  
C    -2.2423680    2.7830680   -1.2544120  
N    -3.2321020    1.9387160   -1.1658930  
C    -2.2102850    3.9709740   -2.0619030  
C    -1.0936150    4.7319180   -1.9960300  
O    -0.9095230    5.8609450   -2.6870890  
C     0.1019550    4.3513830   -1.1418960  
O     1.0936700    5.0713390   -1.2591930  
C     0.0473780    3.1488230   -0.2916330  
H    -0.9969290    0.6094730    1.0027560  
H    -3.0566310    4.2341700   -2.6863160  
H     0.0021510    6.1532260   -2.4492580  
C    -3.7334420   -0.0940580    0.0694540  
C    -3.6803690   -1.1944900    0.9253140  
C    -4.9089690   -1.8880600    0.8014290  
C    -5.7011730   -1.1732560   -0.1544820  
N    -4.9636050   -0.1027850   -0.5746960  
C    -6.9896240   -1.5849140   -0.5209230  
C    -7.4888690   -2.7271080    0.0807690  
O    -8.7334930   -3.1725620   -0.2348860  
C    -6.7131740   -3.4536500    1.0373520  
O    -7.3623250   -4.5642340    1.5353490  
C    -5.4468020   -3.0533030    1.3987520  
H    -2.8475580   -1.4518260    1.5653900  
H    -5.2186630    0.6204660   -1.2332080  
H    -7.5957930   -1.0478180   -1.2424580  
H    -8.9016710   -3.9714980    0.2949090  
H    -6.8076490   -4.9951620    2.2025370  
H    -4.8738740   -3.6204160    2.1293190  
