64


C    -4.9534980   -0.9981380    2.4489070  
C    -4.0334310   -0.9624240    1.4262980  
C    -4.3032400   -2.0762660    0.5543350  
C    -5.4129790   -2.7575500    1.1121800  
N    -5.7769620   -2.0853410    2.2652120  
C    -5.9634340   -3.9049120    0.5265410  
C    -5.3809500   -4.3665250   -0.6426940  
O    -5.8793620   -5.4752140   -1.2575140  
C    -4.2642010   -3.6937940   -1.2132970  
O    -3.7983560   -4.2809860   -2.3712820  
C    -3.7209590   -2.5642370   -0.6324180  
H    -6.5456770   -2.3372270    2.8668120  
H    -6.8157430   -4.4297900    0.9454900  
H    -5.3557620   -5.6191350   -2.0649570  
H    -3.1092650   -3.7261470   -2.7662250  
H    -2.8678470   -2.0637750   -1.0840670  
H    -5.0802610   -0.3278980    3.2867850  
C    -1.8941850    0.1141010    2.1439820  
C    -1.0697450    1.1204390    1.7516480  
C    -1.6392910    1.7075420    0.5627630  
C    -2.8903850    0.9546390    0.3010570  
N    -2.9913290   -0.0167150    1.2904940  
C    -3.7427040    1.1934190   -0.7293900  
C    -3.4161050    2.2883080   -1.6236630  
O    -4.0707840    2.5777520   -2.6137350  
C    -2.1623970    3.1775480   -1.2826990  
O    -2.0486220    4.2248030   -1.9200640  
C    -1.2217870    2.7553590   -0.2325210  
H    -0.1569450    1.4272810    2.2369580  
H    -4.6294370    0.6002210   -0.9210840  
H    -1.8116560   -0.5583420    2.9875170  
C     2.9419820    1.0942450    0.1294200  
C     1.5814700    1.2564840   -0.0354810  
C     1.2860140    2.6548550    0.0665650  
C     2.5261070    3.3160290    0.2792590  
N     3.5203730    2.3532920    0.2853610  
C     2.6420080    4.7016550    0.4004160  
C     1.4760290    5.4407500    0.2638540  
O     1.5116860    6.7967970    0.3508770  
C     0.2237190    4.8151050    0.0216760  
O    -0.8224830    5.7021050   -0.0781360  
C     0.0876770    3.4240720   -0.0486590  
H     0.8885610    0.4581820   -0.2555060  
H     4.4379750    2.4961830    0.6814370  
H     3.5895900    5.2056750    0.5606700  
H     0.5964450    7.0907900    0.1745600  
H    -1.3734280    5.4036200   -0.8401770  
C     3.7513470   -0.1022570    0.1202020  
C     3.4370990   -1.4003280    0.4651180  
C     4.6086020   -2.1995340    0.2667410  
C     5.6292490   -1.3311370   -0.2035730  
N     5.0997120   -0.0517070   -0.2455660  
C     6.9145970   -1.7792680   -0.5239280  
C     7.1822310   -3.1304950   -0.3573260  
O     8.4201680   -3.6206590   -0.6588490  
C     6.1805770   -4.0111720    0.1297030  
O     6.6025880   -5.3225520    0.2507290  
C     4.9099950   -3.5652470    0.4440830  
H     2.4860240   -1.7259640    0.8637180  
H     5.4812420    0.6900620   -0.8151500  
H     7.6957560   -1.1200290   -0.8886850  
H     8.4036690   -4.5754920   -0.4740880  
H     5.8703700   -5.8681930    0.5732670  
H     4.1586630   -4.2606980    0.8134250  
