60


C     2.7284000   -2.4871610    0.5853920  
C     3.5190730   -3.5919610    0.5528170  
C     4.8573840   -3.1625300    0.2347060  
C     4.8260220   -1.7568350    0.0810450  
N     3.4998020   -1.3439490    0.3146790  
C     5.9549170   -1.0223440   -0.3011020  
C     7.1438620   -1.7188290   -0.4801370  
O     8.2661660   -1.0414380   -0.8436080  
C     7.1972270   -3.1241570   -0.2985970  
O     8.4449610   -3.6662720   -0.5103750  
C     6.0690370   -3.8485950    0.0452620  
H     3.1942050   -4.6055760    0.7436420  
H     5.9404490    0.0419250   -0.5009880  
H     8.9818420   -1.6922820   -0.9489740  
H     8.4058020   -4.6306430   -0.4256410  
H     6.1196050   -4.9293740    0.1571610  
H     1.6808480   -2.3759070    0.8198300  
C     2.9860200   -0.0670450    0.3059970  
C     1.6993900    0.3429030    0.0582920  
C     1.6577230    1.7663800    0.2328900  
C     3.0331030    2.1770080    0.6020230  
N     3.8098010    1.0215940    0.5880100  
C     3.4199230    3.4438500    0.8760290  
C     2.4200950    4.5058950    0.7743330  
O     2.6782730    5.6789070    0.9868350  
C     0.9560250    4.1095410    0.3743740  
O     0.0981210    4.9770560    0.3761440  
C     0.6550090    2.6936810    0.0812530  
H     0.8925580   -0.2847000   -0.2866960  
H     4.4378680    3.7172860    1.1361360  
H     4.6738240    0.9317460    1.1038580  
C    -2.5150940    0.1158880    1.8535570  
C    -1.3691790    0.7856890    1.5982890  
C    -1.5428990    1.5121060    0.3499000  
C    -2.9120440    1.2183360   -0.1196260  
N    -3.4475010    0.3357560    0.8217340  
C    -3.5046450    1.7470960   -1.2169560  
C    -2.7247370    2.6824380   -2.0206840  
O    -3.1687150    3.2500800   -3.0051390  
C    -1.2359460    2.9561610   -1.5997910  
O    -0.5298550    3.6055180   -2.3464000  
C    -0.7157040    2.3572050   -0.3349580  
H    -0.4812150    0.7900180    2.2122250  
H    -4.5238020    1.5243770   -1.5139250  
H    -2.7915960   -0.5258410    2.6790140  
C    -5.8252940    0.6269500    1.3878530  
C    -6.9666710   -0.0910930    1.2826070  
C    -6.6399680   -1.3536280    0.6425610  
C    -5.1847460   -1.3231480    0.3678320  
N    -4.7431370   -0.0889270    0.8417390  
C    -4.4792280   -2.3207970   -0.2143790  
C    -5.2014060   -3.5315240   -0.6064320  
O    -4.6553630   -4.4910770   -1.1260420  
C    -6.7499900   -3.5900070   -0.3353910  
O    -7.3696420   -4.5902200   -0.6568900  
C    -7.3904840   -2.4330510    0.3030790  
H    -7.9484350    0.2179240    1.6114270  
H    -3.4127190   -2.2656570   -0.4041470  
H    -8.4592410   -2.4867660    0.4867770  
H    -5.6453470    1.6112100    1.7987380  
