62


C    -4.9075820    0.3940860    2.0712880  
C    -6.0943000   -0.2816360    2.0195490  
C    -6.1701490   -0.9117190    0.7308470  
C    -4.9862200   -0.5735020    0.0288070  
N    -4.2128280    0.2286970    0.8686100  
C    -4.7131160   -1.0480750   -1.2591290  
C    -5.6617600   -1.8649820   -1.8535300  
O    -5.4486450   -2.3492310   -3.1118930  
C    -6.8577800   -2.2071270   -1.1684970  
O    -7.7021310   -3.0293550   -1.8918420  
C    -7.1195770   -1.7444350    0.1071920  
H    -6.8411140   -0.3105330    2.8016640  
H    -3.8172200   -0.7829290   -1.8070630  
H    -6.2320220   -2.8715200   -3.3553200  
H    -8.5208460   -3.1675360   -1.3933550  
H    -8.0387710   -2.0246120    0.6182720  
H    -4.4977280    1.0351150    2.8391570  
C    -0.5823850   -0.1637980    3.1619560  
C     0.2285070    0.6554180    2.4433490  
C    -0.5333570    1.1366040    1.3079390  
C    -1.8780720    0.5364920    1.4463180  
N    -1.8470810   -0.2319500    2.5899290  
C    -2.9320890    0.7543340    0.6029500  
C    -2.7047420    1.6560700   -0.5322230  
O    -3.5843910    2.0040200   -1.3008940  
C    -1.2422080    2.1919740   -0.7703340  
O    -1.0171310    2.7531760   -1.8269100  
C    -0.2004090    1.9519340    0.2570810  
H     1.2544570    0.8993340    2.6718460  
H    -0.3685750   -0.7231360    4.0627140  
H    -2.6117140   -0.8120750    2.9009110  
C     3.7600080   -0.0221450   -0.1178660  
C     4.4996200    1.1356410   -0.3631920  
C     3.6008110    2.2384210   -0.3196100  
C     2.3075060    1.7097950   -0.0451960  
N     2.4362860    0.3481350    0.0622370  
C     1.1489760    2.5126970    0.0480580  
C     1.3418600    3.8854190   -0.1234590  
O     0.2888820    4.7315200    0.0084600  
C     2.6304770    4.4276030   -0.3902710  
O     2.6300530    5.8020280   -0.5210180  
C     3.7510480    3.6310790   -0.4934410  
H     5.5745900    1.1985680   -0.4589240  
H     1.7324450   -0.3221440    0.3459060  
H     0.5960780    5.6229250   -0.2326840  
H     3.5080330    6.1025940   -0.7982940  
H     4.7251910    4.0696690   -0.6995490  
C     7.2970600   -2.1128690   -1.6714400  
C     7.0907070   -3.3379950   -1.1216210  
C     5.8481280   -3.2768650   -0.3832460  
C     5.3526350   -1.8968390   -0.5340730  
N     6.2952940   -1.2247500   -1.2917940  
C     4.1754870   -1.4068520   -0.0151510  
C     3.3217270   -2.4122330    0.6548600  
O     2.1731110   -2.1843110    1.0153220  
C     3.8894620   -3.8585940    0.9244950  
O     3.2115710   -4.6145230    1.6061520  
C     5.1672480   -4.2157520    0.3381420  
H     7.7309070   -4.2027550   -1.2187480  
H     5.5370060   -5.2247020    0.4891770  
H     8.1032140   -1.7711470   -2.3071740  
H     6.0887100   -0.3555100   -1.7637260  
