60


C    -6.4920690    1.7596460    0.1390110  
C    -5.2052220    1.2401760   -0.0287020  
C    -5.3647150   -0.2004850   -0.1503810  
C    -6.7471700   -0.4724020   -0.0453480  
N    -7.3956440    0.7465660    0.1326700  
C    -7.2872640   -1.7583840   -0.1311070  
C    -6.3987590   -2.8042740   -0.3359170  
O    -6.8628840   -4.0786210   -0.4283230  
C    -5.0057250   -2.5518780   -0.4577910  
O    -4.2572950   -3.6875790   -0.6685100  
C    -4.4824180   -1.2735280   -0.3712210  
H    -8.3909010    0.8592640    0.2603790  
H    -8.3498680   -1.9620870   -0.0509010  
H    -6.0959530   -4.6595080   -0.5763870  
H    -3.3224970   -3.4542970   -0.7736240  
H    -3.4180670   -1.0925250   -0.4776090  
H    -6.8038160    2.7835080    0.2878610  
C    -4.0078380    2.0143910   -0.0630650  
C    -3.8350140    3.3806770   -0.1616190  
C    -2.4320690    3.6087070   -0.1623380  
C    -1.8287520    2.2337160   -0.0245530  
N    -2.7446280    1.3179540    0.0171530  
C    -0.3809260    2.0262050    0.0376430  
C     0.3669010    3.1633010   -0.1261930  
O     1.7029040    3.1903060   -0.1338090  
C    -0.2209440    4.5530630   -0.2915900  
O     0.6120890    5.4620250   -0.4088080  
C    -1.6508210    4.7212880   -0.2898810  
H    -4.6021000    4.1342660   -0.2725720  
H     1.9249840    4.1515930   -0.2579870  
H    -2.0458710    5.7257550   -0.3999860  
C     0.1914590    0.7111300    0.2650690  
C    -0.4246440   -0.4612720    0.6333320  
C     0.5847400   -1.4745280    0.7540010  
C     1.8746200   -0.8184540    0.4247790  
N     1.5730890    0.4873160    0.1401780  
C     3.0860060   -1.4598350    0.3892740  
C     3.1000620   -2.8863040    0.7739350  
O     4.1341380   -3.5195530    0.9029950  
C     1.7378400   -3.6006330    1.0836400  
O     1.7455370   -4.7988040    1.3252490  
C     0.5201350   -2.7991540    1.0725690  
H    -1.4811710   -0.5742560    0.8094820  
H    -0.4146520   -3.2980340    1.3111630  
H     2.2432450    1.2164540   -0.0589900  
C     5.3844670    2.1769220    1.7053950  
C     4.4155540    1.2312610    1.6223630  
C     4.8547930    0.3292230    0.5622470  
C     6.1576620    0.9099100    0.1178090  
N     6.4589890    1.9890750    0.7869890  
C     6.9563270    0.2927440   -0.9088630  
C     6.4841440   -0.8409490   -1.4749580  
O     7.1151030   -1.5176230   -2.4477770  
C     5.1503610   -1.4270000   -1.0911670  
O     4.7398160   -2.3651210   -1.7643840  
C     4.3513250   -0.8127540    0.0212900  
H     3.5232180    1.1388660    2.2247400  
H     7.9015730    0.7360760   -1.2015810  
H     6.5124880   -2.2563560   -2.6853050  
H     5.4292060    3.0215090    2.3833470  
