62


C    -1.2910230    2.6886350    2.2044650  
C    -2.1624200    3.7384230    2.3040250  
C    -1.9421040    4.5842630    1.1645690  
C    -0.9087570    3.9907630    0.3968240  
N    -0.5126890    2.8264840    1.0522490  
C    -0.4549000    4.5368190   -0.8092080  
C    -1.0460860    5.7142000   -1.2389950  
O    -0.6362920    6.2936030   -2.4048710  
C    -2.0761830    6.3298040   -0.4783140  
O    -2.5616450    7.4958980   -1.0388840  
C    -2.5278010    5.7817230    0.7072210  
H    -2.8655500    3.9031000    3.1093420  
H     0.3366870    4.0866000   -1.3961500  
H    -1.1580220    7.1062560   -2.5214210  
H    -3.2319820    7.8813040   -0.4556290  
H    -3.3227080    6.2657080    1.2713440  
H    -1.1005650    1.8675420    2.8819490  
C    -1.2645840   -1.3253760    0.0389850  
C     0.0375210   -1.6548330   -0.3012950  
C     0.8330120   -0.4810300   -0.1626170  
C    -0.0372310    0.5484410    0.2844930  
N    -1.3069040    0.0286660    0.3637800  
C     0.3965470    1.8511530    0.5813860  
C     1.7516540    2.1168920    0.3871680  
O     2.2381340    3.3571320    0.6327490  
C     2.6278050    1.1048110   -0.0906450  
O     3.9253520    1.5532810   -0.2489890  
C     2.2163100   -0.1985160   -0.3617700  
H     0.3631930   -2.6257410   -0.6448560  
H    -2.0712020    0.4881680    0.8397460  
H     3.1784770    3.3539710    0.3774410  
H     4.3978300    0.9679380   -0.8619920  
C     2.9653120   -2.1300150   -1.8469080  
C     3.1498330   -1.2236110   -0.8424180  
C     4.4736920   -1.5840190   -0.2843760  
C     4.9219660   -2.7397840   -1.1191010  
N     4.0362870   -3.0443750   -2.0273060  
C     6.1824360   -3.3940770   -0.8904400  
C     6.9525770   -2.9494530    0.1320930  
O     8.1441380   -3.4708310    0.4603330  
C     6.5183420   -1.8045740    1.0055990  
O     7.2684450   -1.4573720    1.9144540  
C     5.2236530   -1.1362080    0.7416630  
H     6.4825870   -4.2241870   -1.5201860  
H     8.4578730   -2.9523230    1.2332520  
H     4.9529400   -0.3092370    1.3901020  
H     2.1078300   -2.2037010   -2.5052870  
C    -2.4524990   -2.1346750    0.0472330  
C    -2.5899460   -3.4958160    0.1382710  
C    -3.9920570   -3.8096720    0.0980370  
C    -4.6985890   -2.5123880   -0.0314990  
N    -3.7216430   -1.5207710    0.0091610  
C    -6.0394950   -2.3811360   -0.1636310  
C    -6.8616180   -3.5920030   -0.1406070  
O    -8.0776670   -3.5663570   -0.2480870  
C    -6.1384820   -4.9756200    0.0453350  
O    -6.8159630   -5.9931220    0.0796890  
C    -4.6823890   -4.9840160    0.1570110  
H    -1.7833000   -4.2013670    0.2772820  
H    -6.5406790   -1.4235220   -0.2684070  
H    -4.1909990   -5.9461460    0.2651930  
H    -3.8607440   -0.6368820   -0.4633890  
