64


C     2.2696590   -0.5628090   -0.6725520  
C     1.3661990    0.2603120   -0.0452680  
C     2.0787960    1.4781760    0.2909910  
C     3.4126410    1.3302140   -0.1550790  
N     3.5045330    0.0704100   -0.7382000  
C     4.3937220    2.3116260    0.0111530  
C     4.0131710    3.4809930    0.6517370  
O     4.9205430    4.4805630    0.8381080  
C     2.6819320    3.6499340    1.1196710  
O     2.4623840    4.8612430    1.7451110  
C     1.7214750    2.6691790    0.9546020  
H     5.4126790    2.1856070   -0.3369640  
H     4.4579000    5.2098050    1.2862780  
H     1.5198010    4.9569830    1.9473560  
H     0.7115110    2.8193180    1.3275480  
H     2.1468070   -1.5451580   -1.1047620  
C    -0.4851710   -1.2345380    0.8079060  
C    -0.0286230   -0.0754580    0.2468840  
C    -1.2104520    0.7345300   -0.0302750  
C    -2.3763230   -0.0474610    0.4310300  
N    -1.8643970   -1.2200060    0.9611540  
C    -3.6919290    0.3263740    0.3272060  
C    -3.9284500    1.6336910   -0.3219200  
O    -5.0426230    2.1028690   -0.4938140  
C    -2.6955200    2.4840820   -0.8208340  
O    -2.9225640    3.5563700   -1.3633970  
C    -1.3560440    1.9512250   -0.6271680  
H    -0.5137990    2.5326310   -0.9863210  
H     0.0890950   -2.0850630    1.1515060  
H    -2.4427570   -2.0222200    1.1653100  
C    -4.7543750   -1.1932320    2.0431090  
C    -4.7939480   -0.4861050    0.8510710  
C    -6.0963530   -0.7560520    0.2699580  
C    -6.7746520   -1.6328020    1.1526510  
N    -5.9331130   -1.8779050    2.2220380  
C    -8.0605160   -2.1289420    0.9024840  
C    -8.6794410   -1.7267490   -0.2693950  
O    -9.9358990   -2.1658870   -0.5651890  
C    -8.0155070   -0.8504040   -1.1695430  
O    -8.7600240   -0.5370400   -2.2912050  
C    -6.7456790   -0.3699680   -0.9198010  
H    -6.1754550   -2.4123020    3.0417530  
H    -8.5774920   -2.7965680    1.5841670  
H   -10.1951370   -1.7425120   -1.4022810  
H    -8.3223830    0.1786120   -2.7762470  
H    -6.2751270    0.3235190   -1.6083810  
H    -3.9918130   -1.2021140    2.8095300  
C     4.9954790   -0.2796630   -2.6534720  
C     6.1630530   -0.9512510   -2.8802180  
C     6.5494640   -1.5807720   -1.6446430  
C     5.5674020   -1.2544410   -0.6780670  
N     4.6251930   -0.4574290   -1.3205890  
C     5.6149190   -1.6979480    0.6465740  
C     6.6899070   -2.4969960    1.0058780  
O     6.7935380   -2.9626220    2.2844210  
C     7.6885340   -2.8389960    0.0551070  
O     8.6914640   -3.6416500    0.5659610  
C     7.6312250   -2.3941660   -1.2529300  
H     6.6936310   -0.9950360   -3.8215940  
H     4.8608680   -1.4364070    1.3804720  
H     7.6144490   -3.4819840    2.3354260  
H     9.3570100   -3.8029790   -0.1188870  
H     8.4082780   -2.6699330   -1.9632730  
H     4.3742980    0.3200360   -3.3025100  
