60


C    -5.1093580    0.1346950    0.1503390  
C    -5.2972460   -1.1380610   -0.4041530  
C    -6.6670490   -1.4695180   -0.2748760  
C    -7.3030440   -0.3634380    0.3676570  
N    -6.3428700    0.5798520    0.6103770  
C    -8.6743570   -0.3449110    0.6519570  
C    -9.4150960   -1.4546670    0.2814390  
O   -10.7492910   -1.4930300    0.5300980  
C    -8.7963410   -2.5707450   -0.3648160  
O    -9.6801330   -3.5859940   -0.6619880  
C    -7.4487640   -2.5903660   -0.6443680  
H    -4.5453650   -1.7260740   -0.9085490  
H    -6.4659790    1.5195690    0.9667490  
H    -9.1636730    0.4918230    1.1385500  
H   -11.0870420   -2.3425820    0.1959170  
H    -9.2127480   -4.3093970   -1.1056040  
H    -6.9973820   -3.4491690   -1.1365010  
C    -0.7722190   -0.8099350   -0.0538890  
C    -2.1190270   -0.8672050    0.0699100  
C    -2.6300690    0.4786530    0.1288110  
C    -1.4586780    1.3663660    0.0563410  
N    -0.3243840    0.5212940   -0.0858680  
C    -1.5087170    2.7230610    0.1112600  
C    -2.8099410    3.3430630    0.2997160  
O    -2.9799890    4.5514880    0.3466910  
C    -4.0633480    2.4204080    0.4751490  
O    -5.1100560    2.9542810    0.8146490  
C    -3.9262040    0.9546390    0.2414050  
H    -2.6954170   -1.7739890    0.1651570  
H    -0.6306840    3.3466530    0.0300880  
H    -0.0552780   -1.6146860   -0.0976960  
C     0.9981720    0.8585270   -0.2170010  
C     2.0695730   -0.0097960   -0.3931780  
C     3.2093810    0.8321300   -0.4445510  
C     2.6650950    2.2244230   -0.2943190  
N     1.3626940    2.2172020   -0.1615290  
C     3.5079120    3.3805300   -0.2813750  
C     4.8399910    3.1713420   -0.4225630  
O     5.7547020    4.1376400   -0.4171650  
C     5.4409480    1.7838990   -0.6183060  
O     6.6598020    1.7440260   -0.7981460  
C     4.5602360    0.6216720   -0.5947850  
H     2.0609320   -1.0867890   -0.4532680  
H     3.0850220    4.3704060   -0.1549980  
H     6.6158640    3.6797600   -0.5702560  
C     4.6942100   -1.5064940   -1.8740970  
C     5.3754360   -2.6777190   -1.8628760  
C     6.2985370   -2.6305710   -0.7491460  
C     6.0966330   -1.3114570   -0.1007650  
N     5.1054070   -0.6567770   -0.8375410  
C     6.7501940   -0.9063620    1.0148620  
C     7.7412080   -1.8048100    1.6063900  
O     8.3748490   -1.5209290    2.6109510  
C     7.9902890   -3.1952710    0.9179090  
O     8.8180670   -3.9547850    1.3962110  
C     7.2013540   -3.5263490   -0.2708950  
H     5.2614520   -3.4917180   -2.5642800  
H     6.5906340    0.0553350    1.4880480  
H     7.3619540   -4.4976090   -0.7290390  
H     3.9299050   -1.1584920   -2.5559130  
