60


C    -3.8550260   -3.3775680    3.0429810  
C    -4.8427480   -4.0703050    2.3938720  
C    -5.1000480   -3.3827350    1.1597790  
C    -4.2207540   -2.2707080    1.1132210  
N    -3.4644180   -2.3001670    2.2675440  
C    -4.1985940   -1.3394610    0.0517100  
C    -5.1101840   -1.5683890   -0.9814860  
O    -5.1420700   -0.7286370   -2.0572550  
C    -5.9950610   -2.6771190   -0.9497380  
O    -6.8200070   -2.7530160   -2.0568070  
C    -5.9991730   -3.5821570    0.0938840  
H    -5.3309970   -4.9666690    2.7508650  
H    -2.8352370   -1.5671850    2.5560130  
H    -5.8306370   -1.0603950   -2.6599230  
H    -7.3919720   -3.5309660   -1.9827330  
H    -6.6883180   -4.4242440    0.0913480  
H    -3.3828250   -3.5642410    3.9971720  
C    -1.9068080   -0.2949840    0.2168670  
C    -3.2533530   -0.2093330    0.0355950  
C    -3.5574430    1.2090520   -0.1299220  
C    -2.2705210    1.9346250   -0.0303560  
N    -1.2883170    0.9658750    0.2099680  
C    -2.1383160    3.2722860   -0.2061870  
C    -3.3428820    4.0644110   -0.4556350  
O    -3.3127330    5.2735340   -0.6253950  
C    -4.7232430    3.3209670   -0.4996570  
O    -5.7423000    3.9699630   -0.6754260  
C    -4.7263530    1.8641220   -0.3395920  
H    -1.1934450    3.7959750   -0.1532370  
H    -5.6737120    1.3458150   -0.4302370  
H    -1.2944920   -1.1769660    0.3293610  
C     1.9590110   -1.1435260   -1.6760740  
C     3.0584330   -0.4992880   -1.1816390  
C     2.4943590    0.5359290   -0.2840310  
C     1.0258430    0.3327880   -0.3751690  
N     0.7290480   -0.6425570   -1.1887920  
C     0.0916270    1.1730150    0.3570890  
C     0.6239770    2.1522430    1.1528940  
O    -0.1146560    2.9602410    1.9358360  
C     2.0849510    2.4021770    1.2148200  
O     2.4877170    3.3032500    1.9548970  
C     3.0106530    1.5470570    0.4372170  
H     0.5339250    3.5627140    2.3646760  
H     4.0679980    1.7810900    0.5071910  
H     1.9452710   -1.9839860   -2.3589300  
C     4.9588460   -1.0714120   -2.7409600  
C     4.4451060   -0.7306380   -1.5198390  
C     5.6273080   -0.7203980   -0.6291100  
C     6.7651740   -1.0739900   -1.5295950  
N     6.3583550   -1.2798050   -2.7538100  
C     8.1126720   -1.1805870   -1.0417160  
C     8.3272520   -0.9786780    0.2816770  
O     9.5308590   -1.0490170    0.8691240  
C     7.1987490   -0.6598510    1.2216250  
O     7.4646570   -0.5003810    2.4103050  
C     5.8202760   -0.5485050    0.6916190  
H     8.9171940   -1.4275470   -1.7254160  
H     9.3740980   -0.8675300    1.8215110  
H     5.0364810   -0.3346460    1.4113370  
H     4.4098890   -1.1663640   -3.6704760  
