60


C    -6.5545200    2.3627520   -0.1926130  
C    -5.9716630    3.5317550   -0.6007610  
C    -4.5620730    3.2814310   -0.7084910  
C    -4.3464450    1.9325230   -0.3323690  
N    -5.5760660    1.4007930   -0.0064260  
C    -3.0645510    1.3284270   -0.3388160  
C    -1.9957380    2.1233520   -0.8132650  
O    -0.7677170    1.5635070   -0.9831600  
C    -2.2075800    3.4787440   -1.1732320  
O    -1.0792580    4.1629590   -1.5694800  
C    -3.4620020    4.0620700   -1.1045590  
H    -6.4826140    4.4620250   -0.8064150  
H    -5.7511750    0.4162470    0.1241270  
H    -0.0039620    2.1050690   -0.6351000  
H    -1.3456060    5.0329320   -1.9043740  
H    -3.5944430    5.1051800   -1.3862390  
H    -7.5924910    2.1271320   -0.0051260  
C    -2.8531220   -0.0159800    0.1756680  
C    -3.6117910   -0.7705890    1.0478050  
C    -2.9131400   -2.0006960    1.2962480  
C    -1.6653540   -1.9300430    0.4969930  
N    -1.7088420   -0.7402900   -0.1697670  
C    -0.7028860   -2.9070700    0.4513300  
C    -0.9128430   -4.0853150    1.3191030  
O    -0.0607600   -4.9422660    1.4818470  
C    -2.2589410   -4.2037670    2.1183750  
O    -2.4667440   -5.2220010    2.7622710  
C    -3.1964390   -3.0884410    2.0692560  
H    -4.5117270   -0.4574660    1.5547550  
H    -4.1089150   -3.1713100    2.6520830  
H    -0.9601030   -0.3077220   -0.6980320  
C     2.7005160    0.0264600   -0.1707440  
C     1.5117250   -0.5071990    0.2486550  
C     1.3923870   -1.7857690   -0.4312140  
C     2.6228050   -1.8559370   -1.2708330  
N     3.3813080   -0.8086480   -1.1140840  
C     2.9213960   -2.9874000   -2.1096120  
C     2.0515250   -4.0214640   -2.0981870  
O     2.1954310   -5.1382240   -2.8278100  
C     0.7881390   -3.9856950   -1.2805110  
O    -0.0110540   -4.8982680   -1.4580420  
C     0.5092340   -2.8278240   -0.3670680  
H     0.8300400   -0.0900620    0.9745990  
H     3.8242710   -2.9936200   -2.7097460  
H     1.3897020   -5.6715390   -2.6473970  
C     1.1992380    4.1438970    0.6692430  
C     2.3190040    4.7406490    1.1274120  
C     3.3581960    3.7267670    1.0382440  
C     2.6590960    2.5050810    0.5073550  
N     1.4014090    2.7783290    0.2813060  
C     3.3647710    1.2523940    0.2758310  
C     4.7167880    1.2806870    0.5201220  
O     5.5156830    0.2211210    0.4074750  
C     5.4376020    2.5058500    1.0218410  
O     6.6470710    2.4106120    1.2198500  
C     4.6827560    3.7411500    1.2742600  
H     2.4441960    5.7583640    1.4690090  
H     6.4142330    0.5411630    0.6517860  
H     5.2347250    4.6044620    1.6325370  
H     0.2114370    4.5635500    0.5399120  
