64


C     0.5493390    1.7112210   -0.0069210  
C     1.5102130    0.6990000   -0.0950620  
C     2.7840380    1.3217250   -0.1145190  
C     2.5589440    2.7362400   -0.0278350  
N     1.2090820    2.9312190    0.0317660  
C     3.6044650    3.6654700    0.0051370  
C     4.8922180    3.1610340   -0.0484830  
O     5.9519440    4.0058100   -0.0199020  
C     5.1418720    1.7551060   -0.1463400  
O     6.4791460    1.4570870   -0.2239220  
C     4.1196430    0.8168270   -0.1875810  
H     1.3013220   -0.3613670   -0.1135310  
H     0.7010280    3.8027390    0.1009460  
H     3.4428940    4.7353890    0.0763370  
H     6.7571780    3.4582280   -0.0608500  
H     6.6052590    0.4956780   -0.1268890  
C    -0.8713470    1.6840840    0.0477550  
C    -1.7575760    0.6283220    0.0154380  
C    -3.0585370    1.2080140    0.0884820  
C    -2.8010530    2.6859700    0.1611500  
N    -1.5283890    2.9610470    0.1433750  
C    -3.8723310    3.6425190    0.2306300  
C    -5.1295390    3.1518230    0.1756900  
O    -6.2325690    3.9101530    0.1965530  
C    -5.4179450    1.6679140    0.0493400  
O    -6.6275350    1.3888100   -0.0756660  
C    -4.3392590    0.6847660    0.0779870  
H    -1.5254660   -0.4231200   -0.0562110  
H    -3.6640070    4.7039440    0.3002410  
H    -6.9792040    3.2736780    0.1100860  
C    -2.8180850   -2.6120100    2.7219950  
C    -3.0835210   -1.3935060    2.1526770  
C    -3.9774310   -1.6197650    1.0500960  
C    -4.2291720   -3.0188930    1.0143730  
N    -3.4989110   -3.5968520    2.0328490  
C    -5.0997810   -3.6174840    0.0998220  
C    -5.7550800   -2.7735750   -0.7839200  
O    -6.6335900   -3.2811340   -1.6906860  
C    -5.5350620   -1.3715550   -0.7691620  
O    -6.2525430   -0.6895730   -1.7314880  
C    -4.6286450   -0.7666350    0.1084920  
H    -2.6824180   -0.4464180    2.4808160  
H    -3.5061450   -4.5768550    2.2670640  
H    -5.2932380   -4.6851450    0.0769820  
H    -6.9837660   -2.5060370   -2.1712620  
H    -6.6570800    0.0863490   -1.2854730  
H    -2.1930740   -2.8637510    3.5671770  
C     6.6925160   -2.0385980    2.1692050  
C     5.9978860   -0.9355890    1.7406900  
C     5.2932250   -1.3173110    0.5430060  
C     5.6031460   -2.6822410    0.3026700  
N     6.4580800   -3.0903680    1.3062160  
C     5.0701890   -3.4046940   -0.7710600  
C     4.2065580   -2.7312970   -1.6189050  
O     3.6579900   -3.3810470   -2.6833700  
C     3.8897230   -1.3616560   -1.4082600  
O     3.0542900   -0.8463620   -2.3738110  
C     4.4166460   -0.6301340   -0.3438240  
H     5.9646740    0.0233690    2.2383800  
H     6.8422840   -4.0176480    1.3995790  
H     5.3003020   -4.4490410   -0.9549440  
H     3.0838480   -2.7424120   -3.1420990  
H     2.7577000    0.0421500   -2.1135240  
H     7.3342590   -2.1655540    3.0294940  
