62


C    -5.2136950    1.6918440    1.4514560  
C    -6.4660350    1.4695890    1.9529850  
C    -6.9456950    0.2465200    1.3738430  
C    -5.9208720   -0.2380720    0.5198120  
N    -4.8611790    0.6658880    0.5755910  
C    -6.0385030   -1.4406210   -0.1954870  
C    -7.2213290   -2.1537370   -0.0576450  
O    -7.3856630   -3.3284960   -0.7305130  
C    -8.2613300   -1.6762530    0.7823970  
O    -9.3732340   -2.4948990    0.8112200  
C    -8.1342060   -0.4986440    1.4967830  
H    -6.9912490    2.1075250    2.6505970  
H    -5.2405960   -1.8415560   -0.8113850  
H    -8.2630510   -3.6762300   -0.4943760  
H   -10.0308530   -2.1294410    1.4212980  
H    -8.9405070   -0.1585010    2.1437040  
H    -4.5258140    2.5088550    1.6144610  
C    -0.6227250    0.6083490    1.8854330  
C    -1.9870470    0.6168530    1.8621450  
C    -2.3971910    0.6057110    0.4820010  
C    -1.2290940    0.5881630   -0.3141320  
N    -0.1514860    0.5935790    0.5693680  
C    -1.2424280    0.5416430   -1.7101450  
C    -2.4865070    0.5213260   -2.3232570  
O    -2.5726670    0.4769570   -3.6799950  
C    -3.6835870    0.5637960   -1.5589430  
O    -4.8290750    0.5884660   -2.3160260  
C    -3.6525460    0.6044610   -0.1671200  
H    -2.6359000    0.6266360    2.7261030  
H    -0.3398800    0.5225740   -2.3102760  
H    -3.5194060    0.4625900   -3.9079950  
H    -5.6046730    0.3994780   -1.7599460  
H     0.0800380    0.6147000    2.7056890  
C     1.9045630   -0.6203390    0.0190100  
C     3.2018860   -0.3417300   -0.2832560  
C     3.3266800    1.1185900   -0.2847250  
C     1.9900090    1.6628330    0.0435430  
N     1.1640430    0.5527380    0.2041530  
C     1.6867850    2.9777250    0.1509100  
C     2.7539200    3.9488210   -0.0907710  
O     2.5861730    5.1549780   -0.0138890  
C     4.1770110    3.4013400   -0.4748200  
O     5.0749910    4.1931880   -0.7063730  
C     4.3712050    1.9458500   -0.5431390  
H     0.6946060    3.3402180    0.3970100  
H     5.3601990    1.5819660   -0.8020200  
H     1.4093570   -1.5751030    0.1340270  
C     4.1659560   -2.3173380   -1.5202110  
C     4.2465190   -1.3184050   -0.5936230  
C     5.5540820   -1.4553890    0.0464050  
C     6.2140730   -2.6176340   -0.5982680  
N     5.3107070   -3.1002800   -1.5273100  
C     7.4547610   -3.0692530   -0.2868100  
C     8.1983620   -2.3838440    0.7674790  
O     9.3201660   -2.7167200    1.1157740  
C     7.5066810   -1.1689980    1.4871590  
O     8.0988780   -0.5983870    2.3881380  
C     6.1640940   -0.7687150    1.0467660  
H     7.9209820   -3.9199300   -0.7743990  
H     5.7025550    0.0757180    1.5483220  
H     3.3566170   -2.5350300   -2.2050150  
H     5.4936210   -3.8552960   -2.1697300  
