60


C     7.0435970    2.2475570    0.8500210  
C     7.9747370    1.4650450    0.2213720  
C     7.2951400    0.2872620   -0.2405260  
C     5.9334230    0.4177680    0.1363130  
N     5.8072670    1.6260760    0.7914760  
C     4.9646010   -0.5786050   -0.1201510  
C     5.4138850   -1.7211200   -0.7890090  
O     4.5246700   -2.6951410   -1.1206350  
C     6.7695640   -1.8582270   -1.1805000  
O     7.0340190   -3.0391340   -1.8469010  
C     7.7066840   -0.8775540   -0.9171020  
H     9.0241940    1.6963020    0.1020250  
H     4.9696690    1.9516230    1.2475530  
H     5.0326750   -3.4387210   -1.4900850  
H     7.9902150   -3.1397460   -1.9639790  
H     8.7413270   -1.0068780   -1.2280250  
H     7.1497260    3.2076590    1.3348440  
C     1.8430670    2.4407690   -0.9754590  
C     2.9800000    1.7157150   -0.9227810  
C     2.7410010    0.5714310   -0.0609680  
C     1.3407060    0.6840150    0.3989190  
N     0.8231500    1.8439740   -0.2018800  
C     0.7387790   -0.1857990    1.2500590  
C     1.5013850   -1.3464290    1.6989430  
O     1.0227160   -2.2129720    2.4130630  
C     2.9990100   -1.4748980    1.2521670  
O     3.6730740   -2.3606810    1.7384770  
C     3.5578020   -0.4623410    0.3061070  
H     3.8979650    1.9287040   -1.4497560  
H    -0.2705280   -0.0709260    1.6249510  
H     1.6127500    3.3357710   -1.5354380  
C    -0.4573340    2.3596430   -0.1120590  
C    -0.8668970    3.6606060   -0.2070650  
C    -2.3055030    3.6607050   -0.1404350  
C    -2.7141800    2.2500130    0.0143170  
N    -1.5477410    1.5056260    0.0743690  
C    -4.0060290    1.7913360    0.0276230  
C    -5.0687780    2.8331510    0.0026870  
O    -6.2429910    2.5831520    0.1879210  
C    -4.6478430    4.3344270   -0.1900090  
O    -5.5259200    5.1746270   -0.3117330  
C    -3.2265690    4.6623650   -0.2167520  
H    -0.2305410    4.5307590   -0.2712560  
H    -2.9495520    5.7045260   -0.3421710  
H    -1.5357060    0.5158510   -0.1423780  
C    -4.3400270    0.3786720    0.0804170  
C    -3.6745290   -0.6356320    0.7252910  
C    -4.4095950   -1.8435100    0.4193420  
C    -5.5153170   -1.3774300   -0.4778440  
N    -5.4753680   -0.0923940   -0.6703370  
C    -6.4732060   -2.2996820   -1.0330630  
C    -6.3557880   -3.6051770   -0.6956190  
O    -7.1763630   -4.5736340   -1.1259810  
C    -5.2600970   -4.1011980    0.2209510  
O    -5.2361190   -5.3068980    0.4664150  
C    -4.2835940   -3.1461080    0.7615900  
H    -2.8535070   -0.5543670    1.4248610  
H    -7.2603480   -1.9376900   -1.6848050  
H    -6.8395070   -5.4003040   -0.7126720  
H    -3.5032600   -3.5407080    1.4052750  
