60


C    -5.0556010   -0.2927070   -2.2265390  
C    -4.9597260   -0.2442420   -0.8444500  
C    -6.1322870    0.4771920   -0.3872300  
C    -6.8749800    0.8407110   -1.5378530  
N    -6.1939600    0.3590370   -2.6407720  
C    -8.0680220    1.5725230   -1.4793270  
C    -8.5247630    1.9427920   -0.2252490  
O    -9.6861660    2.6457310   -0.1003630  
C    -7.7934250    1.5895440    0.9409470  
O    -8.3762750    2.0255580    2.1160260  
C    -6.6143350    0.8747260    0.8758960  
H    -6.5306520    0.3910530   -3.5904800  
H    -8.6367540    1.8443660   -2.3626730  
H    -9.8446190    2.7655120    0.8524320  
H    -7.9325920    1.6060450    2.8684650  
H    -6.0928570    0.5892780    1.7832810  
H    -4.4277060   -0.8095230   -2.9393820  
C    -0.6650090   -0.0964750   -1.5630740  
C    -0.1928320   -0.8686430   -0.5337250  
C    -1.3711860   -1.2899120    0.2306920  
C    -2.5419890   -0.7034790   -0.4538150  
N    -2.0410800   -0.0218770   -1.5519380  
C    -3.8522790   -0.8052520   -0.0643700  
C    -4.0800560   -1.5438940    1.1945450  
O    -5.1845070   -1.6923650    1.6934160  
C    -2.8450390   -2.1707780    1.9477220  
O    -3.0534130   -2.7553240    3.0000550  
C    -1.5131560   -2.0087710    1.3759840  
H    -0.6813060   -2.4743020    1.8901590  
H    -0.1023940    0.3871240   -2.3507810  
H    -2.6111750    0.5720800   -2.1363800  
C     3.4083560    1.7052900   -0.4876350  
C     2.1419970    1.2248760   -0.5265780  
C     2.2036600   -0.2076320   -0.3471280  
C     3.6379160   -0.5355590   -0.1895730  
N     4.3392800    0.6691470   -0.3243600  
C     4.1173310   -1.7707170    0.1039160  
C     3.1620200   -2.8607100    0.2390230  
O     3.4864230   -3.9993040    0.5396390  
C     1.6412790   -2.5603600   -0.0118130  
O     0.8578520   -3.4941260    0.0129740  
C     1.2183480   -1.1636610   -0.2818910  
H     1.2463420    1.8177730   -0.6326200  
H     5.1664170   -1.9926340    0.2450130  
H     3.7632270    2.7223050   -0.5480370  
C     6.5607790    3.6282320    1.9197360  
C     7.8369870    3.2663670    1.6592150  
C     7.7365130    2.1180870    0.7627370  
C     6.2647650    1.9246000    0.5918390  
N     5.5856770    2.8066300    1.2617660  
C     5.7298200    0.8536200   -0.2388960  
C     6.6328270    0.0702520   -0.8999130  
O     6.2886240   -0.9164760   -1.7437940  
C     8.1069410    0.2465430   -0.7309460  
O     8.8445240   -0.5074530   -1.3664870  
C     8.6247140    1.3180050    0.1442220  
H     8.7491980    3.7132590    2.0289860  
H     7.1410870   -1.3035390   -2.0472080  
H     9.7031030    1.4090080    0.2302760  
H     6.2073530    4.4382950    2.5455520  
