64


C    -5.1076230    1.3281360    1.9054240  
C    -6.4609400    1.1574010    1.8065450  
C    -6.6942750    0.2214530    0.7433530  
C    -5.4226900   -0.1506530    0.2329800  
N    -4.4563290    0.5429650    0.9566130  
C    -5.2687890   -1.0815600   -0.8074150  
C    -6.4224770   -1.6288040   -1.3525810  
O    -6.3277800   -2.5391270   -2.3640180  
C    -7.7014270   -1.2567360   -0.8628810  
O    -8.7499500   -1.8840120   -1.5085980  
C    -7.8469990   -0.3519950    0.1734560  
H    -7.2077390    1.6463600    2.4170800  
H    -4.2989510   -1.4139520   -1.1626720  
H    -7.2333540   -2.8109290   -2.5928390  
H    -9.5875510   -1.6135740   -1.1044190  
H    -8.8382090   -0.0918320    0.5401100  
H    -4.5241210    1.9598550    2.5592810  
C    -1.0388280   -0.3784150    3.6437230  
C    -2.3014680   -0.2115300    3.1365250  
C    -2.1524950    0.1902770    1.7660990  
C    -0.7613430    0.2437180    1.5010970  
N    -0.1063990   -0.1051480    2.6599740  
C    -0.2341750    0.5844320    0.2425110  
C    -1.1424410    0.8871620   -0.7692780  
O    -0.6983300    1.2141070   -2.0104810  
C    -2.5395260    0.8801280   -0.5138020  
O    -3.2982510    1.2661930   -1.5949880  
C    -3.0537370    0.5286280    0.7313510  
H    -3.2291120   -0.3616640    3.6694990  
H     0.8962110   -0.1471260    2.7620750  
H    -1.4882870    1.3701590   -2.5593560  
H    -4.2163300    0.9617200   -1.4879600  
H    -0.7194460   -0.6757630    4.6323810  
C     1.9794110   -0.5147690    0.1405390  
C     3.3101190   -0.1672190   -0.0413010  
C     3.3138980    1.2629720   -0.3127870  
C     1.9669800    1.6977180   -0.2677400  
N     1.1686510    0.5892440    0.0214440  
C     1.5758810    3.0201710   -0.4909900  
C     2.5708290    3.9364610   -0.7933110  
O     2.2503670    5.2431600   -1.0247200  
C     3.9233370    3.5215370   -0.8700100  
O     4.8046100    4.5386110   -1.1902260  
C     4.3026520    2.2114380   -0.6416230  
H     0.5397160    3.3345700   -0.4566240  
H     3.0805780    5.7089700   -1.2244820  
H     5.7058050    4.1842350   -1.2101650  
H     5.3482410    1.9297400   -0.6867840  
H     1.5517060   -1.4902920    0.3055870  
C     3.3594710   -4.4585980   -0.9595990  
C     4.6550550   -4.7846220   -0.7591260  
C     5.2964600   -3.5436920   -0.3361840  
C     4.1934010   -2.5305830   -0.3444080  
N     3.0715870   -3.0773650   -0.7133240  
C     4.4132450   -1.1211970    0.0154260  
C     5.6946390   -0.8238900    0.4053610  
O     6.0832740    0.3979960    0.8461030  
C     6.8005810   -1.8112470    0.4209350  
O     7.9155290   -1.4326260    0.8009820  
C     6.5490170   -3.2084440    0.0159980  
H     5.1337570   -5.7463810   -0.8812750  
H     7.0363430    0.2824930    1.0624330  
H     7.3911030   -3.8937770    0.0396670  
H     2.5468780   -5.1011590   -1.2766410  
