60


C     6.4736270   -3.3536030   -2.2401090  
C     7.7157440   -2.9989200   -1.7839930  
C     7.5261320   -1.9564680   -0.8156780  
C     6.1296900   -1.7243320   -0.7204400  
N     5.5142610   -2.5980650   -1.5915510  
C     5.5547030   -0.7364770    0.1165830  
C     6.4633920    0.0178920    0.8693870  
O     6.0100430    0.9796600    1.7288830  
C     7.8600010   -0.2084310    0.7887420  
O     8.5997950    0.6251720    1.6083320  
C     8.4005900   -1.1787860   -0.0328440  
H     8.6568000   -3.4281770   -2.0989790  
H     4.5280170   -2.5935540   -1.8019560  
H     6.7902670    1.3401420    2.1868760  
H     9.5288420    0.3519930    1.5967990  
H     9.4774090   -1.3279980   -0.0773300  
H     6.1830370   -4.0947000   -2.9711960  
C     3.1453230   -1.5327850    0.1938620  
C     4.1023430   -0.5614800    0.1973350  
C     3.3215820    0.6977000    0.2081200  
C     1.8986280    0.2603750    0.2181060  
N     1.8142420   -1.0395190    0.2092290  
C     0.7767390    1.2069660    0.2189430  
C     1.1400890    2.5289340    0.1960950  
O     0.2635780    3.5558490    0.2337250  
C     2.5561600    2.9861330    0.1585620  
O     2.7646740    4.2031470    0.1493590  
C     3.6516100    1.9987450    0.1571140  
H     0.8301180    4.3620480    0.2235470  
H     4.6677550    2.3739460    0.1536620  
H     3.2949030   -2.6057720    0.2169030  
C    -1.0130590   -0.4823850    0.7821980  
C    -0.5949070    0.7139660    0.2618980  
C    -1.8385310    1.3211960   -0.2697600  
C    -2.9006900    0.3243080    0.0655480  
N    -2.4044470   -0.7122440    0.6806930  
C    -4.2950540    0.5141060   -0.2925460  
C    -4.5928220    1.6509010   -0.9832460  
O    -5.8308860    1.9937570   -1.3574450  
C    -3.5407460    2.6502700   -1.3683730  
O    -3.9070830    3.6397490   -2.0007100  
C    -2.1362890    2.4256530   -0.9803820  
H    -5.7297620    2.8417440   -1.8458950  
H    -1.4182460    3.1838280   -1.2630300  
H    -0.3922980   -1.2401880    1.2360380  
C    -5.8456890   -1.3937450    3.4610520  
C    -5.1049450   -0.6362600    2.6205540  
C    -5.6063450   -0.9458840    1.2851930  
C    -6.6914010   -1.9485360    1.5329890  
N    -6.8298940   -2.2021310    2.8018500  
C    -7.4680420   -2.5101050    0.4580580  
C    -7.1845260   -2.1016640   -0.7988770  
O    -7.8156180   -2.5465050   -1.8986930  
C    -6.0950820   -1.1023040   -1.0866320  
O    -5.8719310   -0.8435130   -2.2657360  
C    -5.3214030   -0.4949400    0.0388480  
H    -4.2984930    0.0392850    2.8625940  
H    -8.2456160   -3.2353230    0.6704380  
H    -7.3771970   -2.0904230   -2.6504050  
H    -5.7761790   -1.4519040    4.5408170  
