64


C    -3.0329550   -0.9053270   -2.0464240  
C    -4.3635430   -1.2050930   -2.1335790  
C    -4.6918260   -2.0169090   -0.9954630  
C    -3.5019050   -2.1812270   -0.2419400  
N    -2.4869100   -1.4934100   -0.9040340  
C    -3.4620780   -2.9008730    0.9577000  
C    -4.6438860   -3.4754610    1.3980660  
O    -4.6603760   -4.1931080    2.5621980  
C    -5.8430440   -3.3290180    0.6533040  
O    -6.9367020   -3.9607110    1.2204130  
C    -5.8799700   -2.6117180   -0.5277750  
H    -5.0330530   -0.8877820   -2.9214220  
H    -2.5538400   -3.0296710    1.5342210  
H    -5.5713300   -4.5093830    2.6879040  
H    -7.7131600   -3.8197220    0.6591410  
H    -6.8122030   -2.5056570   -1.0796500  
H    -2.3965030   -0.3400330   -2.7125240  
C    -0.3251470    2.1837360    0.0151820  
C     0.8921100    1.5743640    0.3297970  
C     0.7194740    0.1726060    0.1959090  
C    -0.6268830   -0.0423290   -0.2124660  
N    -1.2305640    1.1802150   -0.3079830  
C    -1.1515250   -1.3233360   -0.4702310  
C    -0.2848280   -2.4030640   -0.3057230  
O    -0.7147440   -3.6641830   -0.5557270  
C     1.0528620   -2.2118860    0.1474290  
O     1.7453640   -3.3864470    0.3185880  
C     1.5672970   -0.9459240    0.3906640  
H     1.8176700    2.0782540    0.5581180  
H    -2.1632930    1.3847160   -0.6474040  
H     0.0384640   -4.2601450   -0.3902030  
H     2.7019530   -3.2112850    0.3546390  
C     1.4915960    5.8884660    1.7243780  
C     1.1772140    4.5942890    1.4476750  
C     0.0395560    4.5997750    0.5555850  
C    -0.2973570    6.0210510    0.3421690  
N     0.6349380    6.7497740    1.0525930  
C    -1.3269670    6.4927500   -0.4174810  
C    -2.1938720    5.5260700   -1.0478850  
O    -3.1428400    5.8108030   -1.7653750  
C    -1.9108070    3.9987670   -0.7839760  
O    -2.7418680    3.2032280   -1.2012870  
C    -0.6862270    3.5839140   -0.0440780  
H     1.6661600    3.7289630    1.8641170  
H    -1.5207410    7.5494060   -0.5711510  
H     2.2689340    6.2858740    2.3629750  
H     0.6308680    7.7540780    1.1362230  
C     3.2613360   -0.1938200    2.0633630  
C     4.6158540   -0.2706860    2.2366130  
C     5.1533120   -0.9457540    1.0891740  
C     4.0587220   -1.2516550    0.2384700  
N     2.9000410   -0.7845510    0.8541690  
C     4.2196920   -1.8965550   -0.9986770  
C     5.5084580   -2.2539170   -1.3709570  
O     5.7191320   -2.8814310   -2.5630110  
C     6.6121940   -1.9666590   -0.5257840  
O     7.8264590   -2.3868010   -1.0332850  
C     6.4499990   -1.3167910    0.6845370  
H     5.1683690    0.1025850    3.0881290  
H     3.3946480   -2.0843850   -1.6777420  
H     6.6766080   -3.0325540   -2.6450890  
H     8.5366340   -2.1393270   -0.4229540  
H     7.3132290   -1.0972070    1.3099830  
H     2.4915240    0.2115760    2.7038940  
