60


C     5.2413860   -2.1579330   -0.0629320  
C     5.2144730   -0.7674280   -0.0563070  
C     6.5846150   -0.3436490    0.1901370  
C     7.3600460   -1.5193590    0.3396370  
N     6.5114970   -2.6025670    0.1713530  
C     8.7298900   -1.5094990    0.6241150  
C     9.3402970   -0.2732410    0.7624420  
O    10.6733180   -0.1958470    1.0288120  
C     8.5820130    0.9195430    0.6235640  
O     9.3250700    2.0715630    0.7862770  
C     7.2285590    0.8995960    0.3475690  
H     6.8016450   -3.5683710    0.1467910  
H     9.3156170   -2.4163460    0.7334210  
H    10.9064170    0.7487510    1.0557150  
H     8.7903530    2.8393820    0.5341080  
H     6.6838250    1.8276710    0.2158270  
H     4.4437290   -2.8527110   -0.2823740  
C     1.0320250   -1.4119340    1.2717530  
C     2.3740550   -1.4548420    1.1193630  
C     2.7671630   -0.3816080    0.2190400  
C     1.5313300    0.3292680   -0.1419720  
N     0.4983150   -0.3710630    0.4826080  
C     1.4391140    1.4483570   -0.9077310  
C     2.6755250    2.0074060   -1.4143810  
O     2.7421910    3.0317310   -2.0778770  
C     4.0240430    1.2608220   -1.0769600  
O     5.0547050    1.7447930   -1.5081890  
C     3.9995010    0.0077010   -0.2610050  
H     3.0434340   -2.1489770    1.6040400  
H     0.5005720    1.9359330   -1.1466450  
H     0.3621050   -2.0206480    1.8628130  
C    -1.3034750    0.9934270    1.4498690  
C    -2.6333530    1.1692200    1.2551030  
C    -3.0366680    0.2982280    0.1687460  
C    -1.8244150   -0.4164480   -0.2757360  
N    -0.7964580    0.0564080    0.5391420  
C    -1.7675630   -1.3557370   -1.2511690  
C    -3.0074720   -1.6942510   -1.9375560  
O    -3.0937070   -2.5639070   -2.7880270  
C    -4.3120780   -0.8985500   -1.5584920  
O    -5.3225080   -1.0753620   -2.2109610  
C    -4.2463280    0.0693610   -0.4316010  
H    -3.2774930    1.8233840    1.8235200  
H    -0.8534150   -1.8651450   -1.5343360  
H    -0.6319880    1.4453530    2.1670520  
C    -5.4430000    2.2213100   -0.0792520  
C    -6.6734350    2.6697060    0.2638390  
C    -7.5099640    1.5113910    0.4955680  
C    -6.6544580    0.3258530    0.2481950  
N    -5.3902520    0.8180650   -0.1075200  
C    -7.0660990   -0.9530000    0.4150180  
C    -8.4491800   -1.1905020    0.8340260  
O    -8.8980720   -2.3102260    1.0190580  
C    -9.3816020    0.0518610    1.0654130  
O   -10.5396850   -0.1293630    1.4059040  
C    -8.8075930    1.3864900    0.8770030  
H    -6.9803700    3.7034320    0.3333280  
H    -6.4364700   -1.8169480    0.2390700  
H    -9.4475710    2.2431460    1.0652580  
H    -4.5566950    2.7797710   -0.3484730  
