60


C    -5.4020260    4.0708670   -1.8330970  
C    -4.5664590    3.0824160   -1.3804050  
C    -5.3486060    2.2141880   -0.5470850  
C    -6.6717880    2.7332860   -0.5393950  
N    -6.6710310    3.8660790   -1.3268180  
C    -7.7245290    2.1301670    0.1556280  
C    -7.4342210    0.9748630    0.8667990  
O    -8.4146360    0.3582700    1.5864730  
C    -6.1257610    0.4343090    0.8692280  
O    -6.0011410   -0.7154380    1.6373290  
C    -5.0670080    1.0186940    0.1705710  
H    -3.5185210    2.9820300   -1.6226100  
H    -7.4740220    4.4468350   -1.5103960  
H    -8.7326270    2.5315570    0.1689480  
H    -7.9961410   -0.3877040    2.0515090  
H    -5.0867150   -0.7901160    1.9523180  
H    -5.1978290    4.9130760   -2.4789740  
C    -2.5238500    1.0759930    0.3447290  
C    -3.7174500    0.4387210    0.1878760  
C    -3.3308180   -0.9631630   -0.0772280  
C    -1.8363890   -0.9690520   -0.0198070  
N    -1.3896300    0.2287650    0.2325430  
C    -1.0396830   -2.1842100   -0.2229380  
C    -1.7722670   -3.3187830   -0.5233320  
O    -1.2637210   -4.5252350   -0.7666940  
C    -3.2740020   -3.3109850   -0.6177690  
O    -3.8277330   -4.3764510   -0.8939140  
C    -4.0293740   -2.0727590   -0.3754370  
H    -2.0483210   -5.0958850   -0.9467730  
H    -5.1112710   -2.1215960   -0.4360400  
H    -2.3646780    2.1279240    0.5471600  
C     0.4044920   -2.1541650   -0.1190430  
C     1.2209550   -1.0643840    0.0987090  
C     2.5648700   -1.5713290    0.1229080  
C     2.4043490   -3.0322270   -0.1144640  
N     1.1571230   -3.3728110   -0.2480870  
C     3.5330280   -3.9243910   -0.1906340  
C     4.7636770   -3.3824220   -0.0600090  
O     5.9070270   -4.0856570   -0.1256800  
C     4.9697630   -1.9091960    0.1764270  
O     6.1394120   -1.5355280    0.2830460  
C     3.8021460   -0.9898530    0.2938670  
H     0.8956210   -0.0432910    0.2001400  
H     3.3804050   -4.9843380   -0.3599960  
H     6.6238470   -3.4282900    0.0128850  
C     3.1439230    1.1657050    1.4045340  
C     3.9990590    0.4040540    0.6440440  
C     5.0758550    1.3560440    0.2732820  
C     4.6568510    2.6379900    0.9121550  
N     3.5370990    2.5032560    1.5777070  
C     5.4205150    3.8472510    0.7832770  
C     6.5479000    3.8066660    0.0323590  
O     7.3548440    4.8557510   -0.1808690  
C     6.9895950    2.5389790   -0.6439270  
O     8.0174640    2.5790840   -1.3170300  
C     6.1906240    1.3046800   -0.4804970  
H     5.0813050    4.7537730    1.2719080  
H     8.0746470    4.5190540   -0.7593320  
H     6.5653360    0.4110360   -0.9626840  
H     2.2416940    0.8228000    1.8952710  
