60


C     4.4806980    0.3794420   -0.1945140  
C     5.5959550    1.1530710    0.1636560  
C     6.7329240    0.3209230    0.1224690  
C     6.2830340   -0.9810310   -0.2655130  
N     4.9312720   -0.9135330   -0.4462400  
C     7.1553340   -2.0679580   -0.4023270  
C     8.4961320   -1.8399570   -0.1430030  
O     9.3878360   -2.8522710   -0.2572780  
C     8.9658010   -0.5425280    0.2491550  
O    10.3242610   -0.5046020    0.4639530  
C     8.1111740    0.5248600    0.3841210  
H     5.5682360    2.1869090    0.4710200  
H     4.2952030   -1.6727540   -0.6507400  
H     6.8239610   -3.0581720   -0.6951410  
H    10.2684070   -2.5005550   -0.0350060  
H    10.5945000    0.3876530    0.7283900  
H     8.4835200    1.5022420    0.6819030  
C     2.2062500    4.2459530   -0.2973970  
C     3.2275810    3.3511110   -0.3615730  
C     2.6044000    2.0409180   -0.2896640  
C     1.1659730    2.3378490   -0.1964140  
N     0.9408670    3.6288740   -0.1875420  
C     0.1409990    1.2890290   -0.1370250  
C     0.6165150    0.0061490   -0.2246980  
O    -0.1765810   -1.0908450   -0.2361350  
C     2.0579520   -0.3249010   -0.3340410  
O     2.3264750   -1.5302070   -0.4581810  
C     3.0963890    0.7515290   -0.2770600  
H     4.2757400    3.5677400   -0.5007490  
H     0.4364640   -1.8557760   -0.3210850  
H     2.2592730    5.3269390   -0.3358650  
C    -1.2690350    1.6064540   -0.0133160  
C    -1.8812600    2.8338400    0.0884440  
C    -3.2964280    2.6130840    0.1969750  
C    -3.4966920    1.1436300    0.1543230  
N    -2.2495990    0.5971380    0.0299440  
C    -4.7211320    0.5241890    0.1916900  
C    -5.9039960    1.3901650    0.3613090  
O    -7.0249510    0.9450550    0.5428780  
C    -5.7074970    2.9469300    0.3664920  
O    -6.6937420    3.6641950    0.4322080  
C    -4.3465970    3.4755860    0.2991020  
H    -1.3645500    3.7795720    0.0778300  
H    -4.2186740    4.5535770    0.3156550  
H    -2.0374370   -0.3894190   -0.0192660  
C    -3.1178240   -3.1104920    2.3045040  
C    -3.3309840   -1.8162340    1.9588260  
C    -4.2860520   -1.8694860    0.8563980  
C    -4.5460220   -3.3296910    0.6812700  
N    -3.8585390   -4.0481700    1.5270360  
C    -5.4767520   -3.8261250   -0.2986270  
C    -6.1138000   -2.9202440   -1.0745640  
O    -6.9987150   -3.2375130   -2.0330640  
C    -5.8377430   -1.4431470   -0.9647250  
O    -6.3455970   -0.7180820   -1.8119620  
C    -4.9118010   -0.9279310    0.0992750  
H    -2.9137170   -0.9289010    2.4128480  
H    -5.6488210   -4.8925420   -0.3930070  
H    -7.2473130   -2.3839730   -2.4516020  
H    -2.4756840   -3.4884750    3.0918000  
