60


C    -4.6182870    0.8551180   -0.0775090  
C    -4.6347420   -0.5084320    0.2319390  
C    -5.9253130   -1.0068790   -0.0890340  
C    -6.6822850    0.0909700   -0.5948200  
N    -5.8671620    1.1925910   -0.5806810  
C    -8.0141240   -0.0402900   -1.0069750  
C    -8.5916350   -1.2961470   -0.9069950  
O    -9.8847530   -1.4832570   -1.2928900  
C    -7.8495740   -2.4050610   -0.4038120  
O    -8.5716760   -3.5829120   -0.3718050  
C    -6.5383460   -2.2769020    0.0018750  
H    -3.8473530   -1.0765430    0.7056540  
H    -6.1050510    2.1560220   -0.7839800  
H    -8.5955890    0.7907690   -1.3917520  
H   -10.0972750   -2.4210670   -1.1441040  
H    -8.0143350   -4.2933050   -0.0210680  
H    -5.9891000   -3.1358810    0.3819220  
C    -0.2677310    0.4551120    0.5306630  
C     0.0257480    1.7997940    0.6922150  
C    -1.1833400    2.5466920    0.5239510  
C    -2.2437400    1.5558290    0.2721780  
N    -1.6341890    0.3255060    0.2978710  
C    -3.5767630    1.8509050    0.0675090  
C    -3.8895300    3.2965580   -0.0189900  
O    -4.9877450    3.7268380   -0.3538110  
C    -2.7782560    4.3636880    0.3197640  
O    -3.1138420    5.5423390    0.3389910  
C    -1.4370200    3.8943420    0.5707750  
H     0.9781800    2.2214140    0.9692350  
H    -0.6673040    4.6286150    0.7859990  
H    -2.0589220   -0.5723910    0.1131430  
C     4.1747320   -0.0797540    0.3368660  
C     2.8869780    0.4185830    0.2925340  
C     1.9757520   -0.6495660    0.5466760  
C     2.8138140   -1.8531390    0.7385820  
N     4.1298380   -1.4488570    0.5795450  
C     2.3536930   -3.0958230    1.0253290  
C     0.9126200   -3.2845100    1.0855810  
O     0.3842190   -4.3492760    1.3591430  
C    -0.0108770   -2.0579790    0.7541460  
O    -1.2076050   -2.2928200    0.6277790  
C     0.5866570   -0.7132540    0.6071980  
H     2.6278480    1.4229360   -0.0006650  
H     2.9981920   -3.9519970    1.1973180  
H     4.9216410   -1.9966720    0.8816020  
C     5.6188120    1.9563610    0.3920390  
C     5.4261260    0.6138980    0.1647430  
C     6.7202310    0.0759390   -0.2586170  
C     7.6637190    1.2202620   -0.2403770  
N     6.9179520    2.3241150    0.1536960  
C     8.9763470    1.1499530   -0.5629590  
C     9.5221690   -0.1484040   -0.9670380  
O    10.6937570   -0.3115710   -1.2602750  
C     8.5390520   -1.3700600   -1.0280750  
O     8.9615630   -2.4583820   -1.3777750  
C     7.1328500   -1.1555950   -0.6563460  
H     9.6443480    2.0054900   -0.5468230  
H     6.4698870   -2.0098760   -0.7441300  
H     4.8999380    2.6869550    0.7386700  
H     7.2920420    3.2511240    0.2930060  
