62


C    -1.7558990    1.2361970   -0.4317620  
C    -2.2520840    2.3371830    0.1928630  
C    -3.5877110    2.0147270    0.6236040  
C    -3.8640960    0.6884800    0.2122910  
N    -2.7166880    0.2111990   -0.4541230  
C    -5.0604190    0.0453340    0.5434390  
C    -6.0032350    0.7662100    1.2632600  
O    -7.1897480    0.1783910    1.5950900  
C    -5.7500640    2.1030760    1.6576630  
O    -6.7819160    2.6876440    2.3640770  
C    -4.5552290    2.7294460    1.3493240  
H    -1.7242530    3.2710290    0.3303220  
H    -5.2936560   -0.9684130    0.2471440  
H    -7.7107900    0.8375560    2.0848920  
H    -6.5445630    3.5997940    2.5876950  
H    -4.3627880    3.7492400    1.6758340  
H    -0.8117040    1.0813410   -0.9303020  
C     0.7578480   -2.5193460   -0.0727400  
C    -0.0421590   -1.4089960    0.0385660  
C    -1.2454610   -1.7144260   -0.7049200  
C    -0.9948940   -3.0692680   -1.2511730  
N     0.1610910   -3.5433680   -0.8753880  
C    -1.9611870   -3.7620560   -2.0693860  
C    -3.1375070   -3.1438440   -2.3081830  
O    -4.1348690   -3.6695780   -3.0414710  
C    -3.4419650   -1.7711850   -1.7711110  
O    -4.5056820   -1.2610850   -2.1121160  
C    -2.4414410   -1.0795080   -0.9023830  
H     0.1268540   -0.5390650    0.6569780  
H    -1.7356730   -4.7495290   -2.4557480  
H    -4.8305720   -2.9770680   -3.0716240  
C     4.1407340    0.2657880    0.1390160  
C     5.0268370   -0.5496360    0.7994950  
C     4.3508850   -1.7944270    1.0253170  
C     3.0435590   -1.6652650    0.4995350  
N     2.9325390   -0.3913180   -0.0270610  
C     2.0904940   -2.7101550    0.4944990  
C     2.5132320   -3.9211960    1.0634000  
O     1.6610430   -4.9702270    1.1514380  
C     3.8181980   -4.0555270    1.6114440  
O     4.0588970   -5.3046240    2.1480400  
C     4.7325130   -3.0208320    1.6049440  
H     6.0276400   -0.2807870    1.1074710  
H     2.1753350   -0.0921420   -0.6249270  
H     2.1457970   -5.7027250    1.5713750  
H     4.9533240   -5.3357230    2.5180610  
H     5.7241610   -3.1562210    2.0312070  
C     5.5139220    1.9252960   -1.0738120  
C     5.4739840    3.2247650   -1.4502560  
C     4.2065940    3.7638620   -1.0046280  
C     3.5031580    2.6536450   -0.3117380  
N     4.3461090    1.5474120   -0.3903530  
C     2.2795950    2.7718310    0.2694180  
C     1.5960650    4.0587310    0.1879370  
O     0.4846390    4.2554970    0.6597410  
C     2.3203040    5.2442210   -0.5462240  
O     1.7605400    6.3263940   -0.6172830  
C     3.6465670    4.9958850   -1.1168570  
H     6.2383130    3.7581980   -1.9963530  
H     1.7890280    1.9640600    0.8011720  
H     4.1447280    5.8226700   -1.6139810  
H     6.2774060    1.1769520   -1.2359100  
