64


C     1.1854620   -1.1530700    1.4766720  
C     2.5267130   -0.9127180    1.3448630  
C     2.7046460   -0.1061860    0.1650810  
C     1.4119130    0.1203200   -0.3729230  
N     0.4914170   -0.5377460    0.4371140  
C     1.1807710    0.9282290   -1.4909730  
C     2.2889000    1.5299210   -2.0623700  
O     2.1462200    2.3499860   -3.1402980  
C     3.5991550    1.3120790   -1.5534080  
O     4.5867260    1.9606980   -2.2654050  
C     3.8430710    0.4773650   -0.4618080  
H     3.2993410   -1.2634400    2.0139820  
H     0.1915300    1.0970310   -1.8994010  
H     3.0481300    2.6603320   -3.3493130  
H     5.2059110    2.3608060   -1.6169840  
H     0.6456350   -1.7429520    2.2043330  
C    -2.4524090    1.0358110    3.2041930  
C    -3.5748610    0.7194800    2.4789110  
C    -3.1365210    0.1024310    1.2523880  
C    -1.7208130    0.0667070    1.3144430  
N    -1.3321120    0.6478330    2.5010570  
C    -0.9196590   -0.5087950    0.3132280  
C    -1.5864240   -1.0796450   -0.7664920  
O    -0.8910140   -1.6855930   -1.7592430  
C    -3.0062170   -1.0406540   -0.8597240  
O    -3.4834740   -1.6246910   -2.0053130  
C    -3.8084860   -0.4314110    0.1101340  
H    -4.5939410    0.8688070    2.8054670  
H    -0.3730180    0.7541580    2.7963510  
H    -1.5674570   -2.0257630   -2.3781510  
H    -4.2887560   -2.1405050   -1.7537620  
H    -2.3597160    1.4983910    4.1765300  
C     5.7922310   -3.4125330    0.2901410  
C     7.0242970   -2.9477360    0.6729910  
C     6.9671060   -1.5152670    0.6178630  
C     5.6546350   -1.1668340    0.1972730  
N     4.9690190   -2.3458730   -0.0048320  
C     5.2201600    0.1654700   -0.0005210  
C     6.1941690    1.1358510    0.2296860  
O     5.8915430    2.4734890    0.0324520  
C     7.5059460    0.8145190    0.6508540  
O     8.3167040    1.9233780    0.8323860  
C     7.9046800   -0.4914950    0.8548400  
H     7.8760930   -3.5530020    0.9510740  
H     3.9943950   -2.4004220   -0.2601790  
H     6.6978180    2.9780810    0.2448690  
H     9.2047350    1.6353320    1.0894800  
H     8.9193440   -0.7186950    1.1753190  
H     5.4275190   -4.4259050    0.1972150  
C    -6.4051110    3.0723340    0.5829960  
C    -7.6237880    2.5092100    0.3839780  
C    -7.4044100    1.1064220    0.1010100  
C    -5.9349970    0.8959360    0.1623090  
N    -5.3926490    2.1286380    0.4379990  
C    -5.2781380   -0.2987180   -0.0384810  
C    -6.1386810   -1.4068350   -0.4506040  
O    -5.7132980   -2.4891090   -0.8603440  
C    -7.7042880   -1.2424420   -0.4158570  
O    -8.3907950   -2.2304710   -0.6187800  
C    -8.2579160    0.0833570   -0.1677260  
H    -8.5796260    3.0112890    0.4131040  
H    -9.3368350    0.1985780   -0.1862180  
H    -6.1499290    4.0987710    0.8109250  
H    -4.4185950    2.2710280    0.6645560  
