62


C    -2.7862960   -1.2552220   -1.8128520  
C    -4.0522850   -1.7676560   -1.8296420  
C    -4.1051960   -2.8151190   -0.8463410  
C    -2.8193760   -2.9049710   -0.2590160  
N    -2.0135220   -1.9327010   -0.8604420  
C    -2.5242990   -3.8038590    0.7715870  
C    -3.5428300   -4.6411270    1.1999630  
O    -3.3044900   -5.5410030    2.1948540  
C    -4.8352750   -4.5730350    0.6141500  
O    -5.7386570   -5.4686310    1.1499990  
C    -5.1255720   -3.6740740   -0.3950470  
H    -4.8500900   -1.4622250   -2.4937450  
H    -1.5407880   -3.8914180    1.2161300  
H    -4.1202210   -6.0548230    2.3243030  
H    -6.5652810   -5.4385510    0.6460650  
H    -6.1241440   -3.6305050   -0.8252360  
H    -2.3223550   -0.5040660   -2.4360280  
C    -0.3071470    1.8495430    0.2266720  
C     1.0294340    1.4699210    0.2309400  
C     1.1181510    0.0910800   -0.0949850  
C    -0.2700240   -0.3535510   -0.2955260  
N    -1.0812340    0.7599450   -0.1581180  
C    -0.6726750   -1.6281750   -0.5687800  
C     0.3810210   -2.6516750   -0.6519380  
O     0.1622530   -3.8117380   -0.9456920  
C     1.8631490   -2.2171280   -0.3552360  
O     2.6741880   -3.1358930   -0.2621830  
C     2.1939770   -0.7968040   -0.2075260  
H     1.8522690    2.1273960    0.4577750  
H    -2.0668940    0.6783640    0.0475730  
C    -0.2867750    4.1311000    1.2468100  
C    -0.9147220    3.1072710    0.5452780  
C    -2.2611170    3.5720770    0.2572660  
C    -2.3719270    4.8671640    0.8166760  
N    -1.1519010    5.1693080    1.4066850  
C    -3.5316120    5.6431000    0.7336990  
C    -4.6160170    5.0980680    0.0635840  
O    -5.7710320    5.8056600   -0.0433240  
C    -4.5240520    3.8061830   -0.5211390  
O    -5.6723940    3.4097830   -1.1668480  
C    -3.3693160    3.0472630   -0.4388790  
H    -0.9430690    6.0236850    1.9021620  
H    -3.6092290    6.6359900    1.1639220  
H    -6.4044960    5.2645700   -0.5462520  
H    -5.5646630    2.5140460   -1.5205180  
H    -3.3325900    2.0805100   -0.9346290  
H     0.7094140    4.1651590    1.6637760  
C     3.5778260   -0.3761420   -0.1395530  
C     4.1418090    0.8776390   -0.3082510  
C     5.5624160    0.7504310   -0.1821470  
C     5.8242820   -0.6888120    0.0750590  
N     4.5949350   -1.3033680    0.0988380  
C     7.0626970   -1.2201960    0.2448280  
C     8.2173690   -0.3310040    0.1753500  
O     9.3680500   -0.7200000    0.3171590  
C     7.9632320    1.1987130   -0.0936730  
O     8.9236970    1.9558820   -0.1499660  
C     6.5868070    1.6503530   -0.2628100  
H     3.6202120    1.7834910   -0.5721050  
H     7.2364810   -2.2756760    0.4298730  
H     6.4231140    2.7074070   -0.4513390  
H     4.3975020   -2.2963020    0.1364070  
