62


C    -5.1717920   -0.5963420    2.4557890  
C    -5.8024720   -1.8008190    2.5735810  
C    -5.4125700   -2.6116320    1.4484250  
C    -4.5306270   -1.8401190    0.6560140  
N    -4.4057630   -0.6039230    1.2871920  
C    -3.9410730   -2.3113180   -0.5203650  
C    -4.2513060   -3.6072840   -0.9066350  
O    -3.7034920   -4.1242560   -2.0417680  
C    -5.1365570   -4.4022590   -0.1296360  
O    -5.3429400   -5.6648240   -0.6464750  
C    -5.7169020   -3.9222150    1.0304140  
H    -6.4771740   -2.0837020    3.3698790  
H    -3.2865480   -1.7058910   -1.1381730  
H    -4.0674900   -5.0191720   -2.1586570  
H    -6.0043150   -6.1328920   -0.1155480  
H    -6.3923730   -4.5492600    1.6086230  
H    -5.1883140    0.2874440    3.0765180  
C    -2.1807100    0.4003880    1.1416820  
C    -1.5614890    1.4119540    0.4736000  
C    -2.6052420    2.1094350   -0.2844520  
C    -3.8785540    1.4100850   -0.0053420  
N    -3.5599780    0.3968880    0.8972460  
C    -5.0792640    1.7265060   -0.5448090  
C    -5.1364780    2.8577990   -1.4697140  
O    -6.1679000    3.2286760   -2.0065850  
C    -3.7997090    3.6265110   -1.7778480  
O    -3.8237590    4.5735890   -2.5464140  
C    -2.5633090    3.1697320   -1.1283650  
H    -5.9914100    1.1829450   -0.3236160  
H    -1.6490790    3.7107600   -1.3440850  
H    -1.7730140   -0.3299620    1.8283740  
C     1.8553910   -1.1928750   -0.4343380  
C     2.8757330   -0.2913860   -0.1856990  
C     2.2390510    0.9491430    0.2110820  
C     0.8432810    0.7193370    0.1925370  
N     0.6475300   -0.5933950   -0.2013270  
C    -0.1174980    1.7073370    0.4939470  
C     0.3860950    2.9701570    0.8105670  
O    -0.4715720    3.9774250    1.1319610  
C     1.7829130    3.2253110    0.8106630  
O     2.0998160    4.5266150    1.1346390  
C     2.7091480    2.2411480    0.5201470  
H    -0.2552240   -1.0222420   -0.3412550  
H     0.0624110    4.7756110    1.2929290  
H     3.0535920    4.6697850    1.0423320  
H     3.7703660    2.4751710    0.4999210  
H     1.9150300   -2.2312560   -0.7268670  
C     4.2866020   -0.5785320   -0.2955480  
C     4.9517040   -1.4794290   -1.0877480  
C     6.3538240   -1.4075100   -0.7790660  
C     6.4852460   -0.3787080    0.2824370  
N     5.2122940    0.1351120    0.4896920  
C     7.6494630   -0.0519630    0.8931340  
C     8.8736160   -0.7257750    0.4609640  
O     9.9666940   -0.4895060    0.9523510  
C     8.7665040   -1.7876590   -0.6943490  
O     9.7857100   -2.3499430   -1.0703630  
C     7.4487940   -2.0640290   -1.2578680  
H     4.5019000   -2.0926390   -1.8556920  
H     7.7258150    0.6954940    1.6773250  
H     7.3840870   -2.8129990   -2.0413880  
H     4.9418250    0.5678730    1.3617850  
