64


C     6.9647350    0.9702280   -0.1763510  
C     7.5182080   -0.2785200   -0.0780780  
C     6.4394850   -1.2251720   -0.1274290  
C     5.2420100   -0.4732400   -0.2594730  
N     5.5908810    0.8587410   -0.3022380  
C     3.9774320   -1.0875500   -0.3416240  
C     3.9335690   -2.4805950   -0.2984110  
O     2.7324950   -3.1218200   -0.3816090  
C     5.1280580   -3.2352230   -0.1855460  
O     4.9120750   -4.6000040   -0.1714240  
C     6.3682520   -2.6313900   -0.0979080  
H     8.5718400   -0.5022730    0.0144630  
H     4.9390360    1.6282660   -0.2868900  
H     2.9137750   -4.0750410   -0.3011410  
H     5.7410760   -5.0589500    0.0291470  
H     7.2696230   -3.2348490   -0.0158260  
H     7.4332150    1.9440670   -0.1714840  
C     1.8735690   -0.4850520   -1.5492470  
C     0.8391740    0.3851570   -1.4430220  
C     1.0493190    1.1610510   -0.2384000  
C     2.3150390    0.6633490    0.3528030  
N     2.7810870   -0.3367700   -0.4931530  
C     2.8710400    1.1416650    1.4989940  
C     2.1919030    2.2293520    2.1893840  
O     2.6295110    2.7537990    3.2031080  
C     0.8267140    2.7488700    1.6067460  
O     0.2088130    3.5857210    2.2392370  
C     0.3210680    2.1664550    0.3363760  
H     0.0239450    0.5038970   -2.1408290  
H     3.7866100    0.7491380    1.9270590  
H     2.0763000   -1.2296490   -2.3057240  
C    -3.5437550    0.0586590   -0.2919590  
C    -4.2293610    1.1334680   -0.8068590  
C    -3.3321320    2.2537100   -0.8585410  
C    -2.0841550    1.8075170   -0.3647830  
N    -2.2059070    0.4512640   -0.0716210  
C    -0.9634540    2.6455650   -0.2186940  
C    -1.1354630    3.9774500   -0.6080880  
O    -0.0842450    4.8391380   -0.5360790  
C    -2.3727010    4.4341760   -1.1259720  
O    -2.3647590    5.7688550   -1.4856430  
C    -3.4654330    3.5960900   -1.2590870  
H    -5.2504390    1.1087220   -1.1608640  
H    -1.6501950    0.0242770    0.6603580  
H    -0.4212100    5.7241930   -0.7595980  
H    -3.2680180    6.0533790   -1.6887050  
H    -4.4049060    3.9733290   -1.6577190  
C    -7.4111530   -1.7033570    1.1474670  
C    -6.4165440   -0.8371850    0.7735420  
C    -5.2812620   -1.6312190    0.3946160  
C    -5.6527120   -2.9896030    0.5706200  
N    -6.9569430   -3.0028620    1.0221650  
C    -4.7815700   -4.0582050    0.3264480  
C    -3.5040500   -3.7444300   -0.1068190  
O    -2.6100050   -4.7419620   -0.3747670  
C    -3.1041010   -2.3967220   -0.2927280  
O    -1.8040540   -2.2732350   -0.7454120  
C    -3.9667090   -1.3216560   -0.0532910  
H    -6.4782240    0.2408580    0.7864580  
H    -7.4851220   -3.8309330    1.2469270  
H    -5.0659880   -5.0968330    0.4608670  
H    -1.7970670   -4.3083620   -0.6891090  
H    -1.6328460   -1.3479900   -0.9987380  
H    -8.4140010   -1.5036770    1.4978580  
