64


C    -3.6337750    0.9973290   -1.4551350  
C    -4.0401370   -0.0238590   -0.6177860  
C    -5.0612870    0.5409810    0.2373870  
C    -5.2195020    1.8996360   -0.1355990  
N    -4.3392720    2.1471430   -1.1704850  
C    -6.1201590    2.7632430    0.5017790  
C    -6.8774680    2.2421240    1.5380040  
O    -7.7756850    3.0347400    2.1935370  
C    -6.7300270    0.8839020    1.9274500  
O    -7.5541700    0.5123870    2.9755880  
C    -5.8387050    0.0369870    1.2986580  
H    -4.2434860    3.0230120   -1.6600970  
H    -6.2420470    3.8031480    0.2162080  
H    -8.2051030    2.4807280    2.8679740  
H    -7.4382460   -0.4328790    3.1516980  
H    -5.7565990   -1.0033450    1.5996950  
H    -2.9279070    0.9738820   -2.2738410  
C     0.1632440   -1.3071680   -0.5536090  
C    -0.0569340   -2.6700440   -0.5783000  
C    -1.4721850   -2.8815270   -0.6078530  
C    -2.0816530   -1.6012260   -0.6103590  
N    -1.0687970   -0.6620560   -0.6068840  
C    -3.4767440   -1.3859750   -0.6057970  
C    -4.2563970   -2.5450700   -0.5990730  
O    -5.6207710   -2.4534370   -0.6026830  
C    -3.6649190   -3.8368370   -0.6052240  
O    -4.5910630   -4.8662680   -0.6047130  
C    -2.2968650   -4.0245680   -0.6176660  
H     0.7135020   -3.4286230   -0.6168240  
H    -1.2251750    0.3108140   -0.3850250  
H    -5.9634500   -3.3621510   -0.6659950  
H    -4.1334930   -5.7096570   -0.7356430  
H    -1.8741120   -5.0270670   -0.6178160  
C     2.5570930   -0.9500140    0.1354040  
C     1.4080040   -0.5621520   -0.4880660  
C     1.6912160    0.7434750   -1.0827700  
C     3.1025770    1.0598520   -0.7480050  
N     3.5844760   -0.0050680   -0.0156540  
C     3.7455140    2.2010110   -1.1343730  
C     3.0147780    3.1803790   -1.9330700  
O     3.5120030    4.2199830   -2.3381060  
C     1.5198770    2.8643070   -2.2933170  
O     0.8753970    3.6750320   -2.9387480  
C     0.9475350    1.5906060   -1.8381900  
H     4.8036270    2.3714860   -0.9573560  
H    -0.0703240    1.3677190   -2.1403470  
H     2.7491150   -1.8389560    0.7195440  
C     6.7626580   -3.0809680   -0.3104950  
C     5.6156750   -2.3559340   -0.5045740  
C     5.7026950   -1.2031920    0.3470370  
C     6.9414400   -1.2817990    1.0376610  
N     7.5614470   -2.4399970    0.6179510  
C     7.3776840   -0.3036820    1.9390070  
C     6.5417240    0.7811210    2.1554410  
O     6.9114510    1.7655930    3.0184610  
C     5.2833170    0.8806900    1.5032530  
O     4.5266750    1.9693300    1.8841640  
C     4.8605640   -0.0997820    0.6079190  
H     4.8125610   -2.6081260   -1.1822380  
H     8.4689060   -2.7556060    0.9227870  
H     8.3308190   -0.3591930    2.4543500  
H     6.1946990    2.4262480    3.0106770  
H     4.0341750    2.3267350    1.1224180  
H     7.0838560   -4.0083110   -0.7631080  
