60


C    -6.5662130   -1.3594830    3.4841320  
C    -5.4442520   -1.0651720    2.7529430  
C    -5.7825950   -1.2379340    1.3675480  
C    -7.1444660   -1.6375260    1.3241640  
N    -7.5916780   -1.7090220    2.6274870  
C    -7.8302550   -1.8766590    0.1280840  
C    -7.1245300   -1.7119110   -1.0523730  
O    -7.7396690   -1.9448030   -2.2467980  
C    -5.7612610   -1.3181920   -1.0365040  
O    -5.2067820   -1.2247950   -2.2995700  
C    -5.0700560   -1.0712410    0.1491920  
H    -4.4953710   -0.7442290    3.1585610  
H    -8.5277540   -1.9562110    2.9078080  
H    -8.8708560   -2.1823020    0.0934340  
H    -7.0791570   -1.7999490   -2.9462230  
H    -4.2489700   -1.0942150   -2.2311520  
H    -6.7237120   -1.3474530    4.5533290  
C    -2.6507540   -1.2391580    0.8879100  
C    -3.6482490   -0.6774030    0.1458860  
C    -3.0264140    0.4231940   -0.5945200  
C    -1.5911050    0.4292030   -0.2225110  
N    -1.4235350   -0.6211860    0.6529550  
C    -0.6602220    1.3305390   -0.6686180  
C    -1.1386460    2.3675830   -1.6009580  
O    -0.4019480    3.2091240   -2.0891410  
C    -2.6600420    2.3842660   -1.9958060  
O    -3.0557900    3.2624730   -2.7430280  
C    -3.5402300    1.3506740   -1.4467760  
H    -4.5886330    1.3772600   -1.7242620  
H    -2.7128460   -2.0714190    1.5760420  
H    -0.5916420   -0.7573860    1.2080280  
C     1.5477440    0.1595100   -0.3526600  
C     0.7588700    1.2656380   -0.2963620  
C     1.6066830    2.3560100    0.1999730  
C     2.9485190    1.7780290    0.4361290  
N     2.8674720    0.4280940    0.0525550  
C     3.9901860    2.4613330    0.9717050  
C     3.7996000    3.8768040    1.3022200  
O     4.6864060    4.5621150    1.7829750  
C     2.3951580    4.5139980    1.0324370  
O     2.2106230    5.6879290    1.3013470  
C     1.3386260    3.6539050    0.4780630  
H     4.9510890    2.0178980    1.2032370  
H     0.3686190    4.1033160    0.3016090  
H     1.3108220   -0.8282200   -0.7233100  
C     3.8673580   -0.5288330    0.0507930  
C     3.7503640   -1.8836910    0.1978340  
C     5.0667810   -2.4475840    0.0437260  
C     5.9780890   -1.3055050   -0.2064060  
N     5.1984770   -0.1497250   -0.1372220  
C     7.3028150   -1.4195680   -0.4516210  
C     7.8951980   -2.7610230   -0.4421220  
O     9.0807410   -2.9573960   -0.6505580  
C     6.9564630   -3.9841110   -0.1373780  
O     7.4392560   -5.1061310   -0.1161440  
C     5.5366710   -3.7243190    0.0952370  
H     2.8497900   -2.4253580    0.4467720  
H     7.9546670   -0.5721570   -0.6405170  
H     4.8940120   -4.5780880    0.2869420  
H     5.4530910    0.7049980   -0.6135350  
