60


C     4.5240410   -3.2450000   -2.7982970  
C     5.7825870   -3.4841070   -2.3125630  
C     5.9962390   -2.5709600   -1.2252410  
C     4.8137710   -1.7985240   -1.0935180  
N     3.9297770   -2.2390940   -2.0574060  
C     4.6567500   -0.7714990   -0.1367550  
C     5.7514590   -0.5436670    0.7002160  
O     5.6779170    0.4153000    1.6691560  
C     6.9404510   -1.3088370    0.5813710  
O     7.9161990   -0.9529570    1.4944490  
C     7.0754490   -2.3130580   -0.3574680  
H     6.4778050   -4.2244420   -2.6838970  
H     3.0448600   -1.8022440   -2.2630210  
H     6.5280980    0.4099940    2.1429870  
H     8.6935610   -1.5179850    1.3750410  
H     7.9989590   -2.8845550   -0.4253680  
H     3.9885490   -3.7145010   -3.6113910  
C     2.1536120   -0.5373230    0.0800490  
C     3.4027030   -0.0060000   -0.0249600  
C     3.2359040    1.4437970   -0.0475540  
C     1.7824070    1.7060180    0.0562090  
N     1.1556330    0.4527160    0.1016410  
C     1.2424440    2.9454450    0.1530550  
C     2.1358900    4.1024600    0.0856700  
O     1.7304650    5.2520270    0.1631140  
C     3.6715040    3.8443740   -0.0985840  
O     4.4275220    4.7987100   -0.1914430  
C     4.1353430    2.4551040   -0.1358120  
H     0.1828050    3.1342980    0.2556830  
H     5.2026880    2.2780330   -0.1962040  
H     1.8619180   -1.5713520    0.1804320  
C    -0.8619930   -2.4659040    2.5507000  
C    -2.1628450   -2.1848370    2.2852620  
C    -2.1376490   -1.0852930    1.3294820  
C    -0.6962290   -0.8370490    1.1195200  
N     0.0453600   -1.6368700    1.8374570  
C    -0.2164620    0.1935250    0.2064870  
C    -1.1638760    0.8526540   -0.5270880  
O    -0.8662600    1.7517560   -1.4884710  
C    -2.6134250    0.6219480   -0.3355310  
O    -3.3791400    1.2651140   -1.0618570  
C    -3.1066850   -0.3610610    0.6867560  
H    -3.0381190   -2.6866630    2.6712380  
H    -1.7363670    2.0670140   -1.8192940  
H    -0.4612370   -3.2282680    3.2070320  
C    -5.0420520   -0.7100670    2.2359330  
C    -4.5199050   -0.4589760    0.9868530  
C    -5.7188610   -0.3461660    0.1252030  
C    -6.8567730   -0.5884250    1.0639240  
N    -6.4393890   -0.7846850    2.2914810  
C    -8.2241600   -0.5972510    0.6312470  
C    -8.4699670   -0.3890170   -0.6856920  
O    -9.6897350   -0.3722920   -1.2326150  
C    -7.3475590   -0.1571640   -1.6649410  
O    -7.6476020    0.0110660   -2.8432330  
C    -5.9478860   -0.1428620   -1.1861440  
H    -9.0170130   -0.7723280    1.3496030  
H    -9.5507360   -0.2060150   -2.1916070  
H    -5.1770860    0.0556050   -1.9194980  
H    -4.4786290   -0.8045270    3.1565390  
