62


C     4.9684120   -1.0621220   -2.3141550  
C     6.1459640   -1.7568290   -2.3441420  
C     6.8177920   -1.5090720   -1.0997830  
C     5.9822240   -0.6480550   -0.3413820  
N     4.8471760   -0.3796700   -1.1048430  
C     6.3168530   -0.2142750    0.9513090  
C     7.5263510   -0.6461450    1.4772050  
O     7.8992540   -0.2538120    2.7289450  
C     8.3793540   -1.4982130    0.7272980  
O     9.5454800   -1.8375530    1.3854460  
C     8.0383840   -1.9339920   -0.5402830  
H     6.4994260   -2.3693530   -3.1623390  
H     5.6623390    0.4077490    1.5525110  
H     8.7608020   -0.6649840    2.9160490  
H    10.0706250   -2.4325140    0.8301060  
H     8.7038390   -2.5955180   -1.0916520  
H     4.1918760   -0.9615810   -3.0586780  
C     0.5227380   -1.1610370   -0.7310170  
C     1.8636820   -1.2866900   -0.9042590  
C     2.4480550    0.0158410   -0.7064290  
C     1.4010780    0.9172770   -0.4051980  
N     0.1973950    0.1704130   -0.4255920  
C     1.6337100    2.2653650   -0.1235880  
C     2.9519450    2.7059920   -0.1586730  
O     3.2270870    4.0128180    0.1049640  
C     4.0158340    1.8303320   -0.4809070  
O     5.2527070    2.4223670   -0.5188290  
C     3.7739850    0.4838560   -0.7561570  
H     2.3906190   -2.1992890   -1.1442800  
H     0.8317000    2.9484560    0.1144710  
H     4.1926620    4.1227140    0.0491720  
H     5.9487040    1.7434610   -0.5475910  
H    -0.2575180   -1.9017990   -0.8011080  
C    -1.0850400    0.5982930   -0.1933590  
C    -2.2400000   -0.1642850   -0.1768050  
C    -3.2895190    0.7581760    0.0948940  
C    -2.5926020    2.0876300    0.2197620  
N    -1.3019460    1.9742870    0.0524370  
C    -3.3020610    3.3058730    0.4700470  
C    -4.6478140    3.2150010    0.5938060  
O    -5.4515710    4.2496740    0.8332970  
C    -5.3913040    1.8883080    0.5040350  
O    -6.5986550    1.9435660    0.7389110  
C    -4.6558780    0.6524670    0.2128440  
H    -2.3441390   -1.2247950   -0.3414660  
H    -2.7708050    4.2475380    0.5482470  
H    -6.3553530    3.8560490    0.8961700  
C    -4.4392150   -3.3266570    2.2212780  
C    -4.2213520   -2.0419650    1.8378920  
C    -5.1747340   -1.7348110    0.7912700  
C    -5.9821950   -2.9642650    0.6005310  
N    -5.4721350   -3.8959250    1.4844820  
C    -7.0240200   -3.0901430   -0.2622880  
C    -7.3823310   -1.9385010   -1.0756020  
O    -8.3249930   -1.9302560   -1.8526880  
C    -6.5004220   -0.6440250   -0.9523240  
O    -6.6934730    0.2659250   -1.7380940  
C    -5.4221330   -0.5943300    0.0725020  
H    -3.4734320   -1.3735140    2.2354940  
H    -7.6140700   -3.9962900   -0.3591970  
H    -3.9333510   -3.9113590    2.9782950  
H    -5.8584760   -4.8145240    1.6348580  
