64


C    -5.6614050    1.9328120    1.2720120  
C    -7.0237700    1.8312360    1.2021700  
C    -7.3230050    0.6689400    0.4136980  
C    -6.0845000    0.0980510    0.0247870  
N    -5.0696670    0.8892230    0.5583540  
C    -5.9997390   -1.0748680   -0.7342510  
C    -7.1884030   -1.6728720   -1.1209690  
O    -7.1631740   -2.8158260   -1.8694590  
C    -8.4383720   -1.1107110   -0.7495740  
O    -9.5314030   -1.8219040   -1.2114690  
C    -8.5181290    0.0423800    0.0083690  
H    -7.7336950    2.5164440    1.6456060  
H    -5.0545400   -1.5101600   -1.0351160  
H    -8.0872360   -3.0641630   -2.0433910  
H   -10.3448450   -1.3636200   -0.9542710  
H    -9.4868300    0.4524000    0.2881710  
H    -5.0353470    2.6845210    1.7320950  
C    -2.2835710    0.2098910    3.8125520  
C    -1.1473450    0.0743050    3.0557110  
C    -1.5327910    0.2137090    1.6802470  
C    -2.9318060    0.4445960    1.6753570  
N    -3.3634200    0.4350770    2.9825020  
C    -3.6760150    0.6486040    0.5005560  
C    -2.9732390    0.6106620   -0.7041920  
O    -3.6329860    0.7875270   -1.8801340  
C    -1.5779100    0.3715930   -0.7152320  
O    -1.0473060    0.3473960   -1.9947570  
C    -0.8230740    0.1842950    0.4463360  
H    -0.1509410   -0.0935490    3.4371840  
H    -4.3245800    0.5470420    3.2680390  
H    -2.9805610    0.6602600   -2.5919550  
H    -0.2054630   -0.1341000   -1.9856420  
H    -2.4150030    0.1651720    4.8843010  
C     1.3504060   -0.9515600    1.1345840  
C     0.6204600   -0.0643340    0.3991030  
C     1.6499500    0.6770800   -0.3722980  
C     2.9409590    0.0438080    0.0196650  
N     2.7484210   -0.8937120    0.9031960  
C     4.2294930    0.4955580   -0.5101400  
C     4.1589360    1.5993470   -1.3120400  
O     5.2583230    2.1876750   -1.8703240  
C     2.8982970    2.2763360   -1.6886850  
O     2.9634590    3.2527440   -2.4434700  
C     1.6142390    1.7566410   -1.1752270  
H     4.8940930    2.9347270   -2.4004140  
H     0.7090610    2.2756850   -1.4727870  
H     0.9742920   -1.6777720    1.8442110  
C     5.5828580   -3.8098590   -0.5384740  
C     4.8528630   -2.6592750   -0.6769890  
C     5.6677570   -1.5741140   -0.2092260  
C     6.9056160   -2.1421840    0.1948150  
N     6.8210800   -3.5038840   -0.0055970  
C     7.9790280   -1.3850720    0.6757210  
C     7.8078580   -0.0116570    0.7243230  
O     8.8153940    0.7906100    1.1676690  
C     6.5924290    0.5929230    0.3102430  
O     6.5790670    1.9662450    0.4517340  
C     5.4961430   -0.1613650   -0.1314080  
H     3.8420200   -2.5990790   -1.0499460  
H     7.5622960   -4.1632160    0.1704530  
H     8.9207400   -1.8261980    0.9865810  
H     8.4707990    1.7013000    1.0971770  
H     6.2530900    2.3551200   -0.3874850  
H     5.3214510   -4.8328460   -0.7695580  
