62


C    -1.4910800    0.0349370    0.5993730  
C    -1.2832560    1.3526460    0.2241960  
C    -2.5302310    1.7985710   -0.3738640  
C    -3.4256910    0.7026920   -0.3341620  
N    -2.7723510   -0.3664270    0.2837990  
C    -4.7290890    0.7548380   -0.8407260  
C    -5.1380730    1.9462830   -1.4179250  
O    -6.3956960    2.0601520   -1.9292960  
C    -4.2534230    3.0555160   -1.4800910  
O    -4.8011780    4.1702760   -2.0828520  
C    -2.9700360    2.9961490   -0.9719360  
H    -5.4034430   -0.0926040   -0.8018210  
H    -6.4872550    2.9664480   -2.2712330  
H    -4.1721910    4.9056060   -2.0360700  
H    -2.3271590    3.8691340   -1.0080220  
H    -0.8200520   -0.6496060    1.0976180  
C     3.0142230    0.1620460   -0.0868250  
C     1.6387710    0.1362350   -0.1663390  
C     1.2187630    1.4360490    0.2684510  
C     2.4918890    2.1480500    0.5786210  
N     3.5379670    1.3904390    0.3718700  
C     2.5272240    3.5112140    1.0326480  
C     1.3392870    4.1428470    1.1508860  
O     1.1963560    5.4152910    1.5380070  
C     0.0177840    3.4545720    0.8446420  
O    -0.9860140    4.1521210    1.0073070  
C    -0.0108030    2.0443300    0.4076270  
H     0.9987890   -0.6573390   -0.5177890  
H     3.4720340    3.9957470    1.2508210  
H     0.2236660    5.5712960    1.5411340  
C     3.4811990   -2.1122950   -0.8638300  
C     4.5282810   -2.9290050   -1.1137680  
C     5.7384580   -2.1960360   -0.8125100  
C     5.3111670   -0.8515220   -0.3537160  
N     3.8984640   -0.8510830   -0.4047040  
C     6.1788480    0.1193000    0.0198190  
C     7.6167160   -0.1725090   -0.0319080  
O     8.4601130    0.6498750    0.2875140  
C     8.0823380   -1.5891220   -0.5143180  
O     9.2750540   -1.8445220   -0.5616170  
C     7.0456910   -2.5524630   -0.8910570  
H     4.4714550   -3.9468940   -1.4724120  
H     5.8547910    1.0951790    0.3525440  
H     7.3638000   -3.5351020   -1.2259860  
H     2.4249390   -2.3099220   -0.9686820  
C    -4.0177300   -3.7276990   -2.3748500  
C    -3.5530750   -2.5219830   -1.9165940  
C    -3.6392140   -2.5604390   -0.4849520  
C    -4.1667200   -3.8300220   -0.1272440  
N    -4.3849290   -4.5193780   -1.3026530  
C    -4.3760100   -4.2242830    1.2000340  
C    -4.0552700   -3.3165010    2.1971780  
O    -4.2491480   -3.6453340    3.5064570  
C    -3.5320080   -2.0382280    1.8733930  
O    -3.2601760   -1.2368060    2.9577910  
C    -3.3176520   -1.6581380    0.5526820  
H    -3.2014200   -1.7007680   -2.5240380  
H    -4.7698780   -5.4484900   -1.3685750  
H    -4.7775220   -5.1956170    1.4698270  
H    -3.9993320   -2.8715530    4.0406290  
H    -3.0460760   -0.3416090    2.6464070  
H    -4.1213530   -4.0933560   -3.3866410  
