64


C    -4.6785500   -0.0389620    0.2056840  
C    -5.2779490   -1.2135440    0.6772750  
C    -6.6433020   -1.1852110    0.3025650  
C    -6.8530620    0.0341100   -0.4112420  
N    -5.6581150    0.6990860   -0.4493890  
C    -8.0996570    0.3912260   -0.9402410  
C    -9.1493880   -0.4921610   -0.7491070  
O   -10.3828030   -0.1983560   -1.2413500  
C    -8.9585830   -1.7166060   -0.0388470  
O   -10.1065820   -2.4770040    0.0601890  
C    -7.7334270   -2.0691770    0.4822870  
H    -4.7711190   -2.0234100    1.1789750  
H    -5.4314960    1.5508740   -0.9470350  
H    -8.2653880    1.3151880   -1.4837700  
H   -10.9733690   -0.9354890   -1.0069830  
H    -9.9151330   -3.2933420    0.5452000  
H    -7.6098530   -3.0067470    1.0204350  
C    -1.1833020   -1.2128300    2.7316840  
C    -2.4396850   -1.0466120    2.2368970  
C    -2.3537350   -0.1082740    1.1412850  
C    -0.9358480    0.2668950    1.0380530  
N    -0.2825750   -0.4372140    2.0174970  
C    -0.3640710    1.1648510    0.1455420  
C    -1.3152160    1.8988550   -0.6480380  
O    -1.0410340    2.8609530   -1.3775800  
C    -2.8436730    1.5149590   -0.5938360  
O    -3.5939010    2.1904160   -1.2850630  
C    -3.3123530    0.4141060    0.2860780  
H    -3.3388470   -1.4830400    2.6402920  
H    -0.8407670   -1.8135240    3.5631400  
H     0.7211100   -0.4300800    2.1304430  
C     3.0913240   -1.7020660   -0.1039640  
C     1.8407570   -1.1415470   -0.0924570  
C     2.0086230    0.2831160    0.0361250  
C     3.4061450    0.5218900    0.0822100  
N     4.0540660   -0.7067670    0.0075180  
C     3.9614690    1.8044420    0.1261910  
C     3.0742760    2.8669220    0.1029970  
O     3.5345310    4.1471270    0.1185050  
C     1.6660550    2.6640760    0.0701050  
O     0.9419670    3.8302260    0.0857890  
C     1.0995330    1.3856470    0.0739980  
H     0.9107350   -1.6836700   -0.1876670  
H     5.0304890    1.9797930    0.1529830  
H     2.7368370    4.7084290    0.0604750  
H     0.1861420    3.7101030   -0.5422410  
H     3.3965040   -2.7373500   -0.1642240  
C     6.5227230   -2.1708800   -3.2659230  
C     7.7248710   -2.1429720   -2.6077160  
C     7.4693310   -1.6615090   -1.2787780  
C     6.0749070   -1.4163990   -1.1968430  
N     5.5209090   -1.7394530   -2.4148440  
C     5.4567150   -0.9248750   -0.0331760  
C     6.2700390   -0.6733930    1.0695440  
O     5.7250360   -0.2053780    2.2266560  
C     7.6690610   -0.9043010    0.9921890  
O     8.3373780   -0.6045610    2.1651410  
C     8.2716470   -1.3944920   -0.1511700  
H     8.6818570   -2.4309500   -3.0205360  
H     4.5488400   -1.6172090   -2.6543760  
H     6.4596770   -0.0642930    2.8492060  
H     9.2875980   -0.7442210    2.0408780  
H     9.3463010   -1.5632220   -0.1763050  
H     6.2891060   -2.4665050   -4.2789070  
