62


C     3.0743210    1.6057540    0.6913330  
C     1.7739720    1.2179890    0.4348880  
C     0.9320530    2.3672580    0.5908730  
C     1.7777560    3.4517520    0.9430130  
N     3.0650910    2.9567000    1.0283430  
C     1.3024500    4.7513680    1.1354790  
C    -0.0602190    4.9608030    0.9780750  
O    -0.5786370    6.2102840    1.1587930  
C    -0.9300540    3.8912670    0.6478020  
O    -2.2600080    4.2670850    0.5961850  
C    -0.4632170    2.5898150    0.4500600  
H     1.4610680    0.2101590    0.2047950  
H     3.8968170    3.5271980    1.0504890  
H     1.9470140    5.5853780    1.3936600  
H    -1.5327280    6.1493330    0.9759590  
H    -2.7885100    3.5810570    0.1587660  
C    -1.4342930    0.2726340    0.7543550  
C    -1.3777780    1.4807480    0.1251280  
C    -2.3619680    1.4198970   -0.9511290  
C    -2.9933600    0.0807020   -0.8782200  
N    -2.3762540   -0.5898050    0.1824950  
C    -3.9975270   -0.3295610   -1.6883250  
C    -4.4768860    0.5843560   -2.7268530  
O    -5.3941630    0.3033110   -3.4812490  
C    -3.7778000    1.9826500   -2.8648630  
O    -4.1370760    2.7431460   -3.7490830  
C    -2.7209380    2.3219400   -1.9067360  
H    -4.4556140   -1.3095800   -1.6260990  
H    -2.2367050    3.2881700   -2.0137700  
H    -0.8448020   -0.0745630    1.5919330  
C    -3.3413780   -2.1829430    4.1490310  
C    -3.0966480   -1.3536600    3.0981750  
C    -2.9031700   -2.1871870    1.9343180  
C    -3.0532860   -3.5874470    2.3942800  
N    -3.3093830   -3.5111520    3.7506930  
C    -2.9713480   -4.6857570    1.5991870  
C    -2.6991720   -4.4889350    0.1831410  
O    -2.6536480   -5.3978700   -0.6300510  
C    -2.4479930   -3.0227660   -0.3315970  
O    -2.0818100   -2.8546300   -1.4806340  
C    -2.6322660   -1.9032560    0.6210060  
H    -3.0711190   -0.2749900    3.1306000  
H    -3.1052520   -5.6993280    1.9631010  
H    -3.5477370   -1.9344400    5.1815960  
H    -3.4890730   -4.3042580    4.3463990  
C     5.4314250    1.0854360    1.4472890  
C     4.3081070    0.8419820    0.6809300  
C     4.6113130   -0.3195650   -0.1274260  
C     5.9269480   -0.7281320    0.2030510  
N     6.4021190    0.1500280    1.1586850  
C     6.5525960   -1.8278500   -0.3978010  
C     5.8344550   -2.5261260   -1.3554220  
O     6.3919140   -3.6093350   -1.9690540  
C     4.5199110   -2.1207470   -1.7125480  
O     3.9453080   -2.9060660   -2.6921330  
C     3.9078890   -1.0333550   -1.1178780  
H     7.3039910    0.0932440    1.6047410  
H     7.5597510   -2.1439560   -0.1458450  
H     5.7364390   -3.9486060   -2.6031150  
H     3.0464960   -2.5948960   -2.8767170  
H     2.9111020   -0.7266820   -1.4242960  
H     5.5994350    1.8345720    2.2084200  
