62


C    -3.7182930   -0.6819030    2.2281200  
C    -4.0048330   -2.0058010    2.4150800  
C    -4.7194310   -2.4543010    1.2528300  
C    -4.8398730   -1.3418850    0.3819500  
N    -4.2202800   -0.2567250    0.9974090  
C    -5.4656310   -1.4249940   -0.8671070  
C    -5.9899260   -2.6527950   -1.2386340  
O    -6.6157560   -2.7886750   -2.4460470  
C    -5.8861050   -3.7765010   -0.3771060  
O    -6.4591070   -4.9279170   -0.8874360  
C    -5.2612670   -3.6919230    0.8529620  
H    -3.7467070   -2.5928870    3.2861110  
H    -5.5582610   -0.5759920   -1.5340560  
H    -6.9063990   -3.7142410   -2.5142480  
H    -6.3470400   -5.6506160   -0.2526340  
H    -5.1879350   -4.5676350    1.4952680  
H    -3.2202890    0.0275450    2.8739860  
C    -0.5303780    1.8475620    0.0028700  
C    -1.1382310    3.0275060   -0.4366050  
C    -2.5384120    2.8611970   -0.3151240  
C    -2.7563310    1.5535480    0.2098740  
N    -1.5377210    0.9659360    0.3944180  
C    -4.0429840    1.0408710    0.4596530  
C    -5.1229240    1.8729510    0.1687450  
O    -6.3878480    1.4471220    0.3999320  
C    -4.9135020    3.1771320   -0.3765020  
O    -6.0921910    3.8537460   -0.6122070  
C    -3.6543020    3.6789410   -0.6131080  
H    -0.5999850    3.8873370   -0.8016840  
H    -1.3663860    0.0302900    0.7370360  
H    -6.9904830    2.1591900    0.1201060  
H    -5.8989730    4.7341800   -0.9670490  
H    -3.5211650    4.6763570   -1.0253820  
C     3.0377970    4.1335020   -1.1250500  
C     4.0332280    3.2763290   -0.7888450  
C     3.3575580    2.1022520   -0.2527440  
C     1.9162530    2.4339460   -0.3395790  
N     1.7428000    3.6222880   -0.8517280  
C     0.8641610    1.4964440    0.0832220  
C     1.3198490    0.2823150    0.5452990  
O     0.4829140   -0.7003330    0.9823220  
C     2.7312130   -0.0821000    0.6562600  
O     3.0198250   -1.1778950    1.1571030  
C     3.7779920    0.8914970    0.2054930  
H     5.0965180    3.4104590   -0.9273580  
H     1.0765910   -1.4233490    1.2841870  
H     3.1246160    5.1161390   -1.5720680  
C     6.0619120    1.4860970    0.9104270  
C     7.3101140    0.9670980    0.9327580  
C     7.2410500   -0.3674040    0.3802650  
C     5.8177320   -0.6046610    0.0374000  
N     5.1228670    0.5699260    0.4020930  
C     5.3753950   -1.7244720   -0.5778440  
C     6.3413340   -2.7885660   -0.8761210  
O     6.0168040   -3.8268700   -1.4280170  
C     7.8406550   -2.5746470   -0.4705920  
O     8.6514630   -3.4583840   -0.6970070  
C     8.2015060   -1.3000670    0.1523090  
H     8.1959490    1.4540340    1.3148700  
H     4.3408110   -1.9036150   -0.8383560  
H     9.2459840   -1.1336900    0.3974630  
H     5.7087140    2.4471350    1.2559750  
