62


C     4.7042320   -0.0790340    2.4872990  
C     3.5268140   -0.4406200    1.8794230  
C     3.8515900   -1.3787530    0.8373090  
C     5.2597540   -1.5546780    0.8783150  
N     5.7524030   -0.7371910    1.8768200  
C     5.9445030   -2.4447330    0.0452410  
C     5.1789860   -3.1990560   -0.8295930  
O     5.7736730   -4.1019590   -1.6531640  
C     3.7663090   -3.0559140   -0.8916450  
O     3.1740590   -3.8635960   -1.8347200  
C     3.0783660   -2.1267570   -0.1035820  
H     2.5418220   -0.1044870    2.1682690  
H     6.7179010   -0.6897630    2.1621740  
H     7.0205290   -2.5808180    0.0807310  
H     5.0456380   -4.5292870   -2.1443430  
H     2.3569640   -4.2315520   -1.4301080  
H     4.8812880    0.5834960    3.3230430  
C     0.6119040    1.5655930   -0.4122750  
C     1.6564420    0.6714390   -0.4256940  
C     1.0762230   -0.6292570   -0.3085370  
C    -0.3983730   -0.3741950   -0.2479860  
N    -0.6589440    0.8957110   -0.3040120  
C    -1.3816920   -1.4542860   -0.1230320  
C    -0.8374680   -2.7203480   -0.1545390  
O    -1.5364060   -3.8517910   -0.1429000  
C     0.6510380   -2.9765900   -0.2533460  
O     0.9663000   -4.1794470   -0.3465030  
C     1.6244630   -1.8851160   -0.2280680  
H     2.7038930    0.8758650   -0.5811100  
H    -0.8597000   -4.5672290   -0.2034730  
C    -2.7956290   -1.1702630   -0.0053490  
C    -3.4323380    0.0389160   -0.1475960  
C    -4.8310980   -0.2272220    0.0787140  
C    -4.8894220   -1.6970440    0.3658420  
N    -3.7147600   -2.2434850    0.3173160  
C    -6.1378840   -2.3591060    0.6573200  
C    -7.2617270   -1.6060730    0.6563040  
O    -8.4928150   -2.0797480    0.9057680  
C    -7.2340020   -0.1222720    0.3663520  
O    -8.3142170    0.4718810    0.3912970  
C    -5.9549550    0.5303500    0.0779980  
H    -2.9720400    0.9859530   -0.3812750  
H    -6.1539610   -3.4234660    0.8638810  
H    -9.0836580   -1.2962370    0.8306060  
H    -5.9725300    1.5976090   -0.1204130  
C     3.7262710    4.2413140    1.1638000  
C     3.1460640    5.4304350    0.8074100  
C     1.9136250    5.1094980    0.1487770  
C     1.8035620    3.6967070    0.1234960  
N     2.9258720    3.1958180    0.7454690  
C     0.6789260    3.0093780   -0.4161860  
C    -0.3460960    3.8293730   -0.9374800  
O    -1.4374270    3.2882900   -1.5289380  
C    -0.2314080    5.2434800   -0.9195440  
O    -1.3159530    5.8872790   -1.4852610  
C     0.8717870    5.8863980   -0.3944940  
H     3.5439360    6.4181410    0.9947020  
H     3.0862150    2.2216490    0.9654540  
H    -1.9879000    4.0297760   -1.8406110  
H    -1.1559670    6.8420480   -1.5085710  
H     0.9287560    6.9731040   -0.3973880  
H     4.6564730    4.0425600    1.6767310  
