62


C    -5.8021380    0.2484380    2.5822050  
C    -7.1570640    0.0872290    2.5845930  
C    -7.5215240   -0.5785200    1.3604870  
C    -6.3315380   -0.8057010    0.6297570  
N    -5.2889310   -0.2930220    1.3994970  
C    -6.3022780   -1.4368430   -0.6164790  
C    -7.5174760   -1.8512400   -1.1416390  
O    -7.5549070   -2.4724480   -2.3536390  
C    -8.7272560   -1.6350620   -0.4279150  
O    -9.8477810   -2.1060520   -1.0821410  
C    -8.7424880   -1.0096430    0.8052430  
H    -7.8283200    0.4073880    3.3697220  
H    -5.3866990   -1.6020240   -1.1733920  
H    -8.4876280   -2.6657050   -2.5519660  
H   -10.6408150   -1.8882330   -0.5703900  
H    -9.6809980   -0.8552090    1.3336640  
H    -5.1313410    0.6991220    3.2989930  
C    -3.0632060   -1.3223120    1.3733450  
C    -1.8220620   -1.0077240    0.9290600  
C    -1.8950670    0.2911090    0.2856630  
C    -3.3024330    0.7288540    0.3956650  
N    -3.9690270   -0.3059800    1.0479320  
C    -3.8040070    1.9102410   -0.0414690  
C    -2.8790430    2.8384940   -0.6729280  
O    -3.2009790    3.9450520   -1.0755890  
C    -1.3774210    2.3951590   -0.8437950  
O    -0.6169090    3.1536300   -1.4195310  
C    -0.9423970    1.0717220   -0.3231780  
H    -0.9326230   -1.6053760    1.0587670  
H    -4.8457580    2.1909520    0.0665590  
H    -3.4226800   -2.1888620    1.9111170  
C     0.7953320   -0.6128590   -1.0052990  
C     0.4338820    0.6237590   -0.5415900  
C     1.6863690    1.3521360   -0.3035400  
C     2.7743910    0.4206000   -0.6692550  
N     2.1684980   -0.7442150   -1.0930310  
C     4.1103270    0.6941980   -0.5920890  
C     4.5040110    2.0184850   -0.0843080  
O     5.6625790    2.3855490   -0.0009770  
C     3.3558840    2.9945420    0.3741930  
O     3.6732580    4.0611920    0.8735090  
C     1.9606030    2.5840970    0.1973330  
H     1.1910680    3.2976880    0.4648800  
H     0.1543760   -1.4277350   -1.3143240  
H     2.6706070   -1.5486880   -1.4392550  
C     5.0836420   -0.7959170   -2.3270350  
C     6.0977450   -1.7072720   -2.4226130  
C     6.7695490   -1.7326650   -1.1532000  
C     6.1150670   -0.7971720   -0.3133170  
N     5.0744560   -0.2275790   -1.0483460  
C     6.4920770   -0.5878550    1.0181450  
C     7.5615620   -1.3244360    1.5022540  
O     7.9752580   -1.1533540    2.7909960  
C     8.2359640   -2.2590800    0.6718380  
O     9.2778740   -2.9153000    1.2997920  
C     7.8537960   -2.4705670   -0.6392410  
H     6.3552930   -2.2772700   -3.3052190  
H     6.0086360    0.1378420    1.6606010  
H     8.7538970   -1.7214100    2.9215410  
H     9.7563710   -3.4542980    0.6528440  
H     8.3780790   -3.1972030   -1.2569030  
H     4.3896160   -0.4367400   -3.0743130  
