60


C    -2.1565910   -3.6930500    0.6781820  
C    -3.3362110   -4.2544500    0.2730050  
C    -4.2255230   -3.1748190   -0.0499190  
C    -3.5135190   -1.9664010    0.1659510  
N    -2.2496850   -2.3130540    0.5903570  
C    -4.0923620   -0.6832690   -0.0172350  
C    -5.4498490   -0.6801930   -0.3864610  
O    -6.1173280    0.5017400   -0.5574450  
C    -6.1612770   -1.8800910   -0.6177830  
O    -7.4704280   -1.6721900   -1.0013520  
C    -5.5677110   -3.1189400   -0.4666640  
H    -3.5549970   -5.3116430    0.2174290  
H    -1.5912980   -1.6663440    0.9977270  
H    -7.0278550    0.2835720   -0.8286760  
H    -7.9183640   -2.5206210   -1.1344290  
H    -6.1357800   -4.0288450   -0.6469560  
H    -1.2371790   -4.1527160    1.0094480  
C    -3.3302600    0.5422320    0.1623490  
C    -1.9589040    0.7491740    0.0906990  
C    -1.6943040    2.1325020    0.3292450  
C    -3.0174460    2.7576980    0.5453790  
N    -3.9494320    1.7461790    0.4577040  
C    -3.2410830    4.0824010    0.7429470  
C    -2.0913300    4.9754490    0.7551720  
O    -2.1904940    6.1897950    0.8351320  
C    -0.6635310    4.3332740    0.6943100  
O     0.2779120    5.0281400    1.0232950  
C    -0.5288480    2.8910780    0.3332070  
H    -1.2295540    0.0124210   -0.2027570  
H    -4.2335300    4.5084550    0.8540790  
H    -4.9511510    1.8692330    0.4155650  
C     0.7799740    2.3557120    0.0483020  
C     1.2596900    1.0690870    0.2223790  
C     2.6302040    1.0922950   -0.2122880  
C     2.8390360    2.5025020   -0.6663410  
N     1.7684070    3.2265620   -0.5211790  
C     4.1017460    2.9551940   -1.1863030  
C     5.1167980    2.0621960   -1.2245700  
O     6.3481210    2.3409210   -1.6735330  
C     4.9402540    0.6232350   -0.8014050  
O     5.8916040   -0.1287290   -1.0020200  
C     3.6385520    0.1652350   -0.2513350  
H     0.7687780    0.2530160    0.7313780  
H     4.2188820    3.9834660   -1.5090560  
H     6.8417480    1.4917930   -1.6149010  
C     0.7994040   -2.9667140   -1.4999540  
C     1.3169490   -4.0235830   -0.8196310  
C     2.4474350   -3.5344050   -0.0575450  
C     2.5471760   -2.0856870   -0.3551430  
N     1.5167050   -1.8071550   -1.2331080  
C     3.5169900   -1.2480020    0.1254120  
C     4.4747390   -1.8371430    1.0920470  
O     5.2778210   -1.1638080    1.7113250  
C     4.4097160   -3.3804620    1.3797250  
O     5.2549300   -3.8759080    2.1082060  
C     3.3342720   -4.1562540    0.7664740  
H     0.9653430   -5.0444050   -0.8561230  
H     3.2943960   -5.2208440    0.9760790  
H    -0.0448640   -2.9325750   -2.1755850  
H     1.3112430   -0.8861810   -1.5917690  
