60


C     5.9770730    1.1668710   -2.1844240  
C     7.3267050    0.9879700   -2.0949950  
C     7.5700670   -0.0278430   -1.1031660  
C     6.3133530   -0.4449870   -0.6052440  
N     5.3501830    0.2983230   -1.2849960  
C     6.1627740   -1.4267350    0.3773380  
C     7.3215420   -2.0053790    0.8738410  
O     7.2395900   -2.9683340    1.8342920  
C     8.5963230   -1.6044000    0.3904970  
O     9.6479350   -2.2746810    0.9817160  
C     8.7318350   -0.6317780   -0.5831010  
H     8.0720590    1.5203930   -2.6698210  
H     5.1964900   -1.7371930    0.7588430  
H     8.1489490   -3.2303780    2.0605540  
H    10.4877030   -1.9253730    0.6484350  
H     9.7182590   -0.3409280   -0.9383070  
H     5.3789710    1.8286780   -2.7936730  
C     3.1474480   -0.6476040   -1.7968780  
C     1.8606400   -0.4578640   -1.4139240  
C     1.8498820    0.5865970   -0.4053040  
C     3.2564560    1.0077870   -0.2261050  
N     4.0013320    0.2057630   -1.0906850  
C     3.6874200    1.9970260    0.5924310  
C     2.6858470    2.7100840    1.3790380  
O     2.9554560    3.6424590    2.1180080  
C     1.1911410    2.2368920    1.2800680  
O     0.3794900    2.7005110    2.0578450  
C     0.8307530    1.1813510    0.2910020  
H     0.9969390   -0.9737190   -1.8059510  
H     4.7281310    2.2915470    0.6723640  
H     3.5731120   -1.3216010   -2.5278520  
C    -1.3030410   -2.5801220    1.0523680  
C    -2.5735290   -2.1904850    0.7571980  
C    -2.5156330   -0.8184210    0.3122820  
C    -1.0918720   -0.4301770    0.3834900  
N    -0.4049640   -1.5555900    0.8013640  
C    -0.5866170    0.8183940    0.1447790  
C    -1.5581460    1.8497180   -0.2685950  
O    -1.2290650    2.9881240   -0.5471430  
C    -3.0653280    1.4441680   -0.4470620  
O    -3.8065160    2.2546660   -0.9667600  
C    -3.4993690    0.0737240   -0.0646420  
H    -3.4632780   -2.7901660    0.8645890  
H    -0.9471560   -3.5299520    1.4289240  
H     0.5691890   -1.5536520    1.0625320  
C    -4.9052770   -0.2756390   -0.1334950  
C    -5.4709690   -1.4661810   -0.5149210  
C    -6.8984780   -1.2803420   -0.3966190  
C    -7.0420320    0.1233080    0.1088980  
N    -5.8908320    0.7060560    0.2546700  
C    -8.3371850    0.6938120    0.3849940  
C    -9.4259710   -0.0743970    0.1489360  
O   -10.6911300    0.3243710    0.3498180  
C    -9.3119870   -1.4864470   -0.3758570  
O   -10.3606470   -2.1071690   -0.5560060  
C    -7.9834970   -2.0536170   -0.6358540  
H    -4.9693270   -2.3408770   -0.9038680  
H    -8.4140240    1.7094810    0.7564670  
H   -11.2469200   -0.4442680    0.0898470  
H    -7.9420070   -3.0751400   -1.0015640  
