64


C     3.1060200   -2.1777510   -2.0354220  
C     4.1477360   -3.0626270   -2.0011790  
C     4.9537770   -2.7274970   -0.8612760  
C     4.3368630   -1.6161980   -0.2293560  
N     3.2012780   -1.2864560   -0.9674390  
C     4.8445280   -1.0366910    0.9446210  
C     6.0061720   -1.5800020    1.4758700  
O     6.5396380   -1.0540200    2.6154250  
C     6.6425790   -2.6828650    0.8486520  
O     7.7880540   -3.1058300    1.4944400  
C     6.1298580   -3.2599560   -0.2992130  
H     4.3256500   -3.8593060   -2.7105330  
H     4.3517460   -0.2195840    1.4605490  
H     7.3313380   -1.5764040    2.8315420  
H     8.1514180   -3.8792610    1.0384530  
H     6.6288710   -4.1126940   -0.7555500  
H     2.2951230   -2.0726780   -2.7414960  
C    -1.2114710   -1.1353170   -0.3563760  
C     0.1035350   -1.5659340   -0.5439610  
C     0.9241530   -0.4143550   -0.5585150  
C     0.0728980    0.7198420   -0.3684910  
N    -1.2046690    0.2485760   -0.2488670  
C     0.5385460    2.0502820   -0.3118140  
C     1.9155260    2.2104540   -0.4591010  
O     2.4657400    3.4442060   -0.3895690  
C     2.7883490    1.0992860   -0.6824590  
O     4.1015080    1.4615330   -0.8512450  
C     2.3172570   -0.2021260   -0.7288200  
H     0.4215720   -2.5929100   -0.6525130  
H    -2.0531780    0.7871210   -0.1336700  
H     3.4261280    3.3408070   -0.5174050  
H     4.6775610    0.6795990   -0.7917480  
C    -2.1146910    2.9995470    3.0943890  
C    -2.6596390    4.1535630    2.5959020  
C    -2.0710510    4.3760910    1.3051240  
C    -1.1663350    3.3078950    1.0720150  
N    -1.2182450    2.4813580    2.1768480  
C    -0.3830650    3.1927900   -0.0965150  
C    -0.5443750    4.2015150   -1.0469990  
O     0.1499170    4.1491970   -2.2185280  
C    -1.4439260    5.2774160   -0.8271710  
O    -1.4827540    6.1862090   -1.8704030  
C    -2.2028490    5.3768790    0.3227340  
H    -3.3965220    4.7730920    3.0883820  
H    -0.6430900    1.6651540    2.3148820  
H    -0.0917140    4.9423240   -2.7275030  
H    -2.1163200    6.8882230   -1.6618220  
H    -2.8851710    6.2131870    0.4624320  
H    -2.2940970    2.4900110    4.0305260  
C    -2.4445140   -1.8429130   -0.2665190  
C    -2.7151730   -3.1920290   -0.3375030  
C    -4.1310420   -3.3109980   -0.1836660  
C    -4.6108110   -1.8923100   -0.0206640  
N    -3.6252070   -1.0431190   -0.0695130  
C    -6.0034410   -1.5840080    0.1630840  
C    -6.8713070   -2.6231530    0.1837450  
O    -8.1929040   -2.5019270    0.3450300  
C    -6.4201270   -4.0664830    0.0221330  
O    -7.3137580   -4.9201070    0.0601370  
C    -5.0105810   -4.3534500   -0.1616680  
H    -2.0101580   -3.9988750   -0.4802790  
H    -6.3267360   -0.5554590    0.2782560  
H    -8.5295130   -3.4295200    0.3128090  
H    -4.7189400   -5.3928170   -0.2742930  
