62


C    -6.4888680   -0.0520270    3.1316410  
C    -7.6259870   -0.3814280    2.4397140  
C    -7.2438760   -0.5628740    1.0687880  
C    -5.8433550   -0.3320830    0.9930080  
N    -5.4178190   -0.0074930    2.2634920  
C    -5.1006640   -0.3946400   -0.2104220  
C    -5.8537470   -0.6949570   -1.3450160  
O    -5.2351180   -0.7661940   -2.5822190  
C    -7.2478360   -0.9293620   -1.2944840  
O    -7.8067390   -1.2135260   -2.5298730  
C    -7.9522170   -0.8720580   -0.1083760  
H    -8.6205980   -0.4739400    2.8537620  
H    -4.4505110    0.1214120    2.5206790  
H    -5.9249750   -0.9997430   -3.2298100  
H    -8.7510110   -1.3990470   -2.4223190  
H    -9.0254830   -1.0498980   -0.0908120  
H    -6.3497230    0.1625170    4.1819790  
C    -1.6716200   -2.0075170    2.2006680  
C    -2.9046170   -1.7861600    1.6460760  
C    -2.7465850   -0.7365560    0.6723240  
C    -1.3776030   -0.3601830    0.7010450  
N    -0.7546530   -1.1212180    1.6689100  
C    -0.8249910    0.6416250   -0.1327260  
C    -1.7057370    1.1481780   -1.0994490  
O    -1.2668690    2.0154260   -2.0468340  
C    -3.0774400    0.7814280   -1.1454570  
O    -3.7883970    1.4414480   -2.1278710  
C    -3.6432700   -0.1165720   -0.2426850  
H    -3.8132890   -2.3229980    1.8774510  
H     0.2431720   -1.2994960    1.6040560  
H    -2.0549510    2.2162260   -2.5898470  
H    -4.3680160    0.7824230   -2.5693130  
H    -1.3632730   -2.7331520    2.9405560  
C     3.0973720   -1.3622060    0.2236390  
C     3.9913430   -0.3275920    0.1386360  
C     3.1332740    0.8733850    0.0444150  
C     1.7328520    0.3369630    0.0796010  
N     1.7461830   -0.9657790    0.2185730  
C     0.5509890    1.1760440   -0.0246450  
C     0.8020290    2.5254860   -0.0362220  
O    -0.1514700    3.4623510   -0.0154990  
C     2.1852830    3.0928230   -0.0848660  
O     2.3018350    4.3189990   -0.1221720  
C     3.3548990    2.1953990   -0.0635400  
H     0.3289730    4.3195170   -0.0599820  
H     4.3337860    2.6549830   -0.0771250  
H     3.3325920   -2.4144050    0.2841020  
C     6.4732480   -3.6339650   -1.2963630  
C     7.7258250   -3.1760270   -1.0824060  
C     7.5505050   -1.8537520   -0.4900350  
C     6.0651740   -1.6705660   -0.4219150  
N     5.4502650   -2.7121610   -0.8973930  
C     5.4442110   -0.4482180    0.1081170  
C     6.3301040    0.4929070    0.5651090  
O     5.9620630    1.6577340    1.1403600  
C     7.8112240    0.3277860    0.5085860  
O     8.5073690    1.2409760    0.9605600  
C     8.3951210   -0.9024610   -0.0560510  
H     8.6664790   -3.6636680   -1.2973000  
H     6.8111340    2.1009170    1.3699190  
H     9.4781470   -0.9754190   -0.0813430  
H     6.1681040   -4.5822950   -1.7216000  
