60


C     4.2908190    0.6382000    0.0280380  
C     5.6685850    0.6262000   -0.1555750  
C     6.1038270   -0.7212040   -0.0641720  
C     4.9473750   -1.5187980    0.1826830  
N     3.8634680   -0.6749660    0.2135430  
C     5.0089330   -2.9079640    0.3466020  
C     6.2557500   -3.5032470    0.2505700  
O     6.3777900   -4.8475080    0.3997370  
C     7.4245360   -2.7229180   -0.0073980  
O     8.5782630   -3.4743980   -0.0756270  
C     7.3635440   -1.3563380   -0.1658990  
H     6.2767800    1.4953850   -0.3649430  
H     2.9323830   -0.9400130    0.4990720  
H     4.1332310   -3.5199400    0.5345320  
H     7.3185080   -5.0716450    0.2898440  
H     9.3342770   -2.8987030   -0.2641970  
H     8.2650750   -0.7794920   -0.3600130  
C     3.3759930    1.7379760    0.0176560  
C     3.6135240    3.0901430    0.0714300  
C     2.3545440    3.7636700    0.0039610  
C     1.3172820    2.7007020   -0.0783190  
N     1.9877530    1.4960730   -0.0188950  
C    -0.0461910    2.9139840   -0.1582000  
C    -0.4418570    4.3321020   -0.1817620  
O    -1.6136000    4.7064110   -0.2214000  
C     0.6436080    5.4699250   -0.1170580  
O     0.2495730    6.6284760   -0.1558370  
C     2.0318200    5.0900700    0.0040360  
H     4.5781730    3.5632750    0.1853210  
H     2.7777910    5.8759540    0.0653390  
H     1.5926650    0.7373190   -0.5777100  
C    -3.9450680    2.4521390    1.8923380  
C    -4.2800580    1.1965170    1.5032510  
C    -3.2506400    0.7454610    0.5927230  
C    -2.2577100    1.8518840    0.5101660  
N    -2.7286320    2.8393970    1.3428640  
C    -1.0627460    1.8303920   -0.1941110  
C    -0.8492290    0.6066720   -0.9670220  
O     0.1653640    0.3652180   -1.6225110  
C    -1.9418900   -0.5207410   -0.9954440  
O    -1.8051560   -1.4189760   -1.8051200  
C    -3.0997740   -0.4328100   -0.0859440  
H    -5.1453460    0.6321100    1.8145080  
H    -4.4701980    3.1303710    2.5520390  
H    -2.4591610    3.8050160    1.1702350  
C    -7.4694090   -0.9682630   -0.8779230  
C    -6.2234400   -0.4488190   -0.7246420  
C    -5.3567150   -1.5245330   -0.2906420  
C    -6.2138440   -2.7334680   -0.2120820  
N    -7.4864420   -2.3210490   -0.5586030  
C    -5.7805930   -3.9786500    0.1140630  
C    -4.3682110   -4.1566130    0.4176570  
O    -3.8708440   -5.2375830    0.6932200  
C    -3.4437650   -2.8870540    0.4012620  
O    -2.2924790   -3.0004220    0.7827930  
C    -4.0155180   -1.5790740   -0.0160660  
H    -5.9324070    0.5756510   -0.8988090  
H    -6.4285910   -4.8492820    0.1404310  
H    -8.3809020   -0.4794120   -1.1957200  
H    -8.2774750   -2.9357970   -0.6693870  
