60


C     0.7180220   -2.7011840   -1.5955490  
C     1.1620840   -1.4045010   -1.4338060  
C     2.1882950   -1.4302740   -0.4359600  
C     2.3171620   -2.7899450   -0.0275900  
N     1.4306640   -3.5405420   -0.7720920  
C     3.2445990   -3.2156520    0.9239240  
C     4.1025000   -2.2541900    1.4380540  
O     5.0421620   -2.6003430    2.3533600  
C     4.0368720   -0.8991950    1.0152050  
O     4.9671770   -0.0846380    1.6245220  
C     3.0685410   -0.4466480    0.1135260  
H     0.8272590   -0.5472360   -2.0004020  
H     1.1422930   -4.4865600   -0.5446500  
H     3.3266340   -4.2483470    1.2446890  
H     5.5447490   -1.7834200    2.5387320  
H     5.3893750    0.4445220    0.9150030  
H    -0.0202480   -3.0987550   -2.2778630  
C    -0.2600330    2.5928590    0.0062620  
C     0.4519190    1.4339830    0.2166440  
C     1.7864070    1.6908080   -0.2776850  
C     1.7061380    3.0786400   -0.8133980  
N     0.5252120    3.5987560   -0.6616230  
C     2.8397700    3.7324010   -1.4183670  
C     4.0177190    3.0727260   -1.3930580  
O     5.1704110    3.5737090   -1.8687590  
C     4.1483170    1.7127670   -0.7653320  
O     5.3028660    1.2649050   -0.6905920  
C     2.9537860    0.9718330   -0.2830170  
H     0.1521210    0.5563480    0.7712860  
H     2.7395330    4.7309060   -1.8280140  
H     5.8559940    2.9013600   -1.6673120  
C    -3.8342950    0.0621580    0.0623970  
C    -4.7769570    1.0064680    0.3481750  
C    -4.0817540    2.2570890    0.5272610  
C    -2.6467050    1.9683320    0.3330460  
N    -2.5482930    0.6086000    0.0994170  
C    -1.6399520    2.9021050    0.3235040  
C    -2.0445610    4.2888990    0.6931580  
O    -1.2427130    5.1642780    0.9492000  
C    -3.5724230    4.6173750    0.8454350  
O    -3.9056710    5.7814310    1.0054990  
C    -4.5284810    3.5175590    0.7904280  
H    -5.8379130    0.8407060    0.4642590  
H    -5.5807810    3.7516350    0.9183170  
H    -1.7390850    0.1884700   -0.3441650  
C    -5.0426660   -1.7727430   -1.0678230  
C    -4.8405180   -3.0732700   -1.3841770  
C    -3.5934850   -3.4887430   -0.7765820  
C    -3.0922480   -2.3176220   -0.0258290  
N    -3.9973260   -1.2736780   -0.2690710  
C    -1.9953630   -2.3358100    0.7702400  
C    -1.2207530   -3.5753870    0.8330810  
O    -0.3041810   -3.7475040    1.6214130  
C    -1.5922010   -4.7221780   -0.1604090  
O    -0.7800910   -5.6208380   -0.3578910  
C    -2.8881570   -4.6526770   -0.8292780  
H    -5.4835030   -3.6837760   -2.0017370  
H    -1.6852060   -1.5089070    1.3979920  
H    -3.2144950   -5.5106250   -1.4087600  
H    -5.8376630   -1.1021800   -1.3626910  
