64


C    -5.4953180   -1.3603900    1.9480230  
C    -5.0878390   -0.6461370    0.8247240  
C    -6.3101740   -0.2219940    0.1565070  
C    -7.3915880   -0.7297280    0.9177040  
N    -6.8562020   -1.4072900    2.0037070  
C    -8.7337610   -0.5572750    0.5648050  
C    -8.9989350    0.1476570   -0.5986230  
O   -10.2860770    0.3552730   -0.9927630  
C    -7.9322730    0.6569730   -1.3842600  
O    -8.3487630    1.3353220   -2.5122440  
C    -6.6087780    0.4808580   -1.0272220  
H    -7.3920280   -1.8114650    2.7569310  
H    -9.5537860   -0.9500370    1.1570180  
H   -10.2548710    0.8733500   -1.8159240  
H    -7.5794540    1.7127010   -2.9644510  
H    -5.8163510    0.9071620   -1.6316690  
H    -4.8884240   -1.7865690    2.7333080  
C    -1.4550920   -3.1966350    1.1450460  
C    -2.7474250   -2.7885800    1.1372670  
C    -2.7080520   -1.3819490    0.7560040  
C    -1.2666990   -1.0908660    0.5821430  
N    -0.5442910   -2.1636450    0.8044740  
C    -0.7628630    0.2251940    0.1938990  
C    -1.7321710    1.1070680   -0.2012020  
O    -1.4696080    2.3105360   -0.7409210  
C    -3.1941780    0.8332810   -0.0785360  
O    -3.9602710    1.7181740   -0.4704780  
C    -3.6843720   -0.4556650    0.5074850  
H    -3.6316990   -3.3843700    1.3107600  
H    -2.3504480    2.7194950   -0.8867620  
H    -1.0645250   -4.1849550    1.3558680  
C     2.8985130   -1.8355110   -1.3324800  
C     3.7987680   -0.8182450   -1.1125460  
C     3.0482320    0.2383530   -0.4693450  
C     1.7060620   -0.2051170   -0.3538920  
N     1.6344640   -1.4605980   -0.9215290  
C     0.6707350    0.5903340    0.1982070  
C     1.0805500    1.8249320    0.7300360  
O     0.1951240    2.6149370    1.3982390  
C     2.4190370    2.2753980    0.6117790  
O     2.6350900    3.5278700    1.1670280  
C     3.3969220    1.5180790   -0.0002860  
H     0.9107250   -2.1058420   -0.6120320  
H     0.6612230    3.4429260    1.6089900  
H     3.5308830    3.8221690    0.9462740  
H     4.4141870    1.8907930   -0.0957350  
H     3.0723210   -2.8189550   -1.7473420  
C     5.7488860   -1.1373190   -2.7030640  
C     5.2176810   -0.8107350   -1.4757670  
C     6.3441580   -0.4879310   -0.6261100  
C     7.5215350   -0.6372380   -1.4037620  
N     7.1285560   -1.0409450   -2.6636200  
C     8.8037850   -0.4140320   -0.8853230  
C     8.9003530   -0.0408730    0.4463900  
O    10.1274900    0.1886930    1.0042110  
C     7.7343250    0.0990630    1.2434200  
O     7.9913530    0.4696100    2.5538650  
C     6.4701400   -0.1204540    0.7285540  
H     7.7460570   -1.2041450   -3.4427140  
H     9.7069610   -0.5292610   -1.4763550  
H     9.9764760    0.4008510    1.9413870  
H     7.1700130    0.4186520    3.0646740  
H     5.5897520   -0.0166420    1.3588230  
H     5.2396200   -1.4149140   -3.6152060  
