62


C    -1.7173410   -0.4078120    0.4012090  
C    -3.0584990   -0.6609850    0.2909500  
C    -3.1808090   -2.0627730   -0.0726240  
C    -1.8796320   -2.6064940   -0.1563730  
N    -0.9771690   -1.5725490    0.1492570  
C    -1.6441700   -3.9255870   -0.5609240  
C    -2.7495570   -4.7182060   -0.8442230  
O    -2.5659940   -6.0109890   -1.2306100  
C    -4.0611820   -4.1901900   -0.7527330  
O    -5.0521340   -5.0920910   -1.0780900  
C    -4.2838520   -2.8748420   -0.3826900  
H    -0.6529930   -4.3404930   -0.6962570  
H    -3.4434490   -6.3870920   -1.4184150  
H    -5.9125590   -4.6469760   -1.0788770  
H    -5.2924330   -2.4695910   -0.3587750  
H    -1.2035090    0.4819230    0.7312760  
C     0.3966720   -1.6250320    0.2105900  
C     1.3051090   -0.6175350    0.0191710  
C     2.6077450   -1.1477220    0.2911340  
C     2.4033680   -2.5715430    0.6480270  
N     1.0390650   -2.8277700    0.5236780  
C     3.3822680   -3.4319120    1.0093970  
C     4.7555960   -2.9371720    1.0262080  
O     5.7085460   -3.6410360    1.3204090  
C     5.0121790   -1.4374260    0.6370790  
O     6.1547340   -1.0153160    0.7169520  
C     3.8654760   -0.5963250    0.2365530  
H     1.0778910    0.3874340   -0.2959430  
H     3.2040830   -4.4733350    1.2593440  
H     0.5790010   -3.5499990    1.0612590  
C     2.4072140    3.2360760    1.8945700  
C     3.1075710    4.1431100    1.1764270  
C     3.9069560    3.3526320    0.2461850  
C     3.5409680    1.9299350    0.5628440  
N     2.6632920    1.8760540    1.5238400  
C     4.1362890    0.8041230   -0.1417950  
C     5.0278140    1.1216480   -1.1266250  
O     5.6226200    0.2093660   -1.9049880  
C     5.4066160    2.5366650   -1.4637030  
O     6.2141030    2.7112290   -2.3750440  
C     4.8013560    3.6525410   -0.7132630  
H     3.1004270    5.2207180    1.2640200  
H     6.2252670    0.7156490   -2.4931120  
H     5.1097870    4.6587460   -0.9805470  
H     1.7005250    3.4225670    2.6949060  
C    -5.3626870    0.0169710    1.1019370  
C    -4.1423130    0.2876680    0.5158190  
C    -4.1528740    1.6990640    0.1958330  
C    -5.4021660    2.2180380    0.6176820  
N    -6.1174970    1.1692570    1.1625710  
C    -5.7602090    3.5617010    0.4516450  
C    -4.8381350    4.3980550   -0.1574500  
O    -5.1335900    5.7170360   -0.3416520  
C    -3.5862670    3.8928840   -0.6005160  
O    -2.7827800    4.8452200   -1.1985770  
C    -3.2377230    2.5656960   -0.4337500  
H    -7.0343350    1.2416460    1.5747010  
H    -6.7163650    3.9615840    0.7735000  
H    -4.3733680    6.1221230   -0.7936320  
H    -1.9663790    4.4294320   -1.5127580  
H    -2.2805550    2.1979920   -0.7965720  
H    -5.7336040   -0.9061260    1.5237110  
