64


C    -0.0606530    0.3612290   -1.0137500  
C    -0.5838740   -0.8438570   -1.4171430  
C     0.4547300   -1.8315070   -1.3285320  
C     1.6179450   -1.1721520   -0.8702780  
N     1.3097300    0.1792590   -0.7343990  
C     2.8454340   -1.8230780   -0.6104990  
C     2.8282610   -3.2104960   -0.8280260  
O     3.9505400   -3.9634130   -0.5832290  
C     1.6787710   -3.8797840   -1.3108070  
O     1.8680040   -5.2374500   -1.4844390  
C     0.4956710   -3.2157210   -1.5752260  
H    -1.5864340   -0.9976730   -1.7915500  
H     1.7739240    0.7322500   -0.0212390  
H     3.7302500   -4.8854590   -0.8055760  
H     1.0459950   -5.6450960   -1.7944160  
H    -0.3766570   -3.7531910   -1.9394100  
C    -4.1572000    1.7912400    0.2115580  
C    -3.0340240    1.0213030   -0.0784750  
C    -2.0067990    1.8941420   -0.5315660  
C    -2.5411490    3.2136580   -0.5002890  
N    -3.8341970    3.1215730   -0.0335790  
C    -1.8060420    4.3408280   -0.8725830  
C    -0.4954100    4.1322360   -1.2796890  
O     0.2658450    5.1881620   -1.6726240  
C     0.0697920    2.8292590   -1.3055670  
O     1.3755800    2.8065530   -1.7523010  
C    -0.6570110    1.6941180   -0.9406370  
H    -2.9412240   -0.0404320    0.0908490  
H    -4.5021210    3.8770520   -0.0307680  
H    -2.2118620    5.3466950   -0.8559950  
H     1.1260790    4.8297230   -1.9558480  
H     1.6365030    1.8810740   -1.9182700  
C     4.0232930   -1.0974690   -0.1386800  
C     4.3252340    0.2589340   -0.1867850  
C     5.6043230    0.4431100    0.4209890  
C     6.0532380   -0.8404000    0.8329000  
N     5.0778280   -1.7457970    0.4906380  
C     7.2863900   -1.0410540    1.4674600  
C     8.0795520    0.0729210    1.6897630  
O     9.2910120   -0.0642530    2.3041250  
C     7.6458810    1.3656050    1.2849350  
O     8.5486320    2.3716910    1.5784600  
C     6.4300050    1.5619880    0.6600500  
H     3.7394300    1.0319300   -0.6618630  
H     5.1356660   -2.7508330    0.5617680  
H     7.6334520   -2.0192610    1.7838240  
H     9.6840630    0.8234360    2.3643920  
H     8.1932950    3.2208230    1.2774100  
H     6.1202320    2.5612930    0.3597560  
C    -6.4044360    2.1943610    1.3113290  
C    -5.4415830    1.4151090    0.7230570  
C    -6.0408420    0.0555510    0.7113920  
C    -7.3612640    0.2367360    1.3621520  
N    -7.5602780    1.4881190    1.6970790  
C    -8.2674170   -0.8618110    1.5457760  
C    -7.8946130   -2.0823490    1.0834390  
O    -8.6468580   -3.1944750    1.1953350  
C    -6.5873550   -2.2907240    0.3942320  
O    -6.3106020   -3.4239810   -0.0073750  
C    -5.6730870   -1.1412320    0.2164850  
H    -9.2215750   -0.7002520    2.0353520  
H    -8.1198970   -3.9036600    0.7669490  
H    -4.7485810   -1.3323820   -0.3178560  
H    -6.3539140    3.2550550    1.5288060  
