62


C    -4.6676010   -0.3957050    2.2597750  
C    -4.2053530   -0.1743000    0.9657580  
C    -5.2746770   -0.6144580    0.0808820  
C    -6.3202300   -1.0973560    0.9058130  
N    -5.9191750   -0.9393760    2.2232820  
C    -7.5081900   -1.6429280    0.4079710  
C    -7.6493570   -1.7067130   -0.9691270  
O    -8.7865540   -2.2182590   -1.5160160  
C    -6.6116160   -1.2375990   -1.8169590  
O    -6.8940900   -1.3650830   -3.1619140  
C    -5.4403300   -0.7030030   -1.3157040  
H    -6.4915500   -1.1322710    3.0311870  
H    -8.3030820   -2.0082170    1.0499430  
H    -8.6943250   -2.1546270   -2.4828130  
H    -6.1991890   -0.9325950   -3.6806740  
H    -4.6797190   -0.3244120   -1.9885830  
H    -4.2026840   -0.1385380    3.2001300  
C    -0.2421620   -0.6481340    2.9083710  
C    -1.5321580   -0.7959000    2.5208670  
C    -1.7699280    0.1330580    1.4306400  
C    -0.4868720    0.8233570    1.1962030  
N     0.3792360    0.3349650    2.1361210  
C    -0.2237070    1.7903600    0.2327440  
C    -1.3733800    2.1884980   -0.5375340  
O    -1.4052960    3.1538750   -1.3146960  
C    -2.7095260    1.3681170   -0.4294860  
O    -3.5583890    1.5880520   -1.2735280  
C    -2.8975510    0.3956240    0.6827750  
H    -2.2439930   -1.4977550    2.9258890  
H     0.3176320   -1.1622470    3.6775010  
H     1.3616360    0.5673530    2.1620160  
C     3.9188390   -0.0038830   -0.1152040  
C     2.5342310    0.2115640   -0.0441920  
C     2.3025290    1.6071410    0.0039620  
C     3.5888130    2.2320190   -0.0659980  
N     4.5306860    1.2433490   -0.1207240  
C     3.7582460    3.6189540   -0.1139760  
C     2.6015390    4.3786850   -0.1234940  
O     2.6683660    5.7254290   -0.2020920  
C     1.2971970    3.7844450   -0.0462510  
O     0.2896830    4.7079550   -0.0468330  
C     1.1128300    2.4099340    0.0616190  
H     1.7848540   -0.5608710   -0.1084470  
H     5.5273710    1.3473530   -0.2593130  
H     4.7297800    4.0962010   -0.1788360  
H     1.7402230    6.0346500   -0.2345640  
H    -0.4470800    4.3325190   -0.5992590  
C     2.9821080   -4.3660720    0.4871430  
C     2.8554720   -3.0110730    0.5034590  
C     4.1346080   -2.4961360    0.0354620  
C     4.9286250   -3.7133080   -0.2088280  
N     4.2524160   -4.8082910    0.0450950  
C     6.2955580   -3.6664000   -0.6631720  
C     6.8651350   -2.4534940   -0.8387480  
O     8.1465740   -2.2710040   -1.2248780  
C     6.1081040   -1.1944560   -0.5879060  
O     6.7391160   -0.1378550   -0.7215800  
C     4.6521090   -1.2389450   -0.1969370  
H     1.9994630   -2.4437350    0.8367600  
H     6.8411300   -4.5882460   -0.8328070  
H     8.2787250   -1.3004680   -1.2473650  
H     2.2435520   -5.1048580    0.7755250  
