60


C    -5.4744570    3.1512360   -0.9339600  
C    -4.4267990    2.2687970   -0.8810550  
C    -4.8158980    1.2149500    0.0128220  
C    -6.1275170    1.5132410    0.4714450  
N    -6.4976290    2.7017360   -0.1213810  
C    -6.8395880    0.6816490    1.3431650  
C    -6.2150240   -0.4804270    1.7713470  
O    -6.8600420   -1.3289660    2.6163700  
C    -4.8940060   -0.7975550    1.3572560  
O    -4.3685340   -1.9373250    1.9314550  
C    -4.1957960    0.0406100    0.4906450  
H    -3.5003150    2.3552640   -1.4307240  
H    -7.3858240    3.1617360    0.0044940  
H    -7.8464280    0.9051340    1.6799630  
H    -6.2554400   -2.0757740    2.7794730  
H    -3.8236520   -2.4242580    1.2871850  
H    -5.5790060    4.0711030   -1.4913720  
C    -1.7539330    0.5427190    0.4086450  
C    -0.5947510   -0.0375680   -0.0060590  
C    -0.9351740   -1.3284150   -0.5926130  
C    -2.4101400   -1.4320040   -0.4845330  
N    -2.8551020   -0.2686390    0.1172030  
C    -3.1333040   -2.5011280   -0.9252460  
C    -2.4228540   -3.6165710   -1.5471210  
O    -2.9878680   -4.6049400   -1.9875770  
C    -0.8586570   -3.5262870   -1.6529400  
O    -0.2387620   -4.4590840   -2.1348040  
C    -0.1908260   -2.3111090   -1.1601680  
H    -4.2191550   -2.5256050   -0.9140590  
H     0.8899660   -2.2610350   -1.2593430  
H    -1.9120900    1.4871720    0.9089900  
C     1.8201670   -0.2552050    0.4360300  
C     2.9808920    0.4592310    0.3301720  
C     2.5988790    1.7899250   -0.1443700  
C     1.1226870    1.7680170   -0.2986560  
N     0.7027240    0.4903720    0.0806990  
C     0.3777910    2.8063770   -0.7504570  
C     1.0585320    4.0423440   -1.1290220  
O     0.4660900    5.0218730   -1.5546990  
C     2.6181840    4.0900730   -0.9825210  
O     3.2114870    5.1125510   -1.2870750  
C     3.3100540    2.8956730   -0.4849290  
H    -0.6989720    2.7634600   -0.8682270  
H     4.3863670    2.9500320   -0.3875730  
H     1.6982210   -1.2801790    0.7471010  
C     4.4117360   -3.5926360   -0.4298820  
C     5.7086540   -3.5215340   -0.0578090  
C     5.9003920   -2.1498180    0.4025860  
C     4.5587620   -1.5099060    0.2268260  
N     3.7005310   -2.3580970   -0.2605730  
C     4.3081590   -0.1068260    0.5643980  
C     5.3749570    0.5712370    1.0851370  
O     5.3154600    1.8494770    1.5044200  
C     6.7244990   -0.0471320    1.2674090  
O     7.6140260    0.6553810    1.7498360  
C     6.9448230   -1.4571800    0.8913510  
H     6.4591930   -4.2988470   -0.0907150  
H     6.2233150    2.0572870    1.8224820  
H     7.9415890   -1.8615060    1.0389770  
H     3.8710460   -4.4419820   -0.8290590  
