60


C    -2.6380200   -1.2201760    0.1198810  
C    -3.3663550   -0.0346250   -0.0096010  
C    -4.7388790   -0.3652220    0.0977070  
C    -4.8213490   -1.7768130    0.2976110  
N    -3.5418150   -2.2649340    0.3089280  
C    -6.0429720   -2.4451170    0.4431930  
C    -7.1972010   -1.6798090    0.3840790  
O    -8.4134040   -2.2744440    0.5164420  
C    -7.1344960   -0.2670570    0.1838770  
O    -8.3762420    0.3373640    0.1515510  
C    -5.9336970    0.3908000    0.0425340  
H    -2.9306440    0.9374850   -0.1803020  
H    -3.2593290   -3.2308080    0.3903230  
H    -6.1161470   -3.5171170    0.5929240  
H    -9.0868960   -1.5764760    0.4340950  
H    -8.2708070    1.2827380   -0.0320240  
H    -5.9025880    1.4672760   -0.1109610  
C     0.6539840    1.6480860   -0.2672080  
C     1.7348870    0.7922960   -0.3125970  
C     1.1954250   -0.5377200   -0.1792950  
C    -0.2746540   -0.3285300   -0.0665040  
N    -0.5757130    0.9349400   -0.0973880  
C    -1.2156270   -1.4477830    0.0600610  
C    -0.6261550   -2.6904320    0.0963690  
O    -1.3386750   -3.8410650    0.2345490  
C     0.8239630   -2.9286400    0.0208800  
O     1.2234820   -4.0939020    0.1500220  
C     1.7574890   -1.7797330   -0.1450920  
H     2.7602580    1.0251190   -0.5636880  
H    -0.6532300   -4.5492560    0.2466260  
C     3.7026420    4.5884450    0.8535900  
C     3.0375950    5.7331760    0.5594820  
C     1.7387530    5.3534520    0.0427590  
C     1.7049840    3.8757690    0.0473030  
N     2.9316140    3.4740400    0.5263750  
C     0.6315660    3.0944370   -0.3291820  
C    -0.5586900    3.8346220   -0.8303840  
O    -1.5296030    3.2996500   -1.3291990  
C    -0.5526360    5.4083100   -0.7740430  
O    -1.5731630    6.0043720   -1.0791540  
C     0.6704080    6.0921710   -0.3632430  
H     3.4020670    6.7421330    0.6858000  
H     0.6714830    7.1778910   -0.3626650  
H     4.6940050    4.4519780    1.2646670  
H     3.1382520    2.5213800    0.7893070  
C     5.0663780   -0.4289320    2.4256480  
C     6.0956940   -1.0858820    1.8346370  
C     5.5525670   -1.8091040    0.7017740  
C     4.1015720   -1.5084980    0.6787260  
N     3.8769940   -0.6356010    1.7279710  
C     3.1993260   -2.0534350   -0.1929150  
C     3.7430830   -2.9534670   -1.2366810  
O     3.0601780   -3.3979340   -2.1404480  
C     5.2774900   -3.2908810   -1.2155000  
O     5.7161930   -4.0744550   -2.0414220  
C     6.1190970   -2.6487590   -0.2052570  
H     7.1283070   -1.0820220    2.1518540  
H     7.1767080   -2.8940330   -0.1983140  
H     5.0677360    0.1992550    3.3069420  
H     2.9561120   -0.3770400    2.0498000  
