62


C    -4.0817340   -2.8998790    2.6226330  
C    -4.8759150   -3.7260830    1.8715330  
C    -5.3399940   -2.9606510    0.7480190  
C    -4.7805560   -1.6625860    0.8704300  
N    -4.0113700   -1.6574360    2.0170180  
C    -5.0420430   -0.6134310   -0.0378460  
C    -5.8935100   -0.9217980   -1.1009200  
O    -6.1560790    0.0200820   -2.0473970  
C    -6.4543850   -2.2174810   -1.2417690  
O    -7.2596020   -2.3543660   -2.3590440  
C    -6.1914640   -3.2317640   -0.3411380  
H    -5.1094820   -4.7584030    2.0937880  
H    -3.5513770   -0.8434340    2.3928870  
H    -6.8403060   -0.3447950   -2.6351290  
H    -7.7493910   -3.1878120   -2.3012390  
H    -6.6359440   -4.2161440   -0.4743830  
H    -3.5518010   -3.0898630    3.5455270  
C    -0.8577660    0.8964310    0.2053870  
C    -1.9881460    0.1284180    0.0923300  
C    -3.1352830    0.9943080    0.1970000  
C    -2.5980380    2.3617090    0.3804360  
N    -1.2173330    2.2453800    0.3387960  
C    -3.3514290    3.4789360    0.5343110  
C    -4.8008210    3.3358190    0.4899210  
O    -5.5677050    4.2825190    0.5803520  
C    -5.4042040    1.8923360    0.3188240  
O    -6.6132000    1.7639030    0.3949630  
C    -4.4828950    0.7438210    0.1307690  
H    -2.0159110   -0.9299460   -0.1204010  
H    -2.9322770    4.4731970    0.6546520  
H    -0.5909700    2.9556370    0.6876910  
C     0.9981620   -0.7373600    0.5857270  
C     0.5316350    0.4936310    0.1940620  
C     1.7024200    1.2693120   -0.2149220  
C     2.8690300    0.3808090   -0.0196760  
N     2.3613790   -0.8244390    0.4496390  
C     4.1738470    0.7024780   -0.2499420  
C     4.4250690    2.0617020   -0.7903960  
O     5.5286930    2.4437130   -1.1293180  
C     3.2023420    3.0307220   -0.9861070  
O     3.4134630    4.1677780   -1.3757600  
C     1.8567920    2.5319200   -0.6981340  
H     1.0269940    3.2029120   -0.8923800  
H     0.4326620   -1.5729990    0.9767290  
H     2.9372720   -1.6023590    0.7370790  
C     5.0154800   -3.2868220   -2.0097110  
C     6.1793510   -3.5390600   -1.3354930  
C     6.4301130   -2.4093700   -0.4835180  
C     5.3640900   -1.4954210   -0.6821540  
N     4.4989490   -2.0666240   -1.5989570  
C     5.2865780   -0.2438900   -0.0314360  
C     6.3319150    0.0627630    0.8441450  
O     6.2990180    1.2265010    1.5455860  
C     7.4018890   -0.8445750    1.0550810  
O     8.3375190   -0.3907620    1.9643620  
C     7.4611340   -2.0669080    0.4127330  
H     6.7903200   -4.4260770   -1.4313200  
H     3.7613660   -1.5673870   -2.0728230  
H     7.1450650    1.3038240    2.0205920  
H     9.1126670   -0.9714320    1.9513730  
H     8.2914320   -2.7456810    0.5961330  
H     4.4914590   -3.8805820   -2.7452960  
