64


C     2.9518940   -2.3373790   -0.9409970  
C     3.8230640   -3.3661850   -1.0902370  
C     5.1196140   -2.9138440   -0.6443380  
C     4.9806210   -1.5719030   -0.2227210  
N     3.6191600   -1.2163980   -0.4117850  
C     6.0580370   -0.8324920    0.2692740  
C     7.2943160   -1.4673290    0.3347250  
O     8.3715500   -0.7813460    0.8095780  
C     7.4471970   -2.8102770   -0.0835450  
O     8.7290230   -3.2995460    0.0412720  
C     6.3722830   -3.5380180   -0.5718780  
H     3.5790720   -4.3474950   -1.4744980  
H     5.9504900    0.1931310    0.5910640  
H     9.1370360   -1.3806560    0.7789360  
H     8.7613390   -4.2179080   -0.2654210  
H     6.5018490   -4.5699000   -0.8911170  
H     1.8969460   -2.2812040   -1.1557260  
C     2.9988370   -0.0283980   -0.1555910  
C     1.6649720    0.2951160   -0.3743430  
C     1.5327180    1.6364630    0.0514550  
C     2.9180440    2.0157950    0.5191090  
N     3.7633070    1.0284410    0.3955010  
C     3.2221920    3.3201110    1.0230290  
C     2.2095620    4.2174400    1.0116860  
O     2.3269800    5.4813410    1.4152580  
C     0.8117290    3.8782090    0.4995000  
O     0.0323790    4.8552140    0.4851460  
C     0.4758820    2.5359130    0.0793500  
H     0.8848550   -0.3265380   -0.7812780  
H     4.2191440    3.5659420    1.3694540  
H     1.4377790    5.8800630    1.2549820  
C    -2.1588360   -0.8816190    1.3146480  
C    -1.1334520    0.0176560    1.2020710  
C    -1.5241560    0.9952500    0.2236890  
C    -2.8301360    0.6345180   -0.2057430  
N    -3.1983620   -0.5275160    0.4628440  
C    -3.5765260    1.4018780   -1.1112460  
C    -2.9810220    2.5638440   -1.5833910  
O    -3.6516050    3.3713890   -2.4466190  
C    -1.6752230    2.9444420   -1.1787610  
O    -1.2333800    4.1135190   -1.7625450  
C    -0.9109720    2.1708800   -0.2985970  
H    -0.2048520   -0.0161120    1.7517470  
H    -4.5999830    1.1655090   -1.3833820  
H    -3.0570740    4.1304770   -2.6050690  
H    -0.8500820    4.6634240   -1.0435060  
H    -2.2496500   -1.7703080    1.9221580  
C    -6.3496810   -1.8516840    3.2965710  
C    -5.2413930   -1.2602560    2.7490720  
C    -5.2451450   -1.5807150    1.3492290  
C    -6.3959200   -2.3752470    1.1025970  
N    -7.0464270   -2.5265720    2.3101960  
C    -6.7386450   -2.8490510   -0.1697220  
C    -5.8944370   -2.5190810   -1.2182480  
O    -6.1737140   -2.9486310   -2.4818690  
C    -4.7206840   -1.7494180   -1.0023740  
O    -3.9513770   -1.5640450   -2.1323830  
C    -4.3900030   -1.2782910    0.2656760  
H    -4.5124160   -0.6612190    3.2754710  
H    -7.9084650   -3.0305000    2.4458140  
H    -7.6273960   -3.4416920   -0.3601190  
H    -5.4807910   -2.5807070   -3.0594170  
H    -3.4203610   -0.7527400   -2.0459170  
H    -6.7084120   -1.8483860    4.3161460  
