62


C     3.8647790   -1.6657700    2.7664890  
C     4.7127610   -2.6379780    2.3023760  
C     4.1258710   -3.1705450    1.1063340  
C     2.9113020   -2.4655160    0.8876660  
N     2.7765800   -1.5639890    1.9224930  
C     2.0324580   -2.7326700   -0.1904430  
C     2.4375350   -3.7711090   -1.0287550  
O     1.6396490   -4.1387820   -2.0980770  
C     3.6425240   -4.4858580   -0.8318500  
O     3.8602440   -5.4710020   -1.7786610  
C     4.4941100   -4.1975220    0.2157970  
H     5.6389690   -2.9503440    2.7646430  
H     2.0263200   -0.8940210    1.9996640  
H     2.1019620   -4.8597350   -2.5637930  
H     4.7069850   -5.9082000   -1.6062300  
H     5.4141350   -4.7611290    0.3548540  
H     3.9374120   -1.0361060    3.6422350  
C     1.1095090    1.6860270   -0.2067430  
C     1.7343000    0.4366190   -0.2141460  
C     0.7247570   -0.5583870   -0.3230680  
C    -0.5215330    0.1296560   -0.4041720  
N    -0.2560560    1.4688560   -0.3203820  
C    -1.7706760   -0.5192530   -0.5519570  
C    -1.6907840   -1.9122040   -0.6464120  
O    -2.8140720   -2.6522050   -0.8399800  
C    -0.4570060   -2.6216940   -0.5659980  
O    -0.6106620   -3.9874340   -0.6593380  
C     0.7651960   -1.9845150   -0.3765830  
H     2.7978020    0.2617340   -0.2321020  
H    -0.9137410    2.2358860   -0.3808500  
H    -2.5026350   -3.5766950   -0.9175660  
H     0.0907230   -4.3275510   -1.2587850  
C    -3.2595700    1.4035680   -1.3006660  
C    -3.0284860    0.2249420   -0.6513650  
C    -4.3279050   -0.0824910   -0.0077950  
C    -5.2131890    1.0463850   -0.4117160  
N    -4.5848000    1.9015580   -1.1688910  
C    -6.5854760    1.1271180    0.0186420  
C    -7.0523080    0.1514670    0.8330660  
O    -8.3058190    0.1016550    1.3182790  
C    -6.1775450   -0.9855140    1.2761560  
O    -6.6713700   -1.8324910    2.0206210  
C    -4.7763830   -1.0534370    0.8090350  
H    -7.2036720    1.9582740   -0.3022680  
H    -8.3353130   -0.7114790    1.8688620  
H    -4.1881450   -1.9055350    1.1280100  
H    -2.5638490    1.9682290   -1.9103940  
C     5.1020020    3.2819800    1.0076320  
C     4.0199140    2.4819480    0.8071040  
C     2.9654570    3.3012530    0.2520780  
C     3.5226010    4.6642350    0.1572970  
N     4.8259810    4.5808460    0.6040510  
C     2.8615520    5.7690740   -0.2930660  
C     1.4814880    5.6127650   -0.6849330  
O     0.7772800    6.5146630   -1.1174000  
C     0.8287180    4.1869440   -0.5319480  
O    -0.3770850    4.1082010   -0.7288440  
C     1.6691450    3.0182450   -0.1483960  
H     3.9623910    1.4362100    1.0621380  
H     3.3211620    6.7488790   -0.3729840  
H     6.0720830    3.0358690    1.4179680  
H     5.4494440    5.3673880    0.6949560  
