62


C     2.1301660   -2.2643250   -0.3344830  
C     3.2185990   -3.1224900   -0.3343380  
C     4.3275490   -2.4101290    0.2019070  
C     3.8666870   -1.1000170    0.5133930  
N     2.5187710   -1.0424660    0.2221330  
C     4.7095650   -0.1083890    1.0295930  
C     6.0330020   -0.4516880    1.2542650  
O     6.8959600    0.4698010    1.7574800  
C     6.5067670   -1.7674900    0.9703210  
O     7.8431570   -1.9421800    1.2602520  
C     5.6778890   -2.7409240    0.4551970  
H     3.1923630   -4.1616140   -0.6329900  
H     2.0280920   -0.1707970    0.0434500  
H     4.3676950    0.8947290    1.2613460  
H     7.7640190    0.0393030    1.8492320  
H     8.1080060   -2.8512410    1.0552110  
H     6.0592360   -3.7367880    0.2405590  
C     0.7793450   -2.5188360   -0.7505820  
C     0.2972510   -3.4019510   -1.6809550  
C    -1.1352070   -3.3028800   -1.7052350  
C    -1.4923270   -2.2794180   -0.6976360  
N    -0.2915610   -1.7705040   -0.1990060  
C    -2.7678220   -1.9537890   -0.3369140  
C    -3.8622160   -2.5985450   -1.1060210  
O    -5.0256090   -2.2641090   -0.9751800  
C    -3.4979090   -3.6817830   -2.1796530  
O    -4.4081290   -4.2487010   -2.7674880  
C    -2.0900030   -3.9582370   -2.4265530  
H     0.9003970   -4.0278540   -2.3231000  
H    -1.8449120   -4.7160770   -3.1642400  
H    -0.2432960   -1.4545610    0.7634460  
C    -1.5780960    2.2516280    0.3357160  
C    -2.2457320    2.4565160    1.5094400  
C    -2.9521660    1.2489940    1.8628870  
C    -2.6512070    0.2762240    0.7967970  
N    -1.7843640    0.9107900   -0.1136390  
C    -3.1157670   -0.9985300    0.7285890  
C    -3.9676160   -1.4463270    1.8661350  
O    -4.3146190   -2.6033820    2.0011220  
C    -4.3498070   -0.4045600    2.9785750  
O    -5.1193010   -0.7524370    3.8611590  
C    -3.7523790    0.9256290    2.9162670  
H    -2.1807570    3.3471980    2.1180190  
H    -3.9922000    1.6266970    3.7096220  
H    -1.9854250    0.7700870   -1.1020420  
C    -1.3836570    6.6810910   -0.3719060  
C    -1.7871240    5.4251920    0.0064500  
C    -0.7860810    4.5062940   -0.4503050  
C     0.2067100    5.2734180   -1.1154360  
N    -0.1815650    6.5945840   -1.0438190  
C     1.3285170    4.7038660   -1.7253450  
C     1.4618630    3.3244460   -1.6638550  
O     2.5447150    2.7283690   -2.2388520  
C     0.4955510    2.5298680   -1.0013670  
O     0.8058310    1.1816200   -0.9786220  
C    -0.6376780    3.0927470   -0.3887880  
H    -2.6998630    5.1884690    0.5328480  
H     0.3214480    7.3715760   -1.4431480  
H     2.0817970    5.2905690   -2.2410430  
H     2.4231380    1.7663480   -2.1639650  
H     0.0341480    0.6724030   -0.6420000  
H    -1.8588960    7.6392590   -0.2168380  
