62


C     4.7062750    1.8920620    2.5014220  
C     5.9828420    1.6743000    2.0539650  
C     5.9070570    0.6484800    1.0542020  
C     4.5380170    0.2844120    0.9319280  
N     3.8354830    1.0519470    1.8360540  
C     4.0750900   -0.7253590    0.0534430  
C     5.0728010   -1.3626350   -0.6852860  
O     4.7347920   -2.3811300   -1.5599390  
C     6.4392050   -1.0147810   -0.5812450  
O     7.2617870   -1.7640600   -1.4025840  
C     6.8690000   -0.0173570    0.2713230  
H     6.8750000    2.1765450    2.4011110  
H     2.8321190    1.0456780    1.9362430  
H     5.5602690   -2.6703260   -1.9915050  
H     8.1741270   -1.4468250   -1.3316340  
H     7.9247520    0.2344120    0.3433090  
H     4.3368430    2.5799540    3.2488010  
C     0.3724130    1.7638370   -0.5505080  
C     1.6730050    1.3074720   -0.4372380  
C     1.6268600   -0.0997480   -0.1850970  
C     0.2549780   -0.4643200   -0.1477700  
N    -0.4847140    0.6848440   -0.3279820  
C    -0.1979410   -1.7987730   -0.0086110  
C     0.8258810   -2.7586070    0.0317440  
O     0.5316450   -4.0866970    0.1110400  
C     2.2017290   -2.4121990    0.0281990  
O     3.0325850   -3.5025420    0.1474820  
C     2.6413300   -1.0904590   -0.0379270  
H     2.5574750    1.9219150   -0.5193000  
H    -1.4509010    0.6679520   -0.6239350  
H     1.3993190   -4.5422860    0.1219610  
H     3.7718280   -3.3899150   -0.4932810  
C     0.4938380    4.0882830   -1.5396010  
C    -0.1235760    3.0850650   -0.8464520  
C    -1.4174880    3.6776650   -0.4343920  
C    -1.3836410    5.0548380   -1.0030180  
N    -0.2614210    5.2813630   -1.6331030  
C    -2.4748310    5.9724090   -0.8215380  
C    -3.5397060    5.5615720   -0.0889830  
O    -4.6228820    6.3178530    0.1556290  
C    -3.5876450    4.1963440    0.5276050  
O    -4.5782670    3.8893050    1.1881430  
C    -2.4516490    3.2675770    0.3226540  
H    -2.4254020    6.9638240   -1.2580390  
H    -5.2144840    5.7625910    0.7084800  
H    -2.5197130    2.3021870    0.8147550  
H     1.4634220    4.0472660   -2.0210050  
C    -1.6120470   -2.1391510    0.0533750  
C    -2.6904010   -1.3535870    0.4024930  
C    -3.8805120   -2.1555590    0.3097640  
C    -3.4314580   -3.4996870   -0.1315940  
N    -2.0652300   -3.4165590   -0.2845530  
C    -4.2592160   -4.5578370   -0.3272120  
C    -5.6881200   -4.3740300   -0.0934170  
O    -6.5077880   -5.2684700   -0.2425690  
C    -6.1876000   -2.9557440    0.3709370  
O    -7.3827090   -2.7869300    0.5671550  
C    -5.1970610   -1.8957910    0.5474730  
H    -2.6490510   -0.3459780    0.7873490  
H    -3.9121790   -5.5348410   -0.6492710  
H    -5.5539160   -0.9223360    0.8707450  
H    -1.4362050   -4.1917740   -0.4363660  
