62


C    -1.9576380   -2.1805440    0.0512260  
C    -2.9671110   -1.3210370    0.4949460  
C    -4.2002940   -2.0225100    0.4038740  
C    -3.9026320   -3.3209810   -0.1054900  
N    -2.5480440   -3.3813890   -0.3106240  
C    -4.8901470   -4.2891580   -0.3223860  
C    -6.1982840   -3.9458960   -0.0188100  
O    -7.2000070   -4.8491090   -0.2089140  
C    -6.5145610   -2.6535910    0.4930430  
O    -7.8616450   -2.4735550    0.7422450  
C    -5.5422240   -1.6988590    0.7053890  
H    -2.8317450   -0.3389880    0.9253670  
H    -1.9855530   -4.1770680   -0.5886630  
H    -4.6690270   -5.2781390   -0.7094160  
H    -8.0307170   -4.4215560    0.0628140  
H    -8.0093400   -1.5834920    1.0945360  
H    -5.8069340   -0.7184150    1.0964420  
C     0.4930200    1.4687010   -0.0819060  
C     1.7411850    0.8846280   -0.0916510  
C     1.5595030   -0.5394870   -0.0632540  
C     0.1027060   -0.7658490   -0.0245370  
N    -0.4816970    0.4771600   -0.0018700  
C    -0.5241700   -1.9967670   -0.0418970  
C     0.3808210   -3.1420770   -0.2280140  
O    -0.0048580   -4.2798890   -0.4776010  
C     1.9358280   -2.9368120   -0.0957380  
O     2.6158130   -3.9392660    0.0389200  
C     2.4820640   -1.5685810   -0.0941830  
H     2.6877400    1.4017600   -0.1396100  
H    -1.4593440    0.6760320   -0.1630920  
C     5.0563620    0.5759510    2.8208730  
C     6.2616340    0.3137190    2.2241850  
C     5.9887190   -0.4515240    1.0403960  
C     4.5817110   -0.6187780    0.9669620  
N     4.0407740    0.0204670    2.0636970  
C     3.9383510   -1.3624400   -0.0503040  
C     4.7785000   -1.9261610   -1.0183720  
O     4.2369080   -2.6004960   -2.0674080  
C     6.1856110   -1.7596080   -0.9610900  
O     6.8578370   -2.3685270   -2.0055870  
C     6.7965490   -1.0371760    0.0456000  
H     7.2322020    0.6236000    2.5866090  
H     3.0605130    0.0320770    2.2973470  
H     4.9724030   -2.9912440   -2.5708060  
H     7.8104950   -2.3449080   -1.8330960  
H     7.8788530   -0.9255370    0.0654830  
H     4.8283200    1.1187030    3.7273700  
C     0.0845080    2.8426980   -0.1497770  
C     0.8382240    3.9850440   -0.2218510  
C    -0.1102510    5.0678710   -0.2773180  
C    -1.4520140    4.3929850   -0.2289940  
N    -1.3320840    3.0995080   -0.1537110  
C    -2.6774500    5.1462040   -0.2652480  
C    -2.5806020    6.4945690   -0.3436660  
O    -3.6288750    7.3239160   -0.3846200  
C    -1.2424000    7.2053080   -0.3930080  
O    -1.2681210    8.4341520   -0.4630090  
C    -0.0085350    6.4179370   -0.3560890  
H     1.9157860    4.0686220   -0.2375560  
H    -3.6338530    4.6367540   -0.2310880  
H    -3.2422350    8.2277630   -0.4401620  
H     0.9314760    6.9593310   -0.3945960  
