62


C     3.0845760   -1.7510720   -0.0455380  
C     4.2166780   -2.4429960   -0.3381230  
C     5.2837040   -1.4896960   -0.5036620  
C     4.7351370   -0.2010030   -0.3006100  
N     3.3700370   -0.3736550    0.0000620  
C     5.4948780    0.9644010   -0.4616720  
C     6.8394510    0.8184130   -0.7804140  
O     7.6141230    1.9283330   -0.9385700  
C     7.4089710   -0.4671820   -0.9530790  
O     8.7520320   -0.4478680   -1.2639560  
C     6.6448150   -1.6147600   -0.8284810  
H     4.2873420   -3.5188770   -0.4187030  
H     5.0844370    1.9640170   -0.3917730  
H     8.5072450    1.6279460   -1.1807270  
H     9.0669190   -1.3519000   -1.4126220  
H     7.0897480   -2.5945310   -0.9885290  
H     2.0903750   -2.1145490    0.1670250  
C     2.4356900    0.5929390    0.3028530  
C     1.0734780    0.5553220    0.1568530  
C     0.5406510    1.7921600    0.6590300  
C     1.7071660    2.5850470    1.1044730  
N     2.8364400    1.8186400    0.8404920  
C     1.6471160    3.8218990    1.6563730  
C     0.3387470    4.4485560    1.7677810  
O     0.1693840    5.5714790    2.2185310  
C    -0.9206640    3.6498680    1.2589970  
O    -2.0049530    4.2124120    1.3215620  
C    -0.7492920    2.2764060    0.7490330  
H     0.5187490   -0.2213710   -0.3436910  
H     2.5200740    4.3759110    1.9869250  
H     3.7133840    1.9440150    1.3255920  
C    -2.0129770    0.1174500    0.7673210  
C    -1.9128230    1.4464190    0.4229770  
C    -3.1267840    1.7620410   -0.3080900  
C    -3.8905050    0.5727330   -0.3941750  
N    -3.1925910   -0.4316380    0.2847010  
C    -5.1019640    0.4980430   -1.0915870  
C    -5.5627590    1.6562900   -1.6985560  
O    -6.7434490    1.6424420   -2.3814440  
C    -4.8198310    2.8613590   -1.6073460  
O    -5.4122420    3.9323660   -2.2468420  
C    -3.6156400    2.9240390   -0.9330780  
H    -5.6771260   -0.4159430   -1.1838780  
H    -6.8952810    2.5472000   -2.7061730  
H    -4.9143680    4.7398540   -2.0489840  
H    -3.0735990    3.8602740   -0.8531340  
H    -1.3563290   -0.4740110    1.3862260  
C    -4.8068750   -2.2620170    0.7535570  
C    -3.5685780   -1.7668830    0.4658490  
C    -2.6606190   -2.9017850    0.3773750  
C    -3.4823540   -4.1065620    0.6481710  
N    -4.7695070   -3.6527910    0.8421570  
C    -2.9874170   -5.3713290    0.6746820  
C    -1.5620700   -5.5718920    0.4237280  
O    -1.0314470   -6.6717520    0.4227940  
C    -0.6766010   -4.3025580    0.1467030  
O     0.5293460   -4.4332600   -0.0104160  
C    -1.3329740   -2.9970030    0.1098110  
H    -3.5992300   -6.2465640    0.8697650  
H    -0.7195160   -2.1325180   -0.1130150  
H    -5.7329970   -1.7278860    0.9102850  
H    -5.5648200   -4.2380620    1.0433210  
