66


C     5.6640170   -1.8639890    0.9764190  
C     4.9288440   -0.8410480    0.4100090  
C     5.8562010    0.2498640    0.1999660  
C     7.1261410   -0.1800980    0.6603360  
N     6.9782330   -1.4709080    1.1287700  
C     8.2647180    0.6357390    0.6241360  
C     8.1160400    1.9142610    0.1119710  
O     9.1914830    2.7535930    0.0460660  
C     6.8500660    2.3639220   -0.3493630  
O     6.8614990    3.6618260   -0.8307830  
C     5.7299020    1.5573520   -0.3089200  
H     7.7241910   -2.0557710    1.4706610  
H     9.2376780    0.3063280    0.9745850  
H     8.8794620    3.5838680   -0.3534240  
H     5.9865800    3.8763070   -1.1865330  
H     4.7760820    1.9134410   -0.6867050  
H     5.3543080   -2.8657360    1.2406870  
C     1.6313230   -2.1292890    3.0077640  
C     0.5960780   -1.9473700    2.1274300  
C     1.1641280   -1.4441850    0.9084570  
C     2.5650810   -1.3523780    1.1094020  
N     2.8214150   -1.7889240    2.3934080  
C     3.4808280   -0.8875150    0.1388050  
C     2.9091800   -0.4952670   -1.0727010  
O     3.6991750   -0.0206040   -2.0856820  
C     1.5112010   -0.5817880   -1.2973940  
O     1.1251280   -0.1464440   -2.5505890  
C     0.6142260   -1.0603040   -0.3419330  
H    -0.4492450   -2.1422170    2.3188320  
H     3.7264630   -1.7284560    2.8344290  
H     3.1051060    0.1750870   -2.8316470  
H     0.1529510   -0.1558050   -2.5928270  
H     1.6234620   -2.4853860    4.0284610  
C    -2.9816650    1.0281340    1.4086340  
C    -1.7095050    0.6031960    1.1362690  
C    -1.8050420   -0.3611130    0.0772290  
C    -3.1783530   -0.4771920   -0.2586530  
N    -3.8898680    0.3822100    0.5711940  
C    -3.6430360   -1.3101490   -1.2832500  
C    -2.6995000   -2.0548110   -1.9709060  
O    -3.0910250   -2.9026210   -2.9680430  
C    -1.3204480   -1.9568170   -1.6498420  
O    -0.5057180   -2.7718780   -2.4113180  
C    -0.8435810   -1.1199220   -0.6395770  
H    -0.8086600    0.9163290    1.6442050  
H    -4.6936590   -1.4020640   -1.5310830  
H    -2.2920650   -3.3655870   -3.2750510  
H     0.3801290   -2.7808610   -2.0078940  
H    -3.3468830    1.7165520    2.1579690  
C    -5.9375310    4.1132960   -0.3277170  
C    -7.2199000    3.6564690   -0.1655360  
C    -7.1336210    2.2668000    0.1872850  
C    -5.7540160    1.9415410    0.2236760  
N    -5.0476430    3.0811650   -0.0909530  
C    -5.2823730    0.6518220    0.5308490  
C    -6.2336570   -0.3283480    0.8063840  
O    -5.8392150   -1.5927900    1.1234470  
C    -7.6180860   -0.0150840    0.7554880  
O    -8.4323180   -1.0951310    1.0436670  
C    -8.0762010    1.2546390    0.4591730  
H    -8.1220350    4.2407380   -0.2839870  
H    -4.0426870    3.1328420   -0.1582290  
H    -6.6474450   -2.1156600    1.2663220  
H    -9.3594400   -0.8164960    1.0188110  
H    -9.1441340    1.4612480    0.4311000  
H    -5.5759290    5.0966670   -0.5930790  
