64


C    -3.2470690    1.0145760   -1.5725450  
C    -2.9846050   -0.0636490   -0.7489780  
C    -4.2298540   -0.3711230   -0.0781190  
C    -5.1961130    0.5561300   -0.5428550  
N    -4.5686440    1.3823840   -1.4546420  
C    -6.5211350    0.5681210   -0.0883550  
C    -6.8780310   -0.3763810    0.8598180  
O    -8.1558290   -0.4149430    1.3381020  
C    -5.9222790   -1.3102290    1.3420820  
O    -6.4285100   -2.1874700    2.2843420  
C    -4.6166240   -1.3173420    0.8916770  
H    -5.0088180    2.1354200   -1.9595350  
H    -7.2600020    1.2784880   -0.4450150  
H    -8.1979640   -1.1423940    1.9825510  
H    -5.7324360   -2.8048600    2.5532500  
H    -3.9091180   -2.0529190    1.2626100  
H    -2.5941840    1.5263900   -2.2659200  
C     0.9733130    1.7684770   -0.1720680  
C     1.7166720    0.5828610   -0.1479480  
C     0.8159840   -0.4961790   -0.2910380  
C    -0.4896900    0.0638820   -0.4213170  
N    -0.3601240    1.4234020   -0.3516680  
C    -1.6669190   -0.7008000   -0.5911600  
C    -1.4659990   -2.0812890   -0.6065220  
O    -2.5239350   -2.9235660   -0.7623770  
C    -0.1677580   -2.6627970   -0.4713550  
O    -0.1889940   -4.0388750   -0.4980410  
C     0.9904660   -1.9102460   -0.3295540  
H     2.7901040    0.5119710   -0.0774440  
H    -1.1037530    2.1032580   -0.4264540  
H    -2.1695590   -3.8310960   -0.7549190  
H     0.7086040   -4.3713060   -0.3220810  
C     4.1291310   -1.8510640    2.9183900  
C     2.9920210   -1.6418580    2.1813570  
C     3.1442490   -2.3726730    0.9539950  
C     4.4087760   -3.0175700    1.0100470  
N     4.9843540   -2.6816570    2.2180090  
C     4.8954100   -3.8358530   -0.0169610  
C     4.0897930   -4.0026710   -1.1313090  
O     4.5168220   -4.7727240   -2.1734510  
C     2.8201610   -3.3728430   -1.2082940  
O     2.1415210   -3.6262570   -2.3860990  
C     2.3201080   -2.5608190   -0.1875470  
H     2.1445820   -1.0403470    2.4760040  
H     5.8914510   -2.9861290    2.5345670  
H     5.8646320   -4.3223340    0.0238440  
H     3.8423440   -4.7060430   -2.8719880  
H     1.4214800   -2.9782420   -2.4756600  
H     4.4047280   -1.4779600    3.8946830  
C     4.7316360    3.7956030    1.2180440  
C     3.7939390    2.8328610    1.0126670  
C     2.6609820    3.5218380    0.4070300  
C     3.1028920    4.9270160    0.3374500  
N     4.3187340    5.0872810    0.7987370  
C     2.2578070    5.9773430   -0.1744930  
C     1.0078640    5.6490220   -0.5693840  
O     0.1019110    6.5401910   -1.0284890  
C     0.5126130    4.2435890   -0.5029370  
O    -0.6656250    4.0569300   -0.8312780  
C     1.4265600    3.1311400   -0.0596850  
H     3.8542920    1.7908210    1.2903710  
H     2.6233060    6.9978650   -0.2093710  
H    -0.7078560    6.0183250   -1.2078060  
H     5.7132360    3.6825000    1.6628020  
