62


C     6.9467130    0.2136610   -3.1246900  
C     5.7910690    0.2183720   -2.3833400  
C     6.1633110    0.0309860   -1.0039200  
C     7.5798610   -0.0676540   -0.9804940  
N     8.0241390    0.0299700   -2.2842650  
C     8.3195520   -0.1963330    0.1997730  
C     7.6057120   -0.1965220    1.3864300  
O     8.2550910   -0.2930770    2.5760860  
C     6.1859970   -0.1008170    1.4015060  
O     5.6493640   -0.1477090    2.6635590  
C     5.4329470   -0.0272360    0.2241590  
H     4.7979730    0.3828600   -2.7762120  
H     8.9917460    0.0310360   -2.5669230  
H     9.4025370   -0.2627410    0.2160180  
H     7.5594210   -0.2321160    3.2594800  
H     4.9154210    0.5130040    2.6925210  
H     7.0912770    0.3358860   -4.1887970  
C     2.6402920   -2.4239000   -2.1334540  
C     1.4497370   -1.9351910   -1.6944910  
C     1.7359320   -0.9349410   -0.6917880  
C     3.2095460   -0.8689270   -0.5929240  
N     3.6915500   -1.8157170   -1.4635340  
C     3.9519360   -0.0397170    0.2277880  
C     3.1518610    0.7774200    1.1221370  
O     3.6061170    1.4375930    2.0599140  
C     1.5916590    0.8610810    0.9288620  
O     1.0113520    1.7370380    1.5456990  
C     0.9059840   -0.1209850    0.0569050  
H     0.4738810   -2.2275990   -2.0481180  
H     2.8413460   -3.1772380   -2.8831450  
H     4.6711470   -1.9057010   -1.6948430  
C    -1.2705540   -1.3800900   -0.1082120  
C    -0.5406270   -0.2273040    0.0409460  
C    -1.5813390    0.8299720    0.1363020  
C    -2.8678350    0.0892380    0.0314570  
N    -2.6621360   -1.1940100   -0.1097810  
C    -4.1706200    0.7531930    0.0465110  
C    -4.1126110    2.1168560    0.0780900  
O    -5.2197320    2.9136970    0.0549790  
C    -2.8520690    2.8888010    0.1556860  
O    -2.9284670    4.1211690    0.1942810  
C    -1.5596970    2.1735380    0.1953500  
H    -4.8618150    3.8311540    0.1063270  
H    -0.6618990    2.7719640    0.2805550  
H    -0.8858500   -2.3899690   -0.1749360  
C    -5.8213180   -2.7361860    2.3849080  
C    -5.0303900   -1.7172780    1.9249410  
C    -5.7116710   -1.1125230    0.8153860  
C    -6.9363290   -1.8156530    0.6587090  
N    -6.9700800   -2.8055080    1.6181940  
C    -7.8954700   -1.4848430   -0.3044060  
C    -7.6230890   -0.3947350   -1.1141080  
O    -8.5181650   -0.0032130   -2.0637940  
C    -6.4186940    0.3424700   -0.9733360  
O    -6.2921800    1.3811130   -1.8759600  
C    -5.4326480   -0.0097340   -0.0419650  
H    -4.0653440   -1.4427330    2.3225200  
H    -7.7351600   -3.4441730    1.7658970  
H    -8.8278020   -2.0282760   -0.4207300  
H    -8.1194160    0.7815870   -2.4858930  
H    -6.0407420    2.1866190   -1.3767000  
H    -5.6609560   -3.4297220    3.1982720  
