62


C     4.6818040   -0.7707510   -2.0753690  
C     5.3699450   -1.9525270   -2.0598280  
C     6.1114830   -1.9958380   -0.8307900  
C     5.8302170   -0.7946110   -0.1314520  
N     4.9498650   -0.0495200   -0.9117230  
C     6.3705820   -0.5098130    1.1277980  
C     7.2201980   -1.4512880    1.6864280  
O     7.7797190   -1.2217190    2.9125260  
C     7.5198730   -2.6564290    0.9985330  
O     8.3835280   -3.4931190    1.6839850  
C     6.9789120   -2.9372480   -0.2421280  
H     5.3595410   -2.7019930   -2.8397140  
H     6.1572210    0.4081760    1.6625370  
H     8.3386780   -1.9902240    3.1190530  
H     8.5506230   -4.2853220    1.1526990  
H     7.2181300   -3.8702960   -0.7492180  
H     4.0333550   -0.3448310   -2.8280820  
C     0.7388470    0.9207760   -0.3103900  
C     0.9273540    2.2764090   -0.0422210  
C     2.3195490    2.5396630   -0.1120540  
C     2.9578340    1.3071850   -0.4299550  
N     1.9885100    0.3500970   -0.5462410  
C     4.3525490    1.1902870   -0.5762120  
C     5.1085730    2.3474660   -0.3941310  
O     6.4567610    2.3065860   -0.5362060  
C     4.4779720    3.5819810   -0.0560580  
O     5.3754180    4.6196010    0.0973900  
C     3.1120520    3.6949710    0.0793670  
H     0.1331450    2.9715540    0.1768120  
H     2.1347620   -0.6299530   -0.7450100  
H     6.7938910    3.2024920   -0.3577840  
H     4.8973130    5.4359990    0.3050920  
H     2.6564080    4.6490980    0.3341070  
C    -3.4180350    2.1137500    0.3271920  
C    -4.1032700    0.9343630    0.1484580  
C    -3.0433180   -0.0460520   -0.1554140  
C    -1.7859190    0.7399820   -0.1122720  
N    -2.0334180    1.9986020    0.1713840  
C    -0.4761170    0.1368810   -0.3614170  
C    -0.5066640   -1.2119400   -0.6397880  
O     0.6089880   -1.9401930   -0.8988640  
C    -1.7425730   -2.0130340   -0.6876430  
O    -1.6467220   -3.2196080   -0.9470990  
C    -3.0455850   -1.3628020   -0.4281770  
H     0.2788750   -2.8554940   -1.0512780  
H    -3.9492120   -1.9599450   -0.4656360  
H    -3.8339020    3.0851480    0.5677280  
C    -5.5114140    0.6948340    0.2327490  
C    -6.5301360    1.5785190    0.5140250  
C    -7.7405030    0.8128190    0.4697920  
C    -7.2857190   -0.5820060    0.1356800  
N    -5.9942200   -0.6445390   -0.0004890  
C    -8.2197960   -1.6679170   -0.0016410  
C    -9.5316920   -1.3883080    0.1817210  
O   -10.5157670   -2.2884290    0.0879340  
C   -10.0228750    0.0084930    0.5196550  
O   -11.2398520    0.1428260    0.6635830  
C    -9.0576990    1.0935930    0.6538770  
H    -6.4470480    2.6352160    0.7266940  
H    -7.8686040   -2.6649720   -0.2428180  
H   -11.3411810   -1.7824080    0.2722390  
H    -9.4423080    2.0792690    0.8960640  
