60


C     4.5752180   -0.6964690   -0.2957800  
C     5.1404860   -1.9550900   -0.2815360  
C     6.5623080   -1.7941020   -0.2419870  
C     6.8204760   -0.3977530   -0.2303560  
N     5.5986170    0.2475220   -0.2347820  
C     8.1156800    0.1323940   -0.2038550  
C     9.1725310   -0.7644810   -0.1824930  
O    10.4555960   -0.3025270   -0.1597320  
C     8.9341160   -2.1660020   -0.1806730  
O    10.0885260   -2.9252750   -0.1512970  
C     7.6542370   -2.6859940   -0.2071300  
H     4.5911020   -2.8865120   -0.2512110  
H     5.4707430    1.2307970   -0.4210470  
H     8.3172240    1.1986430   -0.1968850  
H    11.0416200   -1.0786770   -0.1405630  
H     9.8573430   -3.8657470   -0.1456110  
H     7.4973530   -3.7629180   -0.2068330  
C     2.1903200   -0.9473840   -1.0524490  
C     3.1787390   -0.3016430   -0.3667290  
C     2.5412860    0.8383310    0.2935860  
C     1.1061680    0.7868000   -0.0741430  
N     0.9523680   -0.3431580   -0.8513460  
C     0.1670280    1.7098230    0.2908200  
C     0.6173960    2.8108180    1.1677370  
O    -0.1480920    3.6411630    1.6245650  
C     2.1306870    2.8706600    1.5807060  
O     2.5114540    3.7890080    2.2875890  
C     3.0275890    1.8157630    1.1027290  
H     4.0653070    1.8597550    1.4167160  
H     2.2707140   -1.8201660   -1.6861850  
H     0.1206450   -0.5448440   -1.3857010  
C    -3.0777550   -1.2584790    0.9292990  
C    -1.8989120   -0.5934270    0.9118130  
C    -2.0930930    0.6269290    0.1565090  
C    -3.5096790    0.6247920   -0.2733410  
N    -4.0658550   -0.5784530    0.2001350  
C    -4.1169050    1.6571160   -0.9040030  
C    -3.3122330    2.8279870   -1.2489580  
O    -3.7811650    3.8134200   -1.7936770  
C    -1.7817480    2.8017500   -0.9177200  
O    -1.0704990    3.6866200   -1.3542820  
C    -1.2442800    1.6624880   -0.1259610  
H    -0.9811170   -0.9145260    1.3813300  
H    -5.1658010    1.6702460   -1.1731130  
H    -3.3293580   -2.2056280    1.3858910  
C    -7.0358010   -2.1819870    3.0524990  
C    -5.8954910   -1.6261750    2.5723810  
C    -6.1133530   -1.5049250    1.1353820  
C    -7.4791580   -2.0625200    0.9254970  
N    -8.0128800   -2.4547290    2.0485740  
C    -8.0960460   -2.1138240   -0.3761080  
C    -7.3934600   -1.6408060   -1.4300060  
O    -7.8512560   -1.6218710   -2.6932710  
C    -6.0007660   -1.1011390   -1.2760520  
O    -5.3924050   -0.7816670   -2.2915610  
C    -5.3924970   -1.0158620    0.0927890  
H    -5.0282880   -1.3030330    3.1303470  
H    -9.0957730   -2.5189690   -0.4845040  
H    -7.1184370   -1.2739280   -3.2443300  
H    -7.2748250   -2.4192760    4.0821550  
