62


C     4.8184510   -2.1369060   -1.0918330  
C     4.6258370   -0.8913940   -0.4929090  
C     5.9602210   -0.3494040   -0.2677450  
C     6.8817770   -1.3195140   -0.7305230  
N     6.1490300   -2.3855460   -1.2339690  
C     8.2695390   -1.1732220   -0.6448640  
C     8.7497650   -0.0065300   -0.0706460  
O    10.0901390    0.2005120    0.0332640  
C     7.8463990    0.9782120    0.4091130  
O     8.4684880    2.0823610    0.9523730  
C     6.4759520    0.8213180    0.3222660  
H     6.5416940   -3.1901150   -1.6996320  
H     8.9648990   -1.9241290   -1.0052100  
H    10.2170220    1.0765280    0.4381910  
H     7.8078210    2.7621590    1.1539450  
H     5.8142840    1.6061100    0.6697050  
H     4.0808580   -2.8230780   -1.4811680  
C     0.8408970   -2.8081090    0.7979670  
C     2.1411060   -2.5404140    0.5220650  
C     2.2263910   -1.1433540    0.1433770  
C     0.8584940   -0.6199720    0.2189510  
N     0.0631070   -1.6688290    0.5850030  
C     0.4763510    0.7041870   -0.0069930  
C     1.5695620    1.6487770   -0.1654030  
O     1.4395610    2.8712470   -0.1690000  
C     3.0342600    1.1028040   -0.3449760  
O     3.8973360    1.9215950   -0.6014460  
C     3.3099770   -0.3554490   -0.2092250  
H     2.9687150   -3.2255060    0.6191080  
H     0.3719990   -3.7198840    1.1403940  
H    -0.9062520   -1.5790310    0.8715480  
C    -0.8957380    1.1390330    0.0017790  
C    -2.0581130    0.3963240   -0.1415130  
C    -3.1716510    1.2691790   -0.0034800  
C    -2.6014800    2.6261340    0.1842210  
N    -1.2328440    2.4758700    0.1953700  
C    -3.3427790    3.7525400    0.3349940  
C    -4.7893480    3.6147880    0.2859880  
O    -5.5594310    4.5508490    0.4371150  
C    -5.4020440    2.1919700    0.0035400  
O    -6.6207310    2.1587020   -0.2015680  
C    -4.5360070    1.0171100   -0.0184180  
H    -2.1276010   -0.6477920   -0.3941540  
H    -2.9185380    4.7360740    0.5076690  
H    -0.5253570    3.2007620    0.2013960  
C    -3.4909090   -2.6739800    2.3444150  
C    -3.5896200   -1.3842480    1.8798120  
C    -4.5320280   -1.3858600    0.7895590  
C    -4.9829240   -2.7241400    0.6548640  
N    -4.3153920   -3.4890570    1.5942710  
C    -5.9605280   -3.1155410   -0.2666970  
C    -6.5113150   -2.1146110   -1.0483500  
O    -7.4867840   -2.4049740   -1.9494270  
C    -6.0809510   -0.7614270   -0.9424940  
O    -6.7210520    0.0795890   -1.8160830  
C    -5.0643860   -0.3680300   -0.0653840  
H    -3.0858750   -0.5262210    2.2998320  
H    -4.5019900   -4.4614470    1.7823900  
H    -6.3116460   -4.1380010   -0.3615510  
H    -7.7397240   -1.5450480   -2.3397400  
H    -6.8872560    0.9269490   -1.3291090  
H    -2.9215190   -3.0760720    3.1711030  
