60


C    -5.5254020   -0.2594050    1.8817770  
C    -6.4814730   -1.2243810    1.7550010  
C    -5.9393480   -2.2741740    0.9310100  
C    -4.6245770   -1.8961950    0.5712100  
N    -4.3906860   -0.6578760    1.1673940  
C    -3.7898600   -2.6803490   -0.2290210  
C    -4.3025520   -3.8874790   -0.6810480  
O    -3.5371260   -4.6965230   -1.4650410  
C    -5.6205330   -4.2907710   -0.3341240  
O    -5.9805300   -5.5147630   -0.8597010  
C    -6.4364030   -3.5051510    0.4591340  
H    -7.4678360   -1.1956910    2.1974320  
H    -2.7849420   -2.3815080   -0.5057460  
H    -4.0736010   -5.4768200   -1.6888690  
H    -6.8984780   -5.7154140   -0.6243290  
H    -7.4420180   -3.8344500    0.7122420  
H    -5.5231310    0.6853730    2.4054740  
C    -2.1489760   -0.0352740    1.9416410  
C    -1.1741950    0.8411740    1.5929660  
C    -1.6308240    1.5663300    0.4247370  
C    -2.9798070    1.0443540    0.1110760  
N    -3.2336610    0.0604290    1.0649190  
C    -3.7848330    1.4802510   -0.8869420  
C    -3.2901080    2.5599180   -1.7354030  
O    -3.9452950    3.0562570   -2.6365240  
C    -1.8390560    3.0995200   -1.4762310  
O    -1.3619960    3.8944500   -2.2648810  
C    -1.0706500    2.5765780   -0.3143210  
H    -0.2277580    0.9732800    2.0948410  
H    -4.7770160    1.0810010   -1.0669960  
H    -2.1954240   -0.7499970    2.7520530  
C     3.1397400    0.9937810    0.0453570  
C     1.7742510    1.0584260   -0.1187120  
C     1.4250750    2.4474480    0.0292010  
C     2.7369470    3.1246490    0.2757960  
N     3.7258330    2.2804820    0.2894660  
C     2.8346510    4.5512090    0.4446620  
C     1.6918600    5.2713610    0.3746280  
O     1.6318600    6.6024290    0.5226340  
C     0.3476990    4.6224330    0.1641120  
O    -0.6399390    5.3471150    0.2370610  
C     0.2558260    3.1481450   -0.0521060  
H     1.0951300    0.2426670   -0.3201630  
H     3.8005060    5.0117720    0.6187640  
H     0.6785150    6.8319220    0.4572170  
C     3.9711790   -0.1809740   -0.0153180  
C     3.5870740   -1.4625660   -0.3313060  
C     4.7841250   -2.2619470   -0.2520080  
C     5.8507890   -1.2831680    0.1401570  
N     5.3793170   -0.0810770    0.2759120  
C     7.2185920   -1.6990750    0.3286030  
C     7.5117000   -3.0062790    0.1364670  
O     8.7367700   -3.5339660    0.2748070  
C     6.4580600   -4.0138820   -0.2603640  
O     6.8206560   -5.1807030   -0.4103450  
C     5.0695320   -3.5713200   -0.4461110  
H     2.5998820   -1.8120830   -0.6002320  
H     7.9717050   -0.9726170    0.6124580  
H     8.6317300   -4.4902350    0.0712210  
H     4.3408880   -4.3244000   -0.7303990  
