62


C    -2.8203460   -1.0781920   -1.5872290  
C    -4.0956860   -1.5450040   -1.4340800  
C    -4.0393150   -2.6462840   -0.5134880  
C    -2.6824690   -2.8103340   -0.1381580  
N    -1.9402840   -1.8377080   -0.8094480  
C    -2.2660520   -3.7790830    0.7817680  
C    -3.2380270   -4.6094130    1.3178890  
O    -2.8849160   -5.5770220    2.2138750  
C    -4.6011000   -4.4672680    0.9459260  
O    -5.4462650   -5.3682880    1.5656760  
C    -5.0091280   -3.5015850    0.0449420  
H    -4.9735520   -1.1606280   -1.9355620  
H    -1.2295070   -3.9120380    1.0665420  
H    -3.6968480   -6.0547700    2.4558770  
H    -6.3499000   -5.2389880    1.2419820  
H    -6.0598610   -3.4029070   -0.2206300  
H    -2.4308200   -0.3019170   -2.2307950  
C    -0.0164190    1.8551180    0.3790150  
C     1.2855210    1.4259310    0.2848340  
C     1.2467760    0.0433160   -0.0975920  
C    -0.1214610   -0.2952600   -0.2493430  
N    -0.8752680    0.8199260    0.0544480  
C    -0.5641130   -1.5617020   -0.6622600  
C     0.4272720   -2.5015860   -0.9537730  
O     0.0830640   -3.7391380   -1.3814730  
C     1.8034060   -2.1826060   -0.8230150  
O     2.6312870   -3.2343540   -1.1398170  
C     2.2504590   -0.9352650   -0.3676430  
H     2.1599250    2.0371370    0.4492940  
H    -1.8813650    0.8327630    0.1410630  
H     0.9257600   -4.2046620   -1.5500680  
H     3.3495100   -2.8773410   -1.7055450  
C     0.0022090    3.8382910    1.8615130  
C    -0.6330640    5.0259270    1.9969910  
C    -1.6332600    5.1057830    0.9526010  
C    -1.5188980    3.8483440    0.1726380  
N    -0.5100880    3.0994800    0.7822250  
C    -2.2686080    3.5585400   -0.9209060  
C    -3.2744770    4.5289180   -1.3522180  
O    -3.9904920    4.3498520   -2.3248760  
C    -3.4323160    5.8532520   -0.5220610  
O    -4.2785760    6.6662440   -0.8571140  
C    -2.5436900    6.0592150    0.6257010  
H    -0.4386890    5.7728970    2.7528570  
H    -2.1548290    2.6524930   -1.5053380  
H    -2.6439950    6.9873650    1.1801190  
H     0.7972090    3.4027120    2.4512540  
C     4.5782410    0.9198810    2.9717620  
C     3.5736800    0.3431600    2.2715160  
C     4.1586340   -0.0115190    0.9788960  
C     5.5709720    0.4454260    1.0930980  
N     5.8116390    0.9995360    2.2476930  
C     6.5177460    0.2720540    0.0205580  
C     6.0931910   -0.3722430   -1.0890670  
O     6.8796940   -0.6386740   -2.1482170  
C     4.6952440   -0.8990270   -1.2029050  
O     4.4473860   -1.5709270   -2.2138320  
C     3.6750480   -0.6156810   -0.1453310  
H     2.5613250    0.1466150    2.5912520  
H     7.5358410    0.6288820    0.1281630  
H     6.3254760   -1.1455370   -2.7776650  
H     4.5530540    1.3011300    3.9855530  
