64


C    -4.6016500    1.1544680   -1.7819540  
C    -4.6373230    0.1936370   -0.7920790  
C    -5.8771120    0.4075610   -0.0694400  
C    -6.5366260    1.5047940   -0.6813480  
N    -5.7336890    1.9365460   -1.7180040  
C    -7.7632860    2.0027320   -0.2253230  
C    -8.3361590    1.3841550    0.8746620  
O    -9.5310720    1.8272280    1.3576220  
C    -7.6848010    0.2931090    1.5115530  
O    -8.3743050   -0.2066580    2.5980210  
C    -6.4734930   -0.1964690    1.0599880  
H    -5.9461690    2.7017070   -2.3391610  
H    -8.2674280    2.8436280   -0.6904780  
H    -9.7489700    1.2836140    2.1345220  
H    -7.8553520   -0.9081000    3.0189830  
H    -5.9879920   -1.0222600    1.5742800  
H    -3.8563350    1.3195680   -2.5468050  
C    -0.1455190    0.3641250   -0.3516620  
C    -1.4972710    0.6776780   -0.5105390  
C    -2.2260680   -0.5332340   -0.4608640  
C    -1.2750650   -1.5858680   -0.2554970  
N    -0.0354400   -1.0135280   -0.2068790  
C    -1.6501070   -2.9283430   -0.1262060  
C    -3.0027510   -3.2102380   -0.2117700  
O    -3.4352380   -4.4938710   -0.1104660  
C    -3.9663700   -2.1776420   -0.4226570  
O    -5.2576040   -2.6532310   -0.5100990  
C    -3.6170900   -0.8410860   -0.5507660  
H    -1.8993830    1.6726240   -0.6361920  
H     0.8543980   -1.4627710   -0.0387860  
H    -0.9366090   -3.7298490    0.0303170  
H    -4.4013130   -4.4822760   -0.2333560  
H    -5.8516040   -1.9191240   -0.7436650  
C     1.0264530    1.1706460   -0.3146180  
C     1.1907160    2.5362340   -0.3960800  
C     2.5953770    2.7669950   -0.2974870  
C     3.1981000    1.3932770   -0.1364770  
N     2.2720430    0.4718610   -0.1627450  
C     4.6223560    1.1752230    0.0134670  
C     5.3881120    2.3052620   -0.0841720  
O     6.7186380    2.3087300   -0.0515600  
C     4.8124240    3.7029610   -0.2490670  
O     5.6382990    4.6226610   -0.3070920  
C     3.3803880    3.8803590   -0.3393100  
H     0.4212250    3.2868860   -0.5093860  
H     6.9615570    3.2636410   -0.1312790  
H     2.9972590    4.8889100   -0.4550700  
C     4.1341770   -2.6972220   -2.1306570  
C     5.0450230   -3.4223750   -1.4094250  
C     5.5668330   -2.5496040   -0.3941710  
C     4.9327630   -1.2914070   -0.5636690  
N     4.0891370   -1.3985210   -1.6524030  
C     5.2063640   -0.1675720    0.2489340  
C     6.1085630   -0.3815970    1.2964560  
O     6.3781440    0.6184850    2.1838280  
C     6.7492660   -1.6347850    1.4747860  
O     7.6233700   -1.6618360    2.5496970  
C     6.5062520   -2.7086850    0.6422270  
H     5.3234380   -4.4530150   -1.5833330  
H     3.3110720   -0.7659970   -1.7823510  
H     7.0521550    0.2780700    2.7971170  
H     8.0325070   -2.5375440    2.6062220  
H     7.0193990   -3.6561210    0.7967400  
H     3.5170810   -2.9907130   -2.9687420  
