60


C    -5.1522810    4.1326600   -1.7190730  
C    -6.4550030    4.0744020   -1.2990870  
C    -6.5941210    2.8736300   -0.5249200  
C    -5.3241820    2.2412300   -0.5046260  
N    -4.4638760    3.0373520   -1.2309620  
C    -5.0743890    1.0059170    0.1410040  
C    -6.1766630    0.4263440    0.7800510  
O    -6.0349250   -0.7549030    1.4546130  
C    -7.4494410    1.0497680    0.7723780  
O    -8.4152770    0.3356470    1.4590640  
C    -7.6722760    2.2567470    0.1381010  
H    -7.2267740    4.8005320   -1.5140670  
H    -3.5142340    2.7886240   -1.4615120  
H    -6.8955720   -0.9504230    1.8661410  
H    -9.2277730    0.8595770    1.5157240  
H    -8.6609970    2.7108250    0.1458210  
H    -4.6448960    4.8727700   -2.3215590  
C    -2.5403180    1.0533170    0.3111930  
C    -3.7331660    0.4132840    0.1543810  
C    -3.3443650   -0.9924810   -0.0834430  
C    -1.8521940   -0.9956340   -0.0208560  
N    -1.4056060    0.2057390    0.2143590  
C    -1.0506600   -2.2120960   -0.2024100  
C    -1.7807270   -3.3547520   -0.4764780  
O    -1.2725230   -4.5664900   -0.6909010  
C    -3.2829360   -3.3499690   -0.5709600  
O    -3.8336420   -4.4229470   -0.8250290  
C    -4.0392750   -2.1081680   -0.3595070  
H    -2.0590750   -5.1398770   -0.8551550  
H    -5.1201940   -2.1607100   -0.4063170  
H    -2.3793520    2.1022520    0.5313140  
C     0.3930350   -2.1764740   -0.1034210  
C     1.2066840   -1.0846900    0.1173750  
C     2.5518210   -1.5858910    0.1349270  
C     2.3963350   -3.0468610   -0.1106480  
N     1.1505090   -3.3917410   -0.2430440  
C     3.5285110   -3.9337710   -0.1957430  
C     4.7569540   -3.3873410   -0.0640990  
O     5.9034020   -4.0849390   -0.1355870  
C     4.9577530   -1.9142200    0.1806410  
O     6.1269040   -1.5379300    0.2876130  
C     3.7880030   -1.0004330    0.3038100  
H     0.8767880   -0.0660230    0.2271150  
H     3.3797510   -4.9933470   -0.3708000  
H     6.6167280   -3.4241820    0.0061030  
C     3.1242480    1.1533950    1.4165570  
C     3.9803230    0.3942770    0.6552240  
C     5.0523590    1.3503180    0.2797680  
C     4.6302460    2.6313680    0.9175290  
N     3.5129580    2.4934010    1.5861150  
C     5.3893950    3.8433640    0.7844270  
C     6.5146770    3.8059340    0.0303870  
O     7.3171960    4.8582000   -0.1872830  
C     6.9590490    2.5393080   -0.6448690  
O     7.9849680    2.5820550   -1.3213270  
C     6.1654320    1.3022470   -0.4768490  
H     5.0483860    4.7493620    1.2728490  
H     8.0364980    4.5221980   -0.7667460  
H     6.5426460    0.4090770   -0.9579430  
H     2.2243690    0.8081510    1.9098670  
