60


C     4.8094950   -2.2706210   -0.7156540  
C     5.0237360   -0.9155610   -0.4871900  
C     6.4193140   -0.7880250   -0.1073630  
C     6.9708570   -2.0925660   -0.1141890  
N     5.9671280   -2.9679820   -0.4923990  
C     8.2992710   -2.3672640    0.2317630  
C     9.0958070   -1.2926600    0.5914710  
O    10.3986320   -1.4925760    0.9271480  
C     8.5617580    0.0252290    0.6084550  
O     9.4763300    0.9868140    0.9838790  
C     7.2482400    0.2866750    0.2732030  
H     6.0927150   -3.9536090   -0.6665720  
H     8.7163850   -3.3688250    0.2213260  
H    10.7869380   -0.6193900    1.1124180  
H     9.1028740    1.8682930    0.8332020  
H     6.8766950    1.3053680    0.2638920  
H     3.9328590   -2.7695270   -1.1054010  
C     0.8429880   -0.9931030    0.7103730  
C     0.4099020    0.2203020    0.2211620  
C     1.5732960    0.8612940   -0.3890880  
C     2.6935280   -0.0799820   -0.2152930  
N     2.1645190   -1.1941530    0.4350010  
C     3.9903400    0.1091220   -0.6136490  
C     4.2664290    1.4313460   -1.2361980  
O     5.3815980    1.7869470   -1.5717750  
C     3.0704760    2.4254150   -1.4928620  
O     3.3159680    3.4844330   -2.0491840  
C     1.7395210    2.0495700   -1.0384640  
H     0.9272590    2.7332730   -1.2586270  
H     0.2799890   -1.7303210    1.2674820  
H     2.7432450   -1.9300310    0.8163990  
C    -0.9372020    0.7197480    0.3411030  
C    -2.1166940    0.0250250    0.5045910  
C    -3.1828140    0.9747080    0.6010970  
C    -2.5601980    2.3130270    0.4905370  
N    -1.2057080    2.0901090    0.2979600  
C    -3.2300370    3.4890950    0.5546550  
C    -4.6799660    3.4487740    0.7273200  
O    -5.3742700    4.4510190    0.7619230  
C    -5.3791370    2.0470330    0.8694090  
O    -6.5779310    2.0048370    1.0891200  
C    -4.5405180    0.8415220    0.7597430  
H    -2.2233220   -1.0493530    0.4746060  
H    -2.7496540    4.4583340    0.4658890  
H    -0.5004270    2.8011870    0.4214200  
C    -4.8425880   -1.3005570    1.9996990  
C    -5.5986960   -2.4247780    1.9475810  
C    -6.4607630   -2.3100890    0.7908830  
C    -6.1414410   -1.0026260    0.1665690  
N    -5.1360980   -0.4263450    0.9463050  
C    -6.7198710   -0.5401410   -0.9681810  
C    -7.7360070   -1.3674510   -1.6171630  
O    -8.2992550   -1.0378450   -2.6495120  
C    -8.1041120   -2.7475730   -0.9599700  
O    -8.9522390   -3.4495310   -1.4890170  
C    -7.3967500   -3.1404320    0.2601750  
H    -5.5753170   -3.2467360    2.6486170  
H    -6.4788120    0.4173910   -1.4151860  
H    -7.6439600   -4.1020780    0.6998250  
H    -4.0959970   -1.0048990    2.7248400  
