64


C    -4.9733360    0.7944490    0.1378320  
C    -6.0349030    1.5772570   -0.2419350  
C    -7.2267540    0.8336920    0.0546450  
C    -6.8202990   -0.4096320    0.6070510  
N    -5.4365460   -0.4149000    0.6368030  
C    -7.7300430   -1.3941580    1.0072110  
C    -9.0803860   -1.1194720    0.8494560  
O   -10.0111430   -2.0429530    1.2312290  
C    -9.5064520    0.1144400    0.2923550  
O   -10.8805000    0.2372440    0.1935230  
C    -8.6037850    1.0841800   -0.1050540  
H    -5.9636410    2.5485280   -0.7106950  
H    -4.8577480   -1.0875060    1.1165090  
H    -7.4221760   -2.3449930    1.4299490  
H   -10.8861940   -1.6646510    1.0385170  
H   -11.1002680    1.0992280   -0.1893050  
H    -8.9557370    2.0219490   -0.5306300  
C    -3.0257050    2.2566180    0.5649440  
C    -1.6717760    2.2136770    0.3833590  
C    -1.3602860    0.9444390   -0.2133070  
C    -2.5848710    0.2494600   -0.3714190  
N    -3.6022250    1.0714640    0.1150110  
C    -2.6669680   -1.0316030   -0.9303220  
C    -1.4776160   -1.6303520   -1.3158270  
O    -1.4965750   -2.8762070   -1.8731060  
C    -0.2367990   -0.9658460   -1.1553850  
O     0.8422740   -1.6989600   -1.6090370  
C    -0.1471260    0.3229270   -0.6157290  
H    -0.9715340    2.9838240    0.6712130  
H    -3.6056880   -1.5513980   -1.0834520  
H    -0.5759220   -3.0998220   -2.0951060  
H     1.6452050   -1.1467090   -1.5626930  
H    -3.6558090    3.0175210    1.0016610  
C     1.1395350    1.0128730   -0.5164780  
C     1.4773730    2.3270450   -0.7301800  
C     2.8953240    2.4637300   -0.5365380  
C     3.3930450    1.1819760   -0.2107460  
N     2.3242760    0.2842370   -0.2547050  
C     4.7424890    0.9245490    0.0928610  
C     5.6034790    2.0268860    0.0491050  
O     6.9292250    1.8514220    0.2897980  
C     5.1225170    3.3160430   -0.2921580  
O     6.1057530    4.2852830   -0.3123270  
C     3.7906830    3.5476620   -0.5893540  
H     0.7933730    3.1023400   -1.0460980  
H     2.3055040   -0.5109270    0.3752450  
H     7.3425080    2.7324130    0.3016060  
H     5.6988550    5.1593880   -0.4051790  
H     3.4491640    4.5475720   -0.8483380  
C     4.7754550   -2.8147070   -2.1983160  
C     5.3354350   -3.6488860   -1.2857620  
C     5.5972760   -2.8717290   -0.0912780  
C     5.1308290   -1.4966140   -0.3881050  
N     4.6020450   -1.5367070   -1.6694640  
C     5.2309830   -0.4252760    0.4508990  
C     5.8238240   -0.6848000    1.7817160  
O     5.8963690    0.1656300    2.6504110  
C     6.3431360   -2.1355320    2.1075260  
O     6.8742960   -2.3348580    3.1889380  
C     6.1670390   -3.1833560    1.1034990  
H     5.5462520   -4.6997560   -1.4210610  
H     6.5250720   -4.1799430    1.3429080  
H     4.4518000   -3.0232000   -3.2097100  
H     4.4186460   -0.7049790   -2.2116540  
