62


C    -2.9176310   -1.1203460   -1.7857810  
C    -4.1556020   -1.6893240   -1.7330530  
C    -4.0920500   -2.7700570   -0.7867490  
C    -2.7651230   -2.8186240   -0.2930600  
N    -2.0468910   -1.7967960   -0.9253750  
C    -2.3644250   -3.7285120    0.6907160  
C    -3.3151960   -4.6210070    1.1654240  
O    -2.9681290   -5.5326380    2.1213660  
C    -4.6429950   -4.5970510    0.6705440  
O    -5.4714970   -5.5467040    1.2382690  
C    -5.0389300   -3.6847530   -0.2915840  
H    -5.0199790   -1.3747090   -2.3016800  
H    -1.3568060   -3.7709180    1.0837550  
H    -3.7617660   -6.0596010    2.3172380  
H    -6.3570940   -5.4738650    0.8530810  
H    -6.0668700   -3.6710620   -0.6487030  
H    -2.5519980   -0.2896370   -2.3689900  
C    -0.3442180    2.0013890    0.0308930  
C     1.0169900    1.6899700    0.1096210  
C     1.1049140    0.3167380   -0.1812150  
C    -0.3230070   -0.0982900   -0.4215080  
N    -1.1537970    0.9032800   -0.3031400  
C    -0.6996290   -1.4577140   -0.7254400  
C     0.3234040   -2.3610210   -0.7730700  
O     0.1488780   -3.6535550   -1.0447060  
C     1.7622140   -1.9908970   -0.4943330  
O     2.5465560   -2.9555330   -0.5228750  
C     2.1511960   -0.6031440   -0.2585910  
H     1.8170880    2.3476700    0.4017950  
H     1.0500760   -4.0507980   -0.9746220  
C     3.5506650   -0.2560120   -0.1265610  
C     4.1613600    0.9853120   -0.1673710  
C     5.5735650    0.7965740   -0.0216530  
C     5.7816160   -0.6668600    0.1099170  
N     4.5316270   -1.2372210    0.0513130  
C     6.9967220   -1.2554480    0.2556660  
C     8.1823320   -0.4053130    0.2901400  
O     9.3154830   -0.8459020    0.4173980  
C     7.9852880    1.1499670    0.1568940  
O     8.9695840    1.8758990    0.1868070  
C     6.6272240    1.6646220    0.0018680  
H     3.6763350    1.9306210   -0.3459210  
H     7.1312300   -2.3286770    0.3484200  
H     6.5030890    2.7393430   -0.0928340  
H     4.3148060   -2.2230340   -0.0049280  
C    -0.2097550    4.3774260    0.5602270  
C    -1.0634070    5.4198040    0.7086760  
C    -2.4034050    4.9309520    0.4803190  
C    -2.3114420    3.5517400    0.1886640  
N    -0.9314520    3.2096670    0.2396530  
C    -3.4370030    2.7710860   -0.0806920  
C    -4.6755530    3.4072840   -0.0575980  
O    -5.7984900    2.6848440   -0.3184760  
C    -4.7816450    4.7881890    0.2316780  
O    -6.0698440    5.2706060    0.2175250  
C    -3.6569170    5.5548920    0.5014720  
H    -0.7806670    6.4348510    0.9533600  
H    -3.3736840    1.7143800   -0.2988430  
H    -6.5592980    3.2871120   -0.2488060  
H    -6.0727740    6.2151520    0.4333890  
H    -3.7499100    6.6155020    0.7239160  
H     0.8641170    4.3396000    0.6440130  
