60


C    -2.8512550   -0.9371230   -0.0516780  
C    -3.5276100    0.2398480    0.2959060  
C    -4.9136700   -0.0338130    0.2715370  
C    -5.0621140   -1.4074490   -0.0956670  
N    -3.8095790   -1.9203170   -0.2835980  
C    -6.3146790   -2.0235960   -0.2115080  
C    -7.4314370   -1.2464520    0.0468850  
O    -8.6729940   -1.7895350   -0.0486920  
C    -7.3026830    0.1293810    0.4165190  
O    -8.5150270    0.7501020    0.6358290  
C    -6.0732930    0.7363280    0.5309320  
H    -3.0629440    1.1721640    0.5767220  
H    -3.5522920   -2.8783850   -0.4803370  
H    -6.4359580   -3.0651370   -0.4889820  
H    -9.3153000   -1.0916090    0.1701100  
H    -8.3680120    1.6743670    0.8860860  
H    -5.9949700    1.7840370    0.8129200  
C     0.8775840    1.5920360   -0.2021230  
C    -0.4475720    1.2039500   -0.2041440  
C    -0.4463520   -0.2293650   -0.1511370  
C     0.9890670   -0.5842210   -0.1192120  
N     1.7584510    0.4639050   -0.1502540  
C     1.4587710   -1.9610030   -0.1002810  
C     0.5053580   -2.9221540   -0.1979310  
O     0.7776460   -4.2394980   -0.2317890  
C    -0.9552550   -2.6035570   -0.2513720  
O    -1.7117580   -3.5785820   -0.3698770  
C    -1.4383060   -1.1939780   -0.1486560  
H    -1.2902110    1.8672200   -0.2844020  
H    -0.0955890   -4.6805970   -0.3112830  
C    -1.1784570    5.4773100   -0.2097910  
C    -0.1457570    6.3466900   -0.2634280  
C     1.0473910    5.5116440   -0.2908010  
C     0.5269290    4.1039380   -0.2456050  
N    -0.7742190    4.1050220   -0.1964500  
C     1.4165110    2.9338640   -0.2537360  
C     2.7667480    3.2289950   -0.3117750  
O     3.7512060    2.3271310   -0.3412460  
C     3.2916120    4.6336830   -0.3549460  
O     4.5154610    4.7842040   -0.4039810  
C     2.3643210    5.7746480   -0.3409230  
H    -0.1743380    7.4271830   -0.2830040  
H     4.5767440    2.8649320   -0.3800980  
H     2.7959940    6.7704900   -0.3729980  
H    -2.2387170    5.6980960   -0.1773450  
C     4.3694680   -1.1682510    3.0840110  
C     5.5263000   -1.6135840    2.5434440  
C     5.1534600   -2.1327750    1.2308200  
C     3.6774130   -1.8823720    1.1464740  
N     3.2253850   -1.3381810    2.2357850  
C     2.9006530   -2.2663770   -0.0210810  
C     3.5718270   -2.9130780   -1.0121530  
O     3.0008190   -3.3331290   -2.1509340  
C     5.0496140   -3.1869140   -0.9427530  
O     5.5652100   -3.7632440   -1.9000120  
C     5.8164380   -2.7595980    0.2407920  
H     6.5168670   -1.6093470    2.9765490  
H     3.7296040   -3.7449750   -2.6664290  
H     6.8784560   -2.9854700    0.2529300  
H     4.2197710   -0.7154800    4.0570960  
