60


C     4.4834990   -0.0422900    0.0747790  
C     3.7681480    1.1458580   -0.1348830  
C     4.6616220    2.2273670    0.0250370  
C     5.9408730    1.6673430    0.3329630  
N     5.8008600    0.3087520    0.3550990  
C     7.0752750    2.4586500    0.5524720  
C     6.9192920    3.8314690    0.4600070  
O     7.9827360    4.6490690    0.6623030  
C     5.6466450    4.4108630    0.1518930  
O     5.6759370    5.7874880    0.1011370  
C     4.5316710    3.6351220   -0.0646870  
H     2.7290580    1.2120750   -0.4162200  
H     6.5226520   -0.3892440    0.4782870  
H     8.0488260    2.0417080    0.7862550  
H     7.6745770    5.5664670    0.5562330  
H     4.7924800    6.1286810   -0.1031770  
H     3.5730590    4.0938560   -0.2967850  
C     0.4931300   -2.1585700   -0.0948930  
C     1.4474120   -1.1683990    0.0260950  
C     2.7233050   -1.8279140   -0.0505830  
C     2.3699140   -3.2517920   -0.2346130  
N     1.0802340   -3.4491070   -0.2640770  
C     3.3669630   -4.2866760   -0.3549380  
C     4.6631730   -3.9276230   -0.2365520  
O     5.6923880   -4.7962010   -0.2873980  
C     5.0680430   -2.5051510   -0.0125290  
O     6.2811160   -2.3046920    0.1357410  
C     4.0421710   -1.4105060    0.0122500  
H     1.2628580   -0.1321680    0.2638780  
H     3.0625410   -5.3170510   -0.5004250  
H     6.4992790   -4.2570040   -0.1483540  
C    -2.2684870    0.9731690   -1.6090100  
C    -1.1744290    0.2302220   -1.3009610  
C    -1.6252400   -0.9426150   -0.5899840  
C    -3.0960620   -0.8417220   -0.5347730  
N    -3.4399170    0.3738530   -1.1350520  
C    -3.9277450   -1.8079700   -0.0608450  
C    -3.3302910   -3.0204270    0.4795030  
O    -3.9877230   -3.9774720    0.8595320  
C    -1.7679180   -3.0839060    0.5982910  
O    -1.2828660   -3.9596530    1.2864540  
C    -0.9480770   -2.0258480   -0.0683250  
H    -0.1537760    0.4685930   -1.5557910  
H    -5.0089170   -1.7418050   -0.1065190  
H    -2.3414860    1.9197490   -2.1268690  
C    -5.2418330    1.3664900   -2.5181410  
C    -4.7318700    0.8676460   -1.3603830  
C    -5.7713080    1.1103130   -0.3422550  
C    -6.8678170    1.7584990   -1.1198530  
N    -6.5471390    1.9052870   -2.3771480  
C    -8.1003330    2.1516760   -0.4918320  
C    -8.2218140    1.9615220    0.8447270  
O    -9.3090060    2.2957080    1.5564450  
C    -7.1155380    1.3516820    1.6596170  
O    -7.2935920    1.2194790    2.8678290  
C    -5.8668950    0.9244680    0.9868180  
H    -8.8891440    2.6016570   -1.0843050  
H    -9.1086170    2.0418050    2.4837880  
H    -5.1031790    0.4638490    1.6053670  
H    -4.7632560    1.3918510   -3.4899300  
