62


C     5.3443560    0.7148380   -2.2762020  
C     6.5880320    0.2692960   -2.6318060  
C     7.1957770   -0.2797110   -1.4522480  
C     6.2607080   -0.1369430   -0.3957930  
N     5.1265020    0.4802380   -0.9175970  
C     6.5132920   -0.5928710    0.9032370  
C     7.7396150   -1.1921010    1.1422200  
O     8.0411170   -1.6495990    2.3936460  
C     8.6928250   -1.3363270    0.0991910  
O     9.8661170   -1.9525990    0.4954050  
C     8.4363010   -0.8921590   -1.1841460  
H     7.0291240    0.3415640   -3.6168620  
H     5.8014120   -0.4802110    1.7122030  
H     8.9414410   -2.0154770    2.3554770  
H    10.4845610   -1.9761750   -0.2494930  
H     9.1787720   -1.0181820   -1.9699990  
H     4.5892170    1.2277290   -2.8555770  
C     1.2078270   -1.1776630   -1.7210900  
C     0.5003580   -0.4998150   -0.7452840  
C     1.4630170    0.3342830   -0.0528690  
C     2.7166510    0.1082060   -0.6685400  
N     2.5318730   -0.8152530   -1.6762650  
C     3.9051380    0.7304010   -0.2455820  
C     3.8178130    1.5982270    0.8413700  
O     4.9264260    2.2440220    1.2881800  
C     2.5711010    1.8034470    1.4914650  
O     2.6541190    2.6677170    2.5636840  
C     1.4066000    1.1920950    1.0650810  
H     3.2614730   -1.1440100   -2.2914100  
H     4.6566940    2.7881690    2.0489350  
H     1.7708260    2.8251050    2.9288660  
H     0.4749620    1.3604080    1.5990980  
H     0.8452440   -1.8693940   -2.4679850  
C    -1.6636360   -1.7948690   -0.4746640  
C    -0.9248690   -0.6535110   -0.4949960  
C    -1.9180710    0.4195270   -0.2784880  
C    -3.2321110   -0.2863920   -0.1691800  
N    -3.0539880   -1.5775380   -0.2698770  
C    -4.4891570    0.4217040    0.0289960  
C    -4.3640590    1.7744660    0.2384650  
O    -5.3877940    2.5659370    0.5767590  
C    -3.0646740    2.5052500    0.1214800  
O    -3.0666250    3.7225320    0.3091480  
C    -1.8296380    1.7564580   -0.1813380  
H    -5.0218430    3.4776330    0.6038600  
H    -0.9065790    2.3201720   -0.2682120  
H    -1.3062690   -2.8119050   -0.5793320  
C    -6.1509770   -3.4655930    1.4680340  
C    -7.4620250   -3.2611430    1.1768510  
C    -7.5574200   -1.9728980    0.5278390  
C    -6.1729090   -1.4296090    0.4963650  
N    -5.3728580   -2.3680010    1.1175940  
C    -5.8206340   -0.2089450   -0.0244280  
C    -6.8966320    0.4819780   -0.7855920  
O    -6.6755140    1.3899660   -1.5665490  
C    -8.3803840   -0.0081930   -0.6342660  
O    -9.2728580    0.6923020   -1.0878070  
C    -8.6176670   -1.2859090    0.0227380  
H    -8.2831890   -3.9327330    1.3813890  
H    -9.6392540   -1.6480080    0.0867730  
H    -5.6803110   -4.3250030    1.9282440  
H    -4.3841930   -2.4111720    0.8563990  
