62


C     4.6299850   -0.6610830   -0.1322790  
C     5.2412820   -1.7861860    0.3626810  
C     6.6554160   -1.5780520    0.2392150  
C     6.8427340   -0.2916710   -0.3319830  
N     5.5895100    0.2518440   -0.5465350  
C     8.1092910    0.2471300   -0.5859800  
C     9.2101460   -0.5296330   -0.2598170  
O    10.4673220   -0.0563810   -0.4923210  
C     9.0432080   -1.8178630    0.3171220  
O    10.2342340   -2.4629560    0.5880610  
C     7.7908480   -2.3451930    0.5691600  
H     4.7362800   -2.6401900    0.7921630  
H     5.3910010    1.1069360   -1.0435980  
H     8.2561110    1.2302850   -1.0208240  
H    11.0934230   -0.7372500   -0.1911440  
H    10.0530040   -3.3229000    0.9951440  
H     7.6882280   -3.3333480    1.0130220  
C     2.3481010   -1.2269480   -0.9287700  
C     1.0967790   -0.7073370   -0.9103890  
C     1.1646620    0.5649120   -0.2214330  
C     2.5818100    0.7436290    0.1730470  
N     3.2654630   -0.3815810   -0.2900100  
C     3.0717120    1.8182300    0.8435560  
C     2.1473290    2.8892660    1.1936640  
O     2.4928770    3.9067340    1.7742460  
C     0.6339750    2.7167020    0.8149180  
O    -0.1654180    3.5470600    1.2077650  
C     0.2160920    1.5113870    0.0522650  
H     0.2136870   -1.1512480   -1.3442300  
H     4.1133900    1.9220530    1.1264750  
H     2.7126140   -2.1482240   -1.3623850  
C    -3.0210860   -1.3856290    1.0444790  
C    -1.8352580   -0.7351120    0.9477710  
C    -2.0376090    0.4054570    0.0814650  
C    -3.4643470    0.3619120   -0.3243150  
N    -4.0213120   -0.7464630    0.3033990  
C    -4.0628020    1.2664320   -1.1455560  
C    -3.2611140    2.3702660   -1.6565920  
O    -3.7117270    3.2445660   -2.3813770  
C    -1.7430660    2.4304270   -1.2624430  
O    -1.0406450    3.2870800   -1.7686840  
C    -1.1999550    1.4022480   -0.3387960  
H    -0.9117390   -1.0137500    1.4319900  
H    -5.1031520    1.2021430   -1.4441590  
H    -3.2751710   -2.2810760    1.5935420  
C    -7.7432090    1.3505290    1.3320800  
C    -8.5980090    0.3268220    1.0209990  
C    -7.7948610   -0.7693980    0.5572590  
C    -6.4428240   -0.3378670    0.6139180  
N    -6.4386920    0.9503410    1.1010720  
C    -5.3747700   -1.1715360    0.2299970  
C    -5.6856900   -2.4590270   -0.2056000  
O    -4.6842380   -3.3070590   -0.5812760  
C    -7.0320450   -2.8995370   -0.2459420  
O    -7.1672080   -4.2026760   -0.6863330  
C    -8.0806970   -2.0783620    0.1235400  
H    -9.6748780    0.3463580    1.1140700  
H    -5.6260880    1.5443100    1.1656080  
H    -5.1093860   -4.1332370   -0.8723010  
H    -8.1057630   -4.4104370   -0.8051100  
H    -9.1048630   -2.4431410    0.0862430  
H    -7.9492330    2.3433070    1.7059290  
