60


C    -2.3444960    2.0088230   -0.9205280  
C    -3.2651690    2.9586010   -1.2287880  
C    -4.5687780    2.4189690   -0.9337550  
C    -4.3823980    1.1082400   -0.4370400  
N    -2.9933760    0.8659310   -0.4168580  
C    -5.4594320    0.2714840   -0.1214680  
C    -6.7406170    0.7917810   -0.2613040  
O    -7.8130680    0.0127920    0.0429130  
C    -6.9405050    2.1161550   -0.7260330  
O    -8.2640040    2.4839310   -0.8078890  
C    -5.8717790    2.9253760   -1.0717860  
H    -3.0467950    3.9442030   -1.6164500  
H    -5.3510900   -0.7621740    0.1823550  
H    -8.6159020    0.5323020   -0.1375630  
H    -8.3380580    3.3806820   -1.1673080  
H    -6.0401690    3.9305910   -1.4515350  
H    -1.2667370    2.0356030   -0.9682810  
C    -2.3267200   -0.2495930    0.0303250  
C    -1.0705470   -0.6981170   -0.3080780  
C    -0.8059470   -1.8715450    0.4677250  
C    -2.0115520   -2.0963850    1.2988890  
N    -2.9224440   -1.0988000    0.9591910  
C    -2.1661770   -3.1012080    2.1903090  
C    -1.0819930   -4.0741110    2.3283180  
O    -1.1451320   -5.0275660    3.0856320  
C     0.2054670   -3.8781350    1.4559490  
O     1.1469080   -4.6337850    1.6328740  
C     0.2558280   -2.7498370    0.5052500  
H    -0.4361860   -0.2798240   -1.0737390  
H    -3.0655070   -3.2456950    2.7810750  
H    -3.6621010   -0.7963150    1.5775600  
C     3.3005600    0.4854850   -0.1837600  
C     2.2333260   -0.2201170    0.3103020  
C     2.2442660   -1.4884170   -0.3843210  
C     3.4269000   -1.3956430   -1.2859650  
N     4.0359780   -0.2497180   -1.1738370  
C     3.8111110   -2.4844580   -2.1466950  
C     3.0641860   -3.6114530   -2.1019380  
O     3.3073650   -4.7037590   -2.8413420  
C     1.8366070   -3.7264190   -1.2338120  
O     1.1549330   -4.7371350   -1.3634880  
C     1.4555760   -2.5982340   -0.3258720  
H     1.5630790    0.0693220    1.1055140  
H     4.6790540   -2.3902670   -2.7894860  
H     2.5828770   -5.3322610   -2.6271210  
C     1.1485760    4.2037040    1.0388570  
C     1.3954790    2.9194610    0.6685820  
C     2.8405170    2.8302610    0.5377880  
C     3.3100690    4.2132380    0.8638130  
N     2.3149770    5.0083530    1.1533360  
C     4.6999440    4.5741280    0.8230240  
C     5.5877560    3.6109370    0.4848980  
O     6.9132590    3.8004030    0.4218620  
C     5.1629460    2.1931770    0.1823340  
O     6.0614780    1.3818280   -0.0003420  
C     3.7058550    1.8353900    0.1758970  
H     0.6797880    2.1259060    0.5165010  
H     5.0068890    5.5857530    1.0640850  
H     7.2920250    2.9200810    0.2007510  
H     0.1858090    4.6588320    1.2423390  
