62


C    -5.4338770   -1.8715400    3.0785880  
C    -6.7034290   -2.1656990    2.6533730  
C    -6.8448630   -1.6085790    1.3388760  
C    -5.6082010   -0.9875210    1.0137000  
N    -4.7750270   -1.1559560    2.0995770  
C    -5.3699250   -0.3029740   -0.2018670  
C    -6.4601020   -0.2590680   -1.0699250  
O    -6.3513080    0.4150860   -2.2745900  
C    -7.6996940   -0.8708990   -0.7693700  
O    -8.6477990   -0.7172500   -1.7665390  
C    -7.9061320   -1.5489860    0.4153550  
H    -7.4543680   -2.7058450    3.2131880  
H    -3.8118340   -0.8588940    2.1302500  
H    -7.2070390    0.3176590   -2.7311050  
H    -9.4685850   -1.1598530   -1.5054020  
H    -8.8677260   -2.0097680    0.6312660  
H    -4.9374070   -2.1096950    4.0087990  
C    -1.1469960   -1.8231790    0.0049260  
C    -2.5088160   -1.7178900   -0.0011270  
C    -2.8369270   -0.3500250   -0.3171650  
C    -1.6091530    0.3308370   -0.5093320  
N    -0.5777430   -0.5843120   -0.2939750  
C    -1.5299250    1.6700140   -0.9064720  
C    -2.7314260    2.3266250   -1.1175650  
O    -2.7396400    3.6236240   -1.5250260  
C    -3.9796720    1.6743340   -0.9189400  
O    -5.0692760    2.4856130   -1.1469340  
C    -4.0663780    0.3469030   -0.4946170  
H    -3.2034680   -2.5248750    0.1817300  
H    -0.5910790    2.1849550   -1.0750290  
H    -3.6823310    3.8581960   -1.6271140  
H    -5.7221230    1.9687850   -1.6684200  
H    -0.5058130   -2.6688030    0.2092360  
C     1.6554240   -0.9257550   -1.2874040  
C     0.7974910   -0.3337720   -0.4123100  
C     1.5791170    0.5727060    0.4203560  
C     2.9744580    0.4417810   -0.0546090  
N     2.9535640   -0.4587430   -1.0970790  
C     4.0313950    1.1202530    0.4913680  
C     3.7460770    2.0720970    1.5784760  
O     4.6109000    2.7658030    2.0878410  
C     2.2621940    2.2074320    2.0851150  
O     2.0372490    2.9824310    2.9986630  
C     1.2270030    1.4086150    1.4314810  
H     0.2032760    1.5146490    1.7732620  
H     1.4421500   -1.6527890   -2.0588930  
H     3.7796350   -0.8782790   -1.4994920  
C     6.2357130    2.0372940   -0.2258600  
C     7.4445490    1.5931330   -0.6402400  
C     7.4118370    0.1472900   -0.6160280  
C     6.0564360   -0.2258410   -0.1363860  
N     5.3640520    0.9660490    0.0580730  
C     5.6554290   -1.5084300    0.0812100  
C     6.5920190   -2.5936110   -0.2099930  
O     6.3105470   -3.7702600   -0.0436240  
C     8.0120420   -2.2183820   -0.7646550  
O     8.7935810   -3.1121490   -1.0466680  
C     8.3407390   -0.7975820   -0.9135410  
H     8.2853510    2.2070060   -0.9288690  
H     4.6964620   -1.7732890    0.5123700  
H     9.3403290   -0.5461230   -1.2549750  
H     5.8781980    3.0470110   -0.0944620  
