64


C    -1.1329900   -1.1706020    1.0511100  
C    -0.5747640   -0.1487230    0.3095010  
C    -1.6676330    0.4723890   -0.4094350  
C    -2.8510050   -0.2175010   -0.0488190  
N    -2.4925380   -1.2093560    0.8442730  
C    -4.1261910    0.0757380   -0.5765660  
C    -4.1754450    1.1152970   -1.5060090  
O    -5.3664990    1.4924970   -2.0441970  
C    -2.9954730    1.8042360   -1.8956580  
O    -3.2192670    2.8016130   -2.8289030  
C    -1.7546330    1.5012440   -1.3684370  
H    -3.1373200   -1.8658840    1.2576850  
H    -5.1739910    2.1721540   -2.7134810  
H    -2.3719110    3.0945890   -3.1956020  
H    -0.8686530    2.0396950   -1.6956650  
H    -0.6568840   -1.8503960    1.7435780  
C     1.8802810   -0.6897480    0.1625990  
C     0.8430730    0.1930140    0.2667350  
C     1.4399910    1.5175370    0.3593120  
C     2.8431250    1.3693820    0.3002780  
N     3.1109270   -0.0183240    0.1795580  
C     3.7104640    2.4603120    0.3917020  
C     3.1432690    3.7206870    0.5471450  
O     3.9545620    4.8129880    0.6358740  
C     1.7402560    3.8816300    0.6227490  
O     1.3254510    5.1869870    0.7886480  
C     0.8855530    2.7936550    0.5346750  
H     4.7833730    2.3424250    0.3473170  
H     3.3834640    5.5899220    0.7630200  
H     0.3632670    5.2104000    0.8990040  
H    -0.1909920    2.9256670    0.6059920  
H     1.8505960   -1.7599320    0.0349720  
C    -5.9795950   -0.3316200    3.4039130  
C    -6.9996910   -1.1793250    3.0589800  
C    -6.8822940   -1.4322070    1.6497840  
C    -5.7548480   -0.7038290    1.1908350  
N    -5.2151660   -0.0534410    2.2843650  
C    -5.3285650   -0.6857450   -0.1546210  
C    -6.0857780   -1.4465600   -1.0459900  
O    -5.7275750   -1.5148880   -2.3584430  
C    -7.2181510   -2.1811380   -0.6031180  
O    -7.8489670   -2.8847540   -1.6143780  
C    -7.6211140   -2.1881100    0.7182820  
H    -7.7481540   -1.5787010    3.7297240  
H    -4.4621020    0.6153780    2.2357600  
H    -6.3942510   -2.0632430   -2.8070940  
H    -8.6378090   -3.3201910   -1.2595550  
H    -8.4921530   -2.7633320    1.0263610  
H    -5.7217800    0.0962220    4.3625430  
C     4.3170210   -0.6550660    0.0798620  
C     4.5506010   -2.0190430    0.0006010  
C     5.9618720   -2.1473590   -0.0915820  
C     6.4713730   -0.7270850   -0.0540000  
N     5.4949000    0.1339710    0.0468240  
C     7.8696980   -0.4218480   -0.1245570  
C     8.7221100   -1.4712960   -0.2257200  
O    10.0479920   -1.3620690   -0.3006440  
C     8.2435420   -2.9211890   -0.2653570  
O     9.1389990   -3.7708850   -0.3594710  
C     6.8306290   -3.1994760   -0.1936520  
H     3.8311760   -2.8234350    0.0104620  
H     8.2121430    0.6064640   -0.0965760  
H    10.3633310   -2.2980160   -0.3640070  
H     6.5160690   -4.2375610   -0.2247270  
