62


C    -4.0455690   -0.3590940   -0.0027960  
C    -2.7616790    0.1618690    0.0270320  
C    -1.8435320   -0.9195270    0.1773060  
C    -2.6189810   -2.1040840    0.2134730  
N    -3.9529630   -1.7408660    0.1572330  
C    -2.0664220   -3.3847560    0.2863360  
C    -0.6840040   -3.4849820    0.3192330  
O    -0.0924700   -4.7091090    0.3802090  
C     0.1379680   -2.3299660    0.3015290  
O     1.4613620   -2.6162540    0.3624000  
C    -0.4109400   -1.0181600    0.2557310  
H    -2.5440170    1.2108900   -0.0727850  
H    -4.6895170   -2.3692290   -0.1333650  
H    -2.6706140   -4.2861840    0.3133500  
H     0.8683120   -4.5497560    0.4262370  
H     1.9606580   -1.7484770    0.3211530  
C     0.4459890    0.1350970    0.3035270  
C     0.1683830    1.4740760    0.4965590  
C     1.4121150    2.1649260    0.4633160  
C     2.4447160    1.0948260    0.2388640  
N     1.8659160   -0.0757400    0.1449990  
C     3.8564290    1.3685810    0.1392130  
C     4.1856320    2.6979120    0.2275100  
O     5.4152380    3.1622220    0.0760490  
C     3.1686870    3.8094000    0.4743870  
O     3.6381970    4.9508820    0.5389790  
C     1.7709280    3.4755060    0.5944930  
H    -0.7907700    1.9257190    0.6887140  
H     5.3345020    4.1390370    0.2171840  
H     1.0641060    4.2795190    0.7693760  
C     4.2249510   -2.1093620   -2.5876060  
C     5.4437180   -2.5666030   -2.2035130  
C     5.9093610   -1.7051920   -1.1378130  
C     4.8461860   -0.6870380   -0.9419990  
N     3.8713370   -0.9574550   -1.8882690  
C     4.8852170    0.3212400   -0.0187800  
C     6.0437430    0.3125250    0.9058950  
O     6.1168840    1.0425950    1.8787640  
C     7.2183180   -0.7004170    0.6476900  
O     8.2213350   -0.6161780    1.3398320  
C     7.0517600   -1.7013350   -0.3999770  
H     5.9744440   -3.4125550   -2.6155940  
H     7.8549320   -2.4152270   -0.5548550  
H     3.5539420   -2.5000970   -3.3415540  
H     2.9131990   -0.6606530   -1.7438090  
C    -8.0122430   -1.5146210    1.5736900  
C    -8.7367180   -0.5152560    0.9845450  
C    -7.8112970    0.3034790    0.2506560  
C    -6.5257390   -0.2651540    0.4223290  
N    -6.6785380   -1.3947460    1.2119420  
C    -5.3466970    0.2860150   -0.1380520  
C    -5.5171190    1.4789660   -0.8540450  
O    -4.4398550    2.1014080   -1.4144500  
C    -6.8001070    2.0533130   -1.0344510  
O    -6.7802130    3.2137820   -1.7859670  
C    -7.9430790    1.4815190   -0.5096380  
H    -9.8060930   -0.3738040    1.0602530  
H    -5.9141590   -1.8387260    1.6999820  
H    -4.7804190    2.8727170   -1.9015060  
H    -7.6854560    3.5314540   -1.9180850  
H    -8.9152230    1.9445200   -0.6647420  
H    -8.3317630   -2.3244940    2.2143170  
