60


C     4.5491670    0.4440180   -0.0203460  
C     4.1660950   -0.8458520    0.3866980  
C     5.3109950   -1.6661780    0.3663080  
C     6.4045710   -0.8456310   -0.0595840  
N     5.9160840    0.4096150   -0.2812340  
C     7.7082840   -1.3391750   -0.1886080  
C     7.9132400   -2.6741160    0.1175450  
O     9.1528680   -3.2083260    0.0132690  
C     6.8309950   -3.5113280    0.5484400  
O     7.2218030   -4.8049610    0.8073740  
C     5.5507570   -3.0289170    0.6753950  
H     3.1788900   -1.1329140    0.7139150  
H     6.4325670    1.2452940   -0.5236400  
H     8.5429310   -0.7256450   -0.5095180  
H     9.0962330   -4.1456150    0.2717510  
H     6.4622580   -5.3286190    1.1039060  
H     4.7413560   -3.6769980    1.0032500  
C     0.1428390    1.4317180   -0.0575970  
C     1.3251990    0.7207770   -0.1279770  
C     2.3789590    1.6974010   -0.1249300  
C     1.6634510    2.9858230   -0.0792350  
N     0.3662460    2.8371420   -0.0148510  
C     2.3504160    4.2524610   -0.1199950  
C     3.6978470    4.2386940   -0.2240040  
O     4.4553040    5.3506740   -0.3064860  
C     4.4670070    2.9611610   -0.2764330  
O     5.6908580    3.0637310   -0.4321150  
C     3.7642040    1.6377730   -0.1391710  
H     1.4238860   -0.3525590   -0.1627190  
H     1.7841300    5.1764730   -0.0853500  
H     5.3798360    5.0375130   -0.3924760  
C    -1.8625940   -2.1342850   -1.8366420  
C    -0.9350620   -1.1887330   -1.5406800  
C    -1.6168930   -0.2283270   -0.6941370  
C    -3.0184010   -0.7343720   -0.6179000  
N    -3.1336980   -1.8672770   -1.2730410  
C    -4.0828990   -0.0267080    0.0742150  
C    -3.6628540    1.0621310    0.7970160  
O    -4.4585930    1.7475900    1.6191720  
C    -2.2482200    1.5773540    0.7913890  
O    -2.0057180    2.5127590    1.5457810  
C    -1.2047190    0.9038140   -0.0448590  
H     0.0887730   -1.1396200   -1.8793400  
H    -3.8976870    2.4658330    1.9913980  
H    -1.7400090   -3.0227160   -2.4447510  
C    -6.3065750   -3.8960670    0.0769410  
C    -7.5762670   -3.4173810    0.1510000  
C    -7.4883300   -1.9748470    0.1230490  
C    -6.0366420   -1.6580670    0.0556520  
N    -5.3714040   -2.8684070    0.0718560  
C    -5.5104160   -0.3903390    0.0246470  
C    -6.5083350    0.6982780   -0.1606340  
O    -6.2034060    1.8201920   -0.5231310  
C    -8.0323810    0.3885630    0.0568160  
O    -8.8133340    1.3268620    0.1140580  
C    -8.4418370   -1.0045790    0.1592680  
H    -8.4851240   -3.9983650    0.2119520  
H    -9.5006190   -1.2220610    0.2622460  
H    -5.9669150   -4.9234590    0.0419350  
H    -4.4489680   -2.9126090   -0.3749100  
