62


C     4.3118950    0.3450420   -0.0349350  
C     5.4075740    1.1411160   -0.3664210  
C     6.5665200    0.3145360   -0.3510230  
C     6.1339040   -0.9957620    0.0009350  
N     4.7757780   -0.9440270    0.1898940  
C     7.0169860   -2.0781080    0.1071180  
C     8.3566400   -1.8361610   -0.1489850  
O     9.2601520   -2.8522330   -0.0623930  
C     8.8075670   -0.5318660   -0.5045700  
O    10.1693070   -0.4603590   -0.7254840  
C     7.9381580    0.5342290   -0.6071390  
H     5.3688180    2.1737710   -0.6831340  
H     4.1529600   -1.7254870    0.3377450  
H     6.6928460   -3.0782990    0.3745720  
H    10.1330520   -2.4832110   -0.2825240  
H    10.4092880    0.4418780   -0.9833990  
H     8.3056340    1.5214550   -0.8802890  
C     2.4079970    4.2070420    0.8036070  
C     1.1004430    3.8122590    0.6523410  
C     1.1075590    2.4154430    0.3348520  
C     2.4634230    2.0194120    0.2974130  
N     3.2318870    3.1326890    0.5668500  
C     2.9053310    0.6874740    0.0745390  
C     1.8775740   -0.2601160   -0.0167540  
O     2.1728220   -1.5907670   -0.1702120  
C     0.5087120    0.0898670    0.0046930  
O    -0.3119430   -0.9739740   -0.1415120  
C     0.0733120    1.4390860    0.1311620  
H     0.2445710    4.4509710    0.7990000  
H     4.2197890    3.0952210    0.7663240  
H     1.3110420   -2.0457800   -0.2427460  
H    -1.2637370   -0.6228300   -0.0997750  
H     2.8187030    5.1728620    1.0610490  
C    -1.3198020    1.7628660    0.0548590  
C    -1.9873190    2.9756200    0.0139050  
C    -3.3739230    2.6773130   -0.0776560  
C    -3.4467940    1.1775330   -0.0734040  
N    -2.2519210    0.6649800   -0.0159720  
C    -4.6966250    0.4599490   -0.1588500  
C    -5.8106650    1.2373510   -0.2816050  
O    -7.0461940    0.7542830   -0.3753300  
C    -5.7741200    2.7600570   -0.2991070  
O    -6.8773510    3.3134510   -0.4069200  
C    -4.5073540    3.4358160   -0.1883150  
H    -1.5594030    3.9642250   -0.0069170  
H    -7.6141160    1.5631040   -0.4437610  
H    -4.5041690    4.5206290   -0.2065070  
C    -3.5514470   -2.4036490    2.9734410  
C    -3.8349130   -3.5954680    2.4008020  
C    -4.3632450   -3.2645910    1.0806650  
C    -4.3063790   -1.7662750    1.0305030  
N    -3.8419990   -1.2728630    2.1397950  
C    -4.7551110   -1.0174010   -0.1328670  
C    -5.2592850   -1.7493150   -1.1643040  
O    -5.7160190   -1.2122920   -2.3049460  
C    -5.3339470   -3.2521870   -1.1336270  
O    -5.7946070   -3.8179140   -2.1240610  
C    -4.8559940   -3.9827880    0.0540970  
H    -3.7152390   -4.5863970    2.8161510  
H    -6.0065470   -1.9753860   -2.8523340  
H    -4.9347450   -5.0656050    0.0368980  
H    -3.1443290   -2.2180710    3.9603070  
