62


C     4.8400220   -0.4445950   -2.1934200  
C     4.9026540   -0.0827250   -0.8538430  
C     6.1554610   -0.6282630   -0.3514970  
C     6.7835030   -1.2891360   -1.4371200  
N     5.9602480   -1.1441780   -2.5413120  
C     8.0006610   -1.9686680   -1.3286270  
C     8.6071730   -1.9954760   -0.0823220  
O     9.7974260   -2.6413420    0.0859260  
C     7.9916060   -1.3561050    1.0227210  
O     8.7048910   -1.4714130    2.2023540  
C     6.7867840   -0.6870200    0.9073250  
H     6.1449020   -1.5208380   -3.4582210  
H     8.4715130   -2.4692960   -2.1685800  
H    10.0506510   -2.5334280    1.0190350  
H     8.2595090   -0.9621430    2.8955060  
H     6.3516220   -0.1934480    1.7687490  
H     4.0570730   -0.2503760   -2.9078570  
C     0.5993160    0.0373140   -1.6084430  
C     0.1390260    0.9198940   -0.6772160  
C     1.3583860    1.3276070    0.0506670  
C     2.4629430    0.5711550   -0.6024470  
N     2.0011410   -0.1798700   -1.5645940  
C     3.8628550    0.6795030   -0.1704510  
C     4.0734170    1.5336730    0.8826150  
O     5.2981910    1.8129000    1.3926690  
C     2.9886100    2.2751410    1.5618180  
O     3.2888680    3.0295680    2.4956640  
C     1.5909640    2.1288260    1.1020970  
H     5.1177830    2.4675210    2.1046640  
H     0.8303040    2.7042570    1.6167700  
H     0.0245550   -0.4686210   -2.3765110  
C    -3.4124950   -1.6006900   -0.3642710  
C    -4.3718800   -0.6167430   -0.1579620  
C    -3.6544390    0.6480790   -0.1765280  
C    -2.2886590    0.3455360   -0.3898750  
N    -2.1835190   -1.0290520   -0.5128900  
C    -1.2517180    1.3062930   -0.4151600  
C    -1.6552780    2.6270340   -0.1968810  
O    -0.7385260    3.6364010   -0.2230150  
C    -3.0172370    2.9495120    0.0271780  
O    -3.2368060    4.3001260    0.2143500  
C    -4.0127450    1.9925060    0.0381930  
H    -1.3149990   -1.5214740   -0.6611960  
H    -1.2278350    4.4692860   -0.0984140  
H    -4.1894770    4.4744990    0.2384040  
H    -5.0481380    2.2781950    0.1856370  
H    -3.5472500   -2.6673690   -0.4675110  
C    -6.5975950   -3.9154230    1.8664920  
C    -5.5930360   -3.0871940    1.4854610  
C    -6.2372610   -2.0320310    0.7066950  
C    -7.6721980   -2.3970180    0.7416030  
N    -7.8814460   -3.5013160    1.4090420  
C    -8.6836490   -1.5885230    0.1060990  
C    -8.2824040   -0.4579940   -0.5146490  
O    -9.1171680    0.4075480   -1.1242740  
C    -6.8379910   -0.0526580   -0.5681060  
O    -6.5828840    1.0034680   -1.1468580  
C    -5.7798750   -0.9251630    0.0450090  
H    -4.5448690   -3.1569150    1.7378090  
H    -9.7254040   -1.8864370    0.1504380  
H    -8.5378990    1.1121410   -1.4860980  
H    -6.5284530   -4.8125860    2.4701840  
