60


C    -2.0924480    6.1318470    0.0805700  
C    -1.7686190    4.7946380    0.0955710  
C    -0.3407450    4.6956020    0.0229820  
C     0.1485680    6.0239230   -0.0245590  
N    -0.9378490    6.8734430    0.0001270  
C     1.5118680    6.3457600   -0.0610700  
C     2.4140500    5.2983200   -0.0326310  
O     3.7519660    5.5480890   -0.0555410  
C     1.9745700    3.9480620    0.0169840  
O     2.9948810    3.0553580    0.0316140  
C     0.5952740    3.6060830    0.0191120  
H    -2.4848180    3.9945510    0.1944240  
H    -0.8876960    7.8803860   -0.0086640  
H     1.8740290    7.3681740   -0.1010390  
H     4.1945140    4.6797240   -0.0502800  
H     2.5879980    2.1402250    0.1012160  
H    -3.0585780    6.6137750    0.1261150  
C     0.1867180    2.2250560   -0.0043560  
C    -1.0414580    1.6309260   -0.2098770  
C    -0.8425930    0.2191010   -0.1180140  
C     0.6116960    0.0594880    0.1680520  
N     1.1978220    1.2227160    0.2116030  
C     1.2556330   -1.2294340    0.3693700  
C     0.4110720   -2.2991330    0.2984090  
O     0.7971690   -3.5623810    0.5176960  
C    -1.0595410   -2.1853430   -0.0242570  
O    -1.6740160   -3.2552040   -0.0840640  
C    -1.6778560   -0.8692140   -0.2453650  
H    -1.9767430    2.1221640   -0.4159220  
H    -0.0158670   -4.1033920    0.3749620  
C     3.3989740   -0.4543690    1.4432150  
C     2.6899620   -1.3207460    0.6541890  
C     3.6578540   -2.2960260    0.1479600  
C     4.9702770   -1.9212610    0.7320390  
N     4.7343240   -0.8044840    1.5112250  
C     6.1388040   -2.5712690    0.5033350  
C     6.1274110   -3.7211220   -0.3953600  
O     7.1265960   -4.3708780   -0.6624470  
C     4.7574810   -4.1218290   -1.0514310  
O     4.7250990   -5.0680550   -1.8221560  
C     3.5613930   -3.3407970   -0.7145110  
H     7.0840700   -2.2718430    0.9456840  
H     2.6256320   -3.6470390   -1.1647550  
H     3.0386310    0.4094270    1.9829910  
H     5.4400540   -0.2998640    2.0247980  
C    -3.5267810    0.0810380   -1.6348190  
C    -3.0746330   -0.7713050   -0.6606030  
C    -4.2611410   -1.4766830   -0.1576220  
C    -5.4147210   -0.9485890   -0.9283310  
N    -4.8932560   -0.0110810   -1.8023900  
C    -6.7049520   -1.3346060   -0.7677090  
C    -7.0065830   -2.3335600    0.2529430  
O    -8.1350100   -2.7444450    0.4738340  
C    -5.8103520   -2.8864440    1.1065220  
O    -6.0363260   -3.7030400    1.9843150  
C    -4.4541270   -2.3983310    0.8189660  
H    -7.5257590   -0.9294810   -1.3516210  
H    -3.6428130   -2.8214650    1.3979770  
H    -2.9479740    0.7510070   -2.2562250  
H    -5.4251700    0.4752330   -2.5078620  
