66


C    -3.3143860    1.2920840   -1.8623750  
C    -4.5851600    1.7856400   -1.7490020  
C    -5.2044110    1.1131130   -0.6423940  
C    -4.2416430    0.2136920   -0.1130340  
N    -3.0841140    0.3330190   -0.8792800  
C    -4.4991020   -0.5985680    1.0027310  
C    -5.7568330   -0.5100020    1.5822270  
O    -6.0579720   -1.2772340    2.6701940  
C    -6.7345650    0.3754930    1.0583390  
O    -7.9364420    0.3465970    1.7406960  
C    -6.4723900    1.1830140   -0.0336180  
H    -5.0319830    2.5383390   -2.3841470  
H    -3.7536390   -1.2564970    1.4362820  
H    -6.9694980   -1.0603050    2.9314180  
H    -8.5415960    0.9981820    1.3569580  
H    -7.2352210    1.8615740   -0.4108840  
H    -2.5329780    1.5172440   -2.5736750  
C     1.1335520    1.6167710   -0.1974960  
C    -0.2324540    1.5993170   -0.3721910  
C    -0.6431990    0.2306580   -0.5082020  
C     0.5178790   -0.5675880   -0.3979500  
N     1.5903800    0.2855880   -0.1605000  
C     0.5272650   -1.9709620   -0.4861860  
C    -0.7152920   -2.5731780   -0.7014400  
O    -0.8113880   -3.9270640   -0.7770130  
C    -1.8978600   -1.7997370   -0.8300360  
O    -3.0292990   -2.5451820   -1.0688060  
C    -1.8815600   -0.4102790   -0.7269300  
H    -0.8782530    2.4646040   -0.3421700  
H     2.5302850    0.0307150   -0.4406680  
H    -1.7514190   -4.1374710   -0.9186380  
H    -3.8217060   -1.9943800   -0.9503420  
C     1.2446820    5.8002160   -1.8154900  
C     0.9113900    4.4955370   -1.5583540  
C     1.8608460    3.9934310   -0.6046690  
C     2.7613630    5.0539740   -0.3251350  
N     2.3577310    6.1427690   -1.0712000  
C     3.8481460    4.9240950    0.5477400  
C     4.0274120    3.6915820    1.1534540  
O     5.0618390    3.5056360    2.0251160  
C     3.1438480    2.6124730    0.8950030  
O     3.4686690    1.4678980    1.5985190  
C     2.0546380    2.7315790    0.0243000  
H     0.0950660    3.9511770   -2.0091090  
H     2.8143800    7.0408530   -1.0814170  
H     4.5362690    5.7354620    0.7618720  
H     4.9892580    2.5919780    2.3532810  
H     2.7497120    0.8148910    1.5226160  
H     0.7800850    6.5217710   -2.4726400  
C     3.2039340   -2.2937260    2.9989300  
C     4.1459520   -3.1191040    2.4457310  
C     3.7296220   -3.3958190    1.0980810  
C     2.5149740   -2.6959420    0.8886070  
N     2.2286190   -2.0092170    2.0548880  
C     1.7829410   -2.7437290   -0.3164360  
C     2.3235610   -3.5338720   -1.3314850  
O     1.6965370   -3.6129270   -2.5382310  
C     3.5413710   -4.2385510   -1.1392030  
O     3.9407150   -4.9636650   -2.2483610  
C     4.2472410   -4.1780140    0.0472580  
H     5.0373840   -3.4847060    2.9369310  
H     1.3381490   -1.5755550    2.2475500  
H     2.2103880   -4.2307950   -3.0864990  
H     4.7481300   -5.4549490   -2.0374230  
H     5.1792640   -4.7279700    0.1628900  
H     3.1477470   -1.8633500    3.9889000  
