60


C    -3.2862300   -0.8607960    1.4200950  
C    -4.0717490   -0.0789650    0.5834970  
C    -5.1032200   -0.9606280    0.0659670  
C    -4.8694090   -2.2440630    0.6195610  
N    -3.7636850   -2.1459350    1.4442730  
C    -5.6554280   -3.3641040    0.3209980  
C    -6.7098880   -3.1833770   -0.5584170  
O    -7.5190850   -4.2313460   -0.8806800  
C    -6.9608400   -1.9053410   -1.1267510  
O    -8.0467640   -1.8804780   -1.9807510  
C    -6.1776160   -0.8070060   -0.8332850  
H    -3.3857310   -2.8936060    2.0059380  
H    -5.4722930   -4.3433000    0.7511430  
H    -8.2073010   -3.8877890   -1.4768840  
H    -8.2570860   -0.9617480   -2.2058380  
H    -6.4124040    0.1630960   -1.2574540  
H    -2.4662750   -0.5692820    2.0609900  
C    -0.3364460    2.0707600   -0.0973910  
C    -0.8176360    3.3410770   -0.2589300  
C    -2.2494490    3.2780030   -0.1139370  
C    -2.5741050    1.8667940    0.1609510  
N    -1.3560160    1.1792050    0.2211920  
C    -3.8265830    1.3362010    0.2993910  
C    -4.9368650    2.3178970    0.1788930  
O    -6.1101960    2.0013300    0.2730070  
C    -4.6067610    3.8419990   -0.0645370  
O    -5.5472660    4.6189300   -0.1586790  
C    -3.2172640    4.2372770   -0.1931730  
H    -0.2304030    4.2351790   -0.4096760  
H    -2.9958670    5.2830020   -0.3808200  
H    -1.3146860    0.1908700   -0.0007940  
C     1.9134920    2.2167770   -1.0822150  
C     3.1005340    1.5741700   -1.0297230  
C     2.9746560    0.4865900   -0.0792670  
C     1.5865350    0.5438260    0.4327600  
N     0.9701930    1.6198600   -0.2235400  
C     1.0786800   -0.2990180    1.3674550  
C     1.9327070   -1.3702860    1.8708480  
O     1.5430760   -2.1997310    2.6771680  
C     3.4111500   -1.4442870    1.3603870  
O     4.1661240   -2.2525800    1.8656720  
C     3.8622190   -0.4686090    0.3290830  
H     3.9791560    1.8125790   -1.6096860  
H     0.0750450   -0.2237310    1.7655380  
H     1.6028170    3.0532840   -1.6918100  
C     7.4117550    2.2442370    0.4458220  
C     6.1680050    1.7118380    0.5774740  
C     6.1932120    0.3989230   -0.0320280  
C     7.5786110    0.2068310   -0.5307550  
N     8.2577900    1.3722050   -0.2258190  
C     8.0397240   -0.9161310   -1.1370450  
C     7.1139280   -2.0262360   -1.3257480  
O     7.4352130   -3.0860890   -1.8384290  
C     5.6271390   -1.8364190   -0.8585440  
O     4.8144900   -2.7033920   -1.1243320  
C     5.2450420   -0.5799980   -0.1639650  
H     5.3221990    2.1788380    1.0584600  
H     9.0649020   -1.0368600   -1.4731690  
H     7.7845820    3.2027640    0.7821800  
H     9.2432420    1.5186020   -0.3794770  
