66


C     3.3814000   -0.3080200    0.3238210  
C     4.2603140    0.6673330    0.7736710  
C     3.5599480    1.9120840    0.7814590  
C     2.2373160    1.6461230    0.3303490  
N     2.1672110    0.3015890    0.0510300  
C     1.2487740    2.6479550    0.1813270  
C     1.6727930    3.9400140    0.4916690  
O     0.7976050    5.0024150    0.3436610  
C     2.9812990    4.2257370    0.9467980  
O     3.1974770    5.5690960    1.2055640  
C     3.9278020    3.2331040    1.1026480  
H     5.2648430    0.5007750    1.1362260  
H     1.3264600   -0.2137650   -0.1702010  
H     1.2720830    5.8022550    0.6349970  
H     4.0868420    5.6893670    1.5692010  
H     4.9314490    3.4718020    1.4484000  
C     7.0810260   -2.5384680   -0.5676560  
C     6.5448710   -3.7985370   -0.5664760  
C     5.1403840   -3.6587720   -0.3011890  
C     4.8850240   -2.2736470   -0.1322660  
N     6.0900020   -1.6167030   -0.2813880  
C     3.5974090   -1.7402190    0.1174070  
C     2.5584040   -2.6786850    0.1436890  
O     1.2665470   -2.2606810    0.3373410  
C     2.7992980   -4.0647420   -0.0135630  
O     1.6530930   -4.8354430    0.0706380  
C     4.0686590   -4.5686590   -0.2213340  
H     7.0832720   -4.7208950   -0.7360510  
H     6.1699530   -0.6173740   -0.3922010  
H     0.6970610   -3.0495170    0.3131600  
H     1.8722640   -5.7615300   -0.1079670  
H     4.2280130   -5.6385460   -0.3382920  
H     8.0976760   -2.2123230   -0.7366100  
C    -1.8124050   -0.3704390    1.4929500  
C    -0.7067350    0.4296340    1.4046140  
C    -0.8952930    1.2980300    0.2730960  
C    -2.1676810    0.9805860   -0.2729440  
N    -2.7119220   -0.0534380    0.4795340  
C    -2.7287530    1.6745660   -1.3565410  
C    -1.9778650    2.7139730   -1.8867760  
O    -2.4647370    3.4517720   -2.9207090  
C    -0.6970610    3.0423450   -1.3687120  
O    -0.0809510    4.0863860   -2.0285630  
C    -0.1214250    2.3419840   -0.3056340  
H     0.1442270    0.4030950    2.0691190  
H    -3.7311310    1.4838050   -1.7258150  
H    -1.7843440    4.1309460   -3.0942290  
H     0.2780670    4.6942660   -1.3461800  
H    -2.0526460   -1.1622490    2.1874140  
C    -6.2688340   -0.7996910    3.0290430  
C    -5.0593910   -0.3579640    2.5602990  
C    -4.9277430   -0.8470700    1.2164000  
C    -6.1043730   -1.5844590    0.9200190  
N    -6.9006850   -1.5411040    2.0463790  
C    -6.3362460   -2.1858650   -0.3232340  
C    -5.3514660   -2.0456680   -1.2883240  
O    -5.5161060   -2.6063260   -2.5204750  
C    -4.1500730   -1.3386660   -1.0162630  
O    -3.2416460   -1.3498770   -2.0543890  
C    -3.9299900   -0.7391000    0.2213070  
H    -4.3482670    0.2491170    3.1016660  
H    -7.8117560   -1.9634820    2.1294250  
H    -7.2433690   -2.7344820   -0.5546190  
H    -4.7314940   -2.3592170   -3.0427490  
H    -2.6665230   -0.5653220   -2.0049940  
H    -6.7415370   -0.6466580    3.9889410  
