60


C     3.4143390   -0.7392770    1.3696810  
C     4.6600920   -1.2866730    1.3476580  
C     4.6039060   -2.4699230    0.5299010  
C     3.2678020   -2.6083450    0.0829140  
N     2.5335090   -1.5353600    0.6200170  
C     2.8830040   -3.6129720   -0.8094460  
C     3.8540480   -4.5178920   -1.2201510  
O     3.5159270   -5.5218550   -2.0828610  
C     5.1870230   -4.4089950   -0.7592640  
O     6.0374010   -5.3794230   -1.2523570  
C     5.5704820   -3.3945070    0.1034750  
H     5.5306640   -0.8889310    1.8513090  
H     1.8723200   -3.7239880   -1.1766780  
H     4.3217790   -6.0395400   -2.2513880  
H     6.9286950   -5.2367750   -0.9011540  
H     6.6054490   -3.3091990    0.4289100  
H     3.0515750    0.1609250    1.8380610  
C     0.5639280    2.2613380    0.0571200  
C    -0.7355660    1.8476140   -0.1151030  
C    -0.7166690    0.4109220    0.0086270  
C     0.7056890    0.0936170    0.2598010  
N     1.4481400    1.1628390    0.2761390  
C     1.1712330   -1.2760280    0.4622620  
C     0.2005810   -2.2404850    0.5212280  
O     0.4566770   -3.5324860    0.8157020  
C    -1.2291770   -1.9493120    0.2882710  
O    -2.0157040   -2.9000230    0.3847530  
C    -1.6889060   -0.5602780   -0.0402930  
H    -1.6069450    2.4765160   -0.2225930  
H    -0.4185460   -3.9773930    0.7798100  
C    -3.4452080    0.6393040   -1.3599560  
C    -3.0538600   -0.3117010   -0.4401390  
C    -4.3337060   -0.9289410   -0.0169370  
C    -5.3655790   -0.1776250   -0.7919580  
N    -4.8217380    0.7212960   -1.5798940  
C    -6.7690040   -0.4363520   -0.6610980  
C    -7.1538060   -1.3948540    0.2180980  
O    -8.4240790   -1.7423910    0.4476060  
C    -6.1435470   -2.1621740    1.0308080  
O    -6.5682800   -3.0068250    1.8141220  
C    -4.7009390   -1.8786490    0.8646600  
H    -7.4807240    0.1319410   -1.2491550  
H    -8.3880780   -2.4497020    1.1297450  
H    -4.0090190   -2.4720430    1.4478650  
H    -2.7859270    1.2698090   -1.9442060  
C    -0.4069410    6.0015640   -2.1836880  
C    -0.4204470    4.7079320   -1.7688490  
C     0.5937840    4.6291560   -0.7309380  
C     1.1450750    6.0167490   -0.6668990  
N     0.5523200    6.8136710   -1.5137190  
C     2.2165280    6.3686800    0.2247800  
C     2.7228150    5.3939430    1.0142920  
O     3.7189510    5.5822390    1.8942160  
C     2.1764890    3.9881820    1.0069680  
O     2.6452370    3.2152370    1.8360450  
C     1.0744770    3.6206440    0.0570300  
H    -1.0312950    3.8997960   -2.1425450  
H     2.5934460    7.3851610    0.2476110  
H     3.8359640    4.7158240    2.3432040  
H    -1.0216630    6.4567330   -2.9515350  
