62


C    -3.6924140   -0.8551180    1.5739160  
C    -4.3478560   -0.0876990    0.6071170  
C    -5.5477450   -0.8390580    0.2573500  
C    -5.5273410   -2.0308280    1.0224580  
N    -4.3904080   -1.9966270    1.8182300  
C    -6.4996440   -3.0300840    0.9279890  
C    -7.5344720   -2.8252830    0.0273980  
O    -8.5185320   -3.7566850   -0.1049300  
C    -7.5736900   -1.6443220   -0.7573060  
O    -8.6598520   -1.5768730   -1.6063240  
C    -6.6046940   -0.6635380   -0.6574110  
H    -4.1445040   -2.6880580    2.5107300  
H    -6.4715200   -3.9379910    1.5215690  
H    -9.1497870   -3.4150670   -0.7624150  
H    -8.6867690   -0.7037910   -2.0261910  
H    -6.6799580    0.2436710   -1.2445890  
H    -2.8013330   -0.6206910    2.1365910  
C    -0.1890060    1.4147810    0.0665710  
C    -1.3212770    0.6304210    0.2205360  
C    -2.4705240    1.4612220    0.0630170  
C    -1.9607580    2.8167770   -0.2312020  
N    -0.5934150    2.7309200   -0.1873760  
C    -2.7324930    3.9098980   -0.4938090  
C    -4.1647530    3.7377550   -0.5171320  
O    -4.9654450    4.6310640   -0.7604420  
C    -4.7492070    2.3011360   -0.2276630  
O    -5.9587060    2.1659470   -0.3034650  
C    -3.8316790    1.1816030    0.1364300  
H    -1.2902750   -0.4317840    0.3931190  
H    -2.3203160    4.8933430   -0.6952070  
H     0.0566430    3.4800780   -0.3769700  
C     1.6754180   -2.4500610    1.0052560  
C     2.9853250   -2.1656130    0.8108890  
C     3.0256720   -0.7604390    0.4284640  
C     1.6049670   -0.3440440    0.4407430  
N     0.8221740   -1.3344180    0.7770610  
C     1.1956760    1.0294450    0.1205720  
C     2.2366170    1.9053520   -0.0985680  
O     2.0533920    3.2260640   -0.3624400  
C     3.6513350    1.5201660   -0.0464990  
O     4.4764650    2.4519730   -0.1981470  
C     4.0530330    0.1013990    0.1496850  
H     3.8363530   -2.8190980    0.9283220  
H     2.9656500    3.5895600   -0.4401710  
H     1.2299280   -3.3884500    1.3117600  
C     5.9398720   -3.2440490   -2.1680580  
C     5.0518560   -2.3457400   -1.6332670  
C     5.7959010   -1.4627440   -0.7802100  
C     7.1539100   -1.8786520   -0.8554010  
N     7.2067940   -2.9733320   -1.6932500  
C     8.1929610   -1.2213240   -0.1937570  
C     7.8595240   -0.0901270    0.5369800  
O     8.8258060    0.6058410    1.1918410  
C     6.5210300    0.3730560    0.6141300  
O     6.3746480    1.4957320    1.3949860  
C     5.4601190   -0.3130330    0.0031030  
H     3.9891670   -2.3277430   -1.8226480  
H     8.0482950   -3.4599180   -1.9594670  
H     9.2281210   -1.5422110   -0.2518570  
H     8.3699740    1.3687250    1.5972990  
H     5.7771120    2.1064150    0.9055480  
H     5.7710230   -4.0648250   -2.8506400  
