62


C    -0.9242040   -0.7192490    0.4649070  
C    -0.6550750    0.6430290    0.4197830  
C    -1.9386900    1.2938630    0.2322190  
C    -2.9180660    0.2720040    0.1649910  
N    -2.2641030   -0.9382010    0.3014340  
C    -4.2954200    0.5017040   -0.0648590  
C    -4.6348740    1.8411860   -0.2395060  
O    -5.9466650    2.1906340   -0.4871610  
C    -3.6761350    2.8812360   -0.1773540  
O    -4.2146220    4.1397510   -0.3688530  
C    -2.3396800    2.6315240    0.0541380  
H    -2.7392020   -1.8206350    0.4324980  
H    -5.9780650    3.1646480   -0.5266110  
H    -3.5612920    4.8128900   -0.1257780  
H    -1.6269960    3.4452600    0.1254930  
H    -0.2548960   -1.5425590    0.6736360  
C     3.1354930   -0.6672950   -1.3125090  
C     3.9742280    0.2610850   -0.7629230  
C     3.1705200    1.1543520    0.0539460  
C     1.7888700    0.6589200   -0.0603900  
N     1.8462590   -0.4776480   -0.8629270  
C     0.6819970    1.2263720    0.5156080  
C     0.9436550    2.4643290    1.2924330  
O     0.0588320    3.1102970    1.8274850  
C     2.4266020    2.9849830    1.4532650  
O     2.6063600    3.9999160    2.1094570  
C     3.4957100    2.2501380    0.7963550  
H     4.5138900    2.6076830    0.9100430  
H     3.3728220   -1.4778340   -1.9886100  
H     1.0220690   -0.9116650   -1.2537840  
C     6.0512570    1.4251680   -1.5018150  
C     7.3918430    1.2272530   -1.5049300  
C     7.6390640   -0.0683670   -0.9077380  
C     6.3083860   -0.6159710   -0.5446660  
N     5.3692990    0.3372230   -0.9365550  
C     6.1130930   -1.8183200    0.0523120  
C     7.2811170   -2.6408500    0.3579060  
O     7.2003150   -3.7360550    0.8930410  
C     8.7006840   -2.0850500   -0.0275310  
O     9.6872930   -2.7631750    0.2118240  
C     8.7789260   -0.7665510   -0.6626830  
H     8.1391190    1.9082780   -1.8856960  
H     5.1329730   -2.1991120    0.3184520  
H     9.7642060   -0.3880450   -0.9175500  
H     5.4763070    2.2662710   -1.8658740  
C    -5.1027750   -3.0374090    2.6046490  
C    -4.6437690   -1.8516010    2.0899980  
C    -5.3096960   -1.6457210    0.8281270  
C    -6.1789020   -2.7540080    0.6433250  
N    -6.0201430   -3.5881990    1.7317090  
C    -7.0315220   -2.8835800   -0.4591020  
C    -7.0185960   -1.8512500   -1.3816730  
O    -7.8361670   -1.8914360   -2.4689670  
C    -6.1555280   -0.7311200   -1.2280470  
O    -6.2450030    0.1833220   -2.2577140  
C    -5.2708500   -0.6141020   -0.1541620  
H    -3.9471680   -1.1829160    2.5753240  
H    -6.5357390   -4.4400010    1.8882820  
H    -7.6993990   -3.7279480   -0.5954550  
H    -7.6688960   -1.0583520   -2.9502030  
H    -6.2785400    1.0798870   -1.8601960  
H    -4.8590970   -3.5343190    3.5330770  
