60


C    -5.9000110    3.0249870    1.1399300  
C    -4.8792790    2.2696090    0.6234800  
C    -5.1296850    0.9110800    1.0136750  
C    -6.3331740    0.9043670    1.7708290  
N    -6.7739870    2.2089620    1.8316850  
C    -6.8988630   -0.2620660    2.2969300  
C    -6.2370490   -1.4583480    2.0606040  
O    -6.7433720   -2.6229950    2.5447310  
C    -5.0199810   -1.4884530    1.3296950  
O    -4.4260610   -2.7320320    1.2430670  
C    -4.4662180   -0.3179200    0.8158760  
H    -4.0602830    2.6414010    0.0243340  
H    -7.6171620    2.5163280    2.2912650  
H    -7.8245460   -0.2641780    2.8627570  
H    -6.1388610   -3.3332660    2.2619600  
H    -4.0561370   -2.8719840    0.3531600  
H    -6.0810980    4.0879300    1.0680690  
C    -2.0581130    0.2644440    0.5444180  
C    -1.0100680   -0.0249510   -0.2776810  
C    -1.4987590   -0.9164160   -1.3167540  
C    -2.9365290   -1.1106400   -1.0193100  
N    -3.2210040   -0.3632890    0.1179940  
C    -3.7706950   -1.8854860   -1.7651440  
C    -3.2208710   -2.5726050   -2.9369160  
O    -3.8965540   -3.2753280   -3.6691380  
C    -1.6939740   -2.3847570   -3.2571630  
O    -1.2103650   -2.9634770   -4.2143510  
C    -0.9024990   -1.5084210   -2.3816080  
H    -4.8384500   -1.9587140   -1.5795280  
H     0.1457370   -1.3656950   -2.6261510  
H    -2.0816370    0.8840220    1.4307360  
C     1.4127050   -0.3043190    0.1942660  
C     2.5742760    0.4182220    0.1564910  
C     2.2073300    1.7729600   -0.2532420  
C     0.7406880    1.7569590   -0.4583920  
N     0.3088840    0.4609550   -0.1535440  
C     0.0056040    2.8218510   -0.8559310  
C     0.6928790    4.0925610   -1.0919680  
O     0.1120960    5.1013920   -1.4562550  
C     2.2424910    4.1454900   -0.8490000  
O     2.8365750    5.1962660   -1.0204210  
C     2.9229450    2.9155330   -0.4207320  
H    -1.0683410    2.7815730   -1.0019900  
H     3.9898190    2.9794120   -0.2343210  
H     1.2766810   -1.3496290    0.4382290  
C     3.8903980   -0.0948210    0.4761660  
C     4.2477480   -1.1018920    1.3333800  
C     5.6774820   -1.2617600    1.2682080  
C     6.1565560   -0.2568530    0.2879090  
N     5.0368220    0.4569250   -0.1174550  
C     7.4478250   -0.1152790   -0.0963080  
C     8.4520810   -0.9875620    0.5136120  
O     9.6382360   -0.9293850    0.2310360  
C     7.9729420   -2.0340430    1.5854790  
O     8.8022040   -2.7618830    2.1105500  
C     6.5462560   -2.0984240    1.9004940  
H     3.5789160   -1.6381700    1.9915880  
H     7.7804780    0.6198760   -0.8228100  
H     6.2242240   -2.8364020    2.6289280  
H     5.0069810    0.9838630   -0.9784750  
