62


C     1.9496640   -0.4436030   -0.8748490  
C     0.9760490    0.2455670   -0.1966410  
C     1.5869710    1.4084990    0.4005290  
C     2.9555530    1.3750990    0.0481140  
N     3.1514430    0.2321750   -0.7229360  
C     3.8719170    2.3504380    0.4521490  
C     3.3846010    3.3871180    1.2329740  
O     4.2250640    4.3713050    1.6540270  
C     2.0106690    3.4377590    1.6010220  
O     1.6878340    4.5271430    2.3814250  
C     1.1127040    2.4671620    1.1996850  
H     4.9201900    2.3180800    0.1781300  
H     3.6962160    5.0047570    2.1697550  
H     0.7312740    4.5501330    2.5340680  
H     0.0668010    2.5230670    1.4902710  
H     1.9020400   -1.3527300   -1.4554150  
C    -0.8221840   -1.3292200    0.5320700  
C    -2.1734270   -1.4335430    0.4865490  
C    -2.6752790   -0.2548640   -0.1819160  
C    -1.4809080    0.5494240   -0.5403840  
N    -0.3737680   -0.1502800   -0.0737100  
C    -1.5099870    1.7233480   -1.2225950  
C    -2.8062060    2.2523620   -1.6185370  
O    -2.9430040    3.2913830   -2.2473400  
C    -4.0952620    1.4502950   -1.2102020  
O    -5.1827600    1.9412030   -1.4574020  
C    -3.9408590    0.1486480   -0.5129030  
H    -2.7677060   -2.2309760    0.9034210  
H    -0.6159620    2.2733370   -1.4946530  
H    -0.0902530   -1.9986820    0.9640070  
C    -5.5826760   -1.2081310    3.3543410  
C    -6.7581050   -1.7668110    2.9875240  
C    -6.8028820   -1.6348110    1.5347980  
C    -5.5143920   -0.9451520    1.1895190  
N    -4.8117870   -0.7005780    2.2573680  
C    -5.1632980   -0.6088770   -0.1820930  
C    -6.0681390   -0.9699170   -1.1375820  
O    -5.8754200   -0.7760660   -2.4477890  
C    -7.3645190   -1.6621840   -0.8155870  
O    -8.1048200   -1.9495370   -1.7545000  
C    -7.6954090   -1.9748120    0.5865240  
H    -7.5157830   -2.2130600    3.6164750  
H    -6.6910380   -1.1051090   -2.8865130  
H    -8.6445550   -2.4664670    0.7770330  
H    -5.1768070   -1.1052410    4.3538300  
C     4.8346840    0.2067520   -2.5060050  
C     6.0477390   -0.3884300   -2.7023720  
C     6.3417720   -1.1754170   -1.5330780  
C     5.2578260   -1.0227390   -0.6354440  
N     4.3461360   -0.1722820   -1.2547620  
C     5.1983030   -1.6486930    0.6126520  
C     6.2698110   -2.4558670    0.9647250  
O     6.2712110   -3.0947360    2.1695740  
C     7.3699070   -2.6261600    0.0818050  
O     8.3545710   -3.4598520    0.5759790  
C     7.4176190   -2.0009110   -1.1506090  
H     6.6680700   -0.2809210   -3.5816620  
H     4.3667180   -1.5200480    1.2964330  
H     7.1039880   -3.5938640    2.2305720  
H     9.0844460   -3.5121450   -0.0585530  
H     8.2710160   -2.1466000   -1.8099390  
H     4.2522180    0.8725110   -3.1258780  
