66


C     5.6606690   -1.5115390    1.5207510  
C     4.9004270   -0.6852190    0.7198320  
C     5.7980140    0.3562980    0.2552610  
C     7.0767870    0.0911910    0.8109190  
N     6.9590240   -1.0504630    1.5772540  
C     8.1881750    0.9123400    0.5828570  
C     8.0063670    2.0276050   -0.2194740  
O     9.0567880    2.8592600   -0.4778760  
C     6.7313060    2.3180360   -0.7746850  
O     6.7075710    3.4669650   -1.5424150  
C     5.6353950    1.5071210   -0.5472130  
H     7.7088400   -1.4880510    2.0894120  
H     9.1664260    0.7109180    1.0075040  
H     8.7230490    3.5757140   -1.0450110  
H     5.8128380    3.6069190   -1.8863090  
H     4.6681600    1.7541330   -0.9776070  
H     5.3689700   -2.4120120    2.0419480  
C     1.2963590   -1.4470210    3.3098360  
C     2.5675030   -1.2020080    2.8600490  
C     2.4998890   -1.0917190    1.4284690  
C     1.1406500   -1.2711140    1.0665700  
N     0.4286210   -1.4764550    2.2330020  
C     0.6662420   -1.2297300   -0.2616190  
C     1.6345400   -0.9934630   -1.2373010  
O     1.2752230   -0.9161120   -2.5493550  
C     2.9995370   -0.8164280   -0.8951740  
O     3.8170100   -0.6137380   -1.9941420  
C     3.4667820   -0.8526250    0.4169410  
H     3.4498860   -1.0955060    3.4745480  
H    -0.5486960   -1.7218220    2.2677420  
H     2.0993910   -0.8238830   -3.0588040  
H     4.7441260   -0.6511160   -1.7047170  
H     0.9271140   -1.5928520    4.3152710  
C    -2.7867620    1.2220360    0.9157510  
C    -3.7891170    0.5031800    0.2975560  
C    -3.1328140   -0.6150840   -0.3543730  
C    -1.7455570   -0.5088140   -0.0810030  
N    -1.5680780    0.6172470    0.6966780  
C    -0.7725750   -1.3993660   -0.5829260  
C    -1.2525680   -2.4354620   -1.3848390  
O    -0.3939370   -3.3674190   -1.8807620  
C    -2.6373790   -2.5493650   -1.6832330  
O    -2.9398710   -3.6262500   -2.4967450  
C    -3.5759790   -1.6647130   -1.1884550  
H    -0.6719370    0.9570860    1.0114370  
H    -0.9149630   -3.9618840   -2.4479180  
H    -3.8821210   -3.6053100   -2.7203470  
H    -4.6269870   -1.7719030   -1.4449100  
H    -2.8620050    2.1146040    1.5201910  
C    -6.0712130    4.2982980   -0.5042320  
C    -5.0816690    3.3622260   -0.3546690  
C    -5.7139350    2.1313610    0.0338220  
C    -7.1089680    2.3879570    0.0973300  
N    -7.2962240    3.7163110   -0.2300430  
C    -8.0508970    1.4047250    0.4249950  
C    -7.5661850    0.1359570    0.6971810  
O    -8.4316990   -0.8669160    1.0374200  
C    -6.1768300   -0.1415150    0.6433550  
O    -5.8621120   -1.4498090    0.9706280  
C    -5.2283390    0.8265270    0.3157470  
H    -4.0255440    3.5229520   -0.5166020  
H    -8.1878320    4.1833530   -0.2746260  
H    -9.1176460    1.5981070    0.4748670  
H    -7.8883910   -1.6520680    1.2245310  
H    -4.8946600   -1.5394710    0.9965460  
H    -6.0103220    5.3397370   -0.7875430  
