64


C    -0.0769710    0.6471290   -1.5823560  
C    -0.2943320    1.7109780   -0.7266660  
C     0.9846060    2.0044150   -0.1170070  
C     1.9240990    1.0917740   -0.6539990  
N     1.2504390    0.2896250   -1.5534850  
C     3.2844840    1.0355060   -0.2767140  
C     3.6681920    1.9529870    0.7023240  
O     4.9653760    1.9947700    1.1353910  
C     2.7381050    2.8697100    1.2592720  
O     3.2932510    3.7074600    2.2136340  
C     1.4155470    2.9147930    0.8669660  
H     1.6663790   -0.5017730   -2.0208990  
H     5.0272170    2.7392600    1.7592470  
H     2.6470110    4.3877290    2.4533370  
H     0.7315690    3.6391390    1.2989040  
H    -0.7675130    0.1464850   -2.2469930  
C    -4.2257820   -0.1161790    0.0308220  
C    -4.9586740    1.0743730    0.1220970  
C    -4.0618830    2.1511000   -0.0576030  
C    -2.7679880    1.5858590   -0.2689150  
N    -2.9018510    0.2267280   -0.2143020  
C    -1.5985160    2.3506860   -0.4860460  
C    -1.7894720    3.7328860   -0.4711720  
O    -0.7372250    4.5696990   -0.6861850  
C    -3.0764670    4.3171370   -0.2519470  
O    -3.0530080    5.6979330   -0.2745220  
C    -4.2059430    3.5589010   -0.0556220  
H    -6.0280040    1.1443860    0.2495990  
H    -2.1681050   -0.4562440   -0.3418640  
H    -1.0894980    5.4775940   -0.6905760  
H    -3.9581760    6.0394860   -0.2248130  
H    -5.1741600    4.0266280    0.1068000  
C     4.3314700   -0.1562270   -2.2549050  
C     4.2119200    0.0728100   -0.8982750  
C     5.1297640   -0.8415770   -0.2546460  
C     5.7673300   -1.5896010   -1.2759760  
N     5.2594530   -1.1523050   -2.4836900  
C     6.7150750   -2.5865380   -1.0090750  
C     7.0242300   -2.8322190    0.3187760  
O     7.9443540   -3.7887260    0.6402830  
C     6.3918200   -2.0951600    1.3556560  
O     6.8051180   -2.4553730    2.6264470  
C     5.4561720   -1.1154250    1.0880380  
H     5.5652420   -1.4646300   -3.3916410  
H     7.2048080   -3.1592500   -1.7901720  
H     8.0204290   -3.7955690    1.6100580  
H     6.3679810   -1.8859460    3.2766190  
H     4.9993590   -0.5495510    1.8947650  
H     3.8557390    0.3543330   -3.0810200  
C    -7.9402720   -2.1833200    1.4952310  
C    -7.0101080   -1.2147540    1.2810840  
C    -5.8959570   -1.8855890    0.6243890  
C    -6.3392550   -3.2890020    0.5360430  
N    -7.5398910   -3.4626810    1.0324110  
C    -5.5121440   -4.3260820   -0.0286800  
C    -4.2768580   -3.9870340   -0.4585170  
O    -3.3875020   -4.8658320   -0.9701840  
C    -3.7800680   -2.5828020   -0.3762500  
O    -2.6144600   -2.3896090   -0.7431460  
C    -4.6775750   -1.4805980    0.1263190  
H    -7.0630840   -0.1804490    1.5860120  
H    -5.8785060   -5.3458290   -0.0748150  
H    -2.5835760   -4.3398300   -1.1634000  
H    -8.9066960   -2.0817440    1.9747240  
