60


C     0.6454860    4.4310690   -0.4504630  
C    -0.0990060    5.5661400   -0.4226340  
C    -1.4766820    5.1819360   -0.2374280  
C    -1.5191660    3.7702360   -0.1640180  
N    -0.1865530    3.3079060   -0.3006450  
C    -2.7114390    3.0731000    0.0464070  
C    -3.8788090    3.8202780    0.1646190  
O    -5.0621180    3.1794860    0.3680700  
C    -3.8519220    5.2335760    0.0797860  
O    -5.0860920    5.8305630    0.2156960  
C    -2.6639360    5.9192080   -0.1170080  
H     0.2813550    6.5728130   -0.5326540  
H    -2.7493210    1.9951960    0.1107900  
H    -5.7605750    3.8553840    0.4057910  
H    -4.9998800    6.7902000    0.1150840  
H    -2.6542380    7.0057610   -0.1703250  
H     1.7048760    4.2968660   -0.6013700  
C     0.2859550    2.0224110   -0.2787380  
C     1.6018630    1.6032390   -0.2144010  
C     1.5413150    0.1777170   -0.2670920  
C     0.0750320   -0.1332470   -0.3674560  
N    -0.6414600    0.9583010   -0.3586480  
C    -0.4482900   -1.4892280   -0.4710060  
C     0.5150400   -2.4613050   -0.4622890  
O     0.2534060   -3.7690160   -0.5760530  
C     1.9934790   -2.1895720   -0.2988600  
O     2.7062290   -3.1883360   -0.1874630  
C     2.4945990   -0.8090130   -0.2391980  
H     2.4938690    2.2094420   -0.1877490  
H     1.1390480   -4.2033140   -0.5016250  
C     4.8590230    1.5195880    2.6702810  
C     6.1083260    1.2448930    2.2159330  
C     5.9657870    0.3849910    1.0592440  
C     4.5084220    0.1811370    0.8747230  
N     3.8959450    0.8800320    1.8953720  
C     3.9391210   -0.5915580   -0.1027030  
C     4.8667970   -1.2003730   -1.0841670  
O     4.4788520   -1.7725060   -2.0869900  
C     6.4144250   -1.0504900   -0.8584330  
O     7.1746590   -1.6370390   -1.6124240  
C     6.8774990   -0.2059640    0.2404880  
H     7.0387260    1.5914870    2.6413650  
H     7.9487310   -0.0915650    0.3750940  
H     4.5515080    2.1249620    3.5128070  
H     2.8995120    1.0300350    1.9581330  
C    -2.7991870   -0.9213250   -1.2215680  
C    -1.8819540   -1.7324790   -0.6113830  
C    -2.6907650   -2.8660430   -0.1084930  
C    -4.0809740   -2.5425790   -0.5514340  
N    -4.1276220   -1.4146620   -1.2046640  
C    -5.1977150   -3.4003640   -0.2551160  
C    -4.9637670   -4.5152650    0.4764250  
O    -5.9076050   -5.3999170    0.8371470  
C    -3.5838540   -4.8529460    0.9663130  
O    -3.4497570   -5.8761670    1.6359420  
C    -2.4507170   -3.9640360    0.6339220  
H    -6.1885800   -3.1339220   -0.6057700  
H    -5.4336730   -6.0863600    1.3566010  
H    -1.4730040   -4.2638950    0.9890060  
H    -2.6050270    0.0269500   -1.7020100  
