60


C    -8.0277150   -0.5365130    0.2536150  
C    -6.8381510    0.1460130    0.1743530  
C    -5.9058890   -0.7071860   -0.5001340  
C    -6.5944180   -1.9118400   -0.7990020  
N    -7.8862850   -1.7727360   -0.3372890  
C    -5.9893590   -3.0021970   -1.4308380  
C    -4.6503390   -2.8863920   -1.7724510  
O    -4.0263170   -3.9167480   -2.4055810  
C    -3.9279040   -1.7028480   -1.4851880  
O    -2.6218870   -1.7475290   -1.9155820  
C    -4.5264930   -0.5982430   -0.8512970  
H    -6.6545270    1.1306320    0.5769690  
H    -8.6019910   -2.4809120   -0.3896680  
H    -6.5218560   -3.9187070   -1.6634470  
H    -3.1105040   -3.6395840   -2.5831200  
H    -2.2261470   -0.8582770   -1.8737730  
H    -8.9710310   -0.2381020    0.6882850  
C    -3.7789580    0.6168170   -0.5951410  
C    -4.1785630    1.9267570   -0.5831700  
C    -3.0437680    2.7608330   -0.3021430  
C    -1.9055250    1.8375210   -0.1153800  
N    -2.3655250    0.5510270   -0.3782800  
C    -0.6530620    2.2418030    0.2439750  
C    -0.3916150    3.6926520    0.3316920  
O     0.7223860    4.1392190    0.5480300  
C    -1.5911120    4.6789670    0.0971070  
O    -1.3692080    5.8767750    0.1902620  
C    -2.8933850    4.1146580   -0.2193230  
H    -5.1691360    2.2795640   -0.8285070  
H    -3.7191930    4.8027810   -0.3678060  
H    -1.9877780   -0.2256160    0.1620710  
C     1.6812350    1.4654670   -0.0613900  
C     2.5144540    0.4524300    0.3394690  
C     1.7297200   -0.3910380    1.2457720  
C     0.3934120    0.2389880    1.3415590  
N     0.4112370    1.3456460    0.4882620  
C    -0.6088610   -0.1943240    2.1520720  
C    -0.3787220   -1.3917570    2.9625550  
O    -1.2139600   -1.8391700    3.7315440  
C     1.0052240   -2.1147620    2.8210950  
O     1.1997550   -3.1453480    3.4432530  
C     2.0245590   -1.5125470    1.9488950  
H    -1.5427490    0.3402150    2.2922290  
H     3.0006030   -1.9782000    1.8872840  
H     1.8877370    2.2905720   -0.7255510  
C     3.8831940    0.2767100   -0.0708230  
C     4.6710690    1.1032140   -0.8356640  
C     5.9414010    0.4442610   -0.9434510  
C     5.7671530   -0.8273430   -0.1582620  
N     4.5716040   -0.9170050    0.3460630  
C     6.8325820   -1.7843330   -0.0211840  
C     8.0088260   -1.4966800   -0.6264840  
O     9.0891600   -2.2835130   -0.5906360  
C     8.2177620   -0.2209750   -1.4246490  
O     9.3300690   -0.0670070   -1.9324370  
C     7.1215030    0.7340360   -1.5501750  
H     4.4117990    2.0636360   -1.2592540  
H     6.6814980   -2.6936950    0.5496250  
H     9.7707850   -1.8040450   -1.1165550  
H     7.3057480    1.6348950   -2.1269480  
