62


C     1.1958140   -2.9814740   -1.9221810  
C     1.4410670   -4.3214060   -1.8107790  
C     2.3618930   -4.4982590   -0.7222880  
C     2.6506410   -3.2112650   -0.2044080  
N     1.9257080   -2.2839860   -0.9544480  
C     3.4946670   -3.0115240    0.8936590  
C     4.0714370   -4.1338280    1.4674170  
O     4.9087210   -3.9945380    2.5355530  
C     3.8020550   -5.4313630    0.9560440  
O     4.4512740   -6.4440490    1.6350700  
C     2.9590230   -5.6241930   -0.1222630  
H     1.0297350   -5.0951100   -2.4450650  
H     3.7217210   -2.0294810    1.2902870  
H     5.2130740   -4.8849450    2.7819390  
H     4.2475400   -7.2954330    1.2206510  
H     2.7587620   -6.6272060   -0.4938570  
H     0.6035060   -2.4325000   -2.6405370  
C    -1.5833210    0.1510940   -0.1853350  
C    -0.9272370    1.3669640   -0.0956600  
C     0.4660790    1.1293710   -0.2853360  
C     0.6070850   -0.2669310   -0.5070980  
N    -0.6440790   -0.8376530   -0.4671830  
C     1.8430700   -0.8913180   -0.7410960  
C     2.9575520   -0.0538510   -0.7973120  
O     4.1798990   -0.5685390   -1.0536880  
C     2.8384960    1.3519090   -0.6034170  
O     4.0447900    2.0025700   -0.6874860  
C     1.6209230    1.9735870   -0.3138810  
H    -1.4112610    2.3201630    0.0560720  
H    -0.7993060   -1.8309330   -0.3614290  
H     4.7916370    0.1939310   -1.0767910  
H     3.9020810    2.8124050   -1.2248860  
C    -0.3758780    4.3799880    2.8889490  
C     0.1393210    3.3349880    2.2011380  
C     0.7960610    3.9263290    1.0354090  
C     0.5610490    5.3892920    1.2016850  
N    -0.1310390    5.6514290    2.2727580  
C     1.0605330    6.3548440    0.2559340  
C     1.8027340    5.8931820   -0.7748790  
O     2.3635240    6.6843120   -1.7078150  
C     2.1098040    4.4351280   -0.9267320  
O     2.8963380    4.1356140   -1.8363750  
C     1.4942310    3.4169390   -0.0202530  
H     0.1070250    2.2865550    2.4566370  
H     0.8593610    7.4108070    0.3967120  
H     2.8753470    6.0918840   -2.2968410  
H    -0.9233700    4.3597240    3.8234010  
C    -2.9836900   -0.1525540   -0.0717300  
C    -3.9889220    0.5536810    0.5367240  
C    -5.2166760   -0.1743960    0.3654730  
C    -4.8675770   -1.3900870   -0.4085160  
N    -3.4874270   -1.3624360   -0.5917640  
C    -5.7640320   -2.3123870   -0.8308120  
C    -7.1715970   -2.1270990   -0.4742090  
O    -8.0461400   -2.9102960   -0.8096410  
C    -7.5584700   -0.8707810    0.3882030  
O    -8.7289610   -0.7120150    0.7039650  
C    -6.4987060    0.0615560    0.7645940  
H    -3.8637100    1.4687030    1.0978520  
H    -5.4931120   -3.1926200   -1.4061260  
H    -6.7794260    0.9363420    1.3431900  
H    -3.0618920   -1.8050320   -1.3956940  
