60


C    -5.5437170   -1.6252290   -1.5332460  
C    -6.8697770   -1.3304150   -1.6403780  
C    -7.1169570   -0.1633380   -0.8361560  
C    -5.8871350    0.2040450   -0.2382850  
N    -4.9169840   -0.7079170   -0.6783890  
C    -5.7590110    1.3379150    0.5705000  
C    -6.8985570    2.0935540    0.8023620  
O    -6.8244540    3.2035090    1.5924110  
C    -8.1418780    1.7281690    0.2253370  
O    -9.1816330    2.5786360    0.5463170  
C    -8.2610920    0.6162080   -0.5888110  
H    -7.5982880   -1.8914470   -2.2100570  
H    -4.8282110    1.6283810    1.0406510  
H    -7.7227300    3.5700420    1.6605030  
H   -10.0098720    2.2266560    0.1881790  
H    -9.2191550    0.3593900   -1.0364030  
H    -4.9720160   -2.4455330   -1.9409300  
C    -1.4020720   -1.1619400   -3.2425260  
C    -2.6656880   -0.9763960   -2.7820490  
C    -2.5877940   -0.8809060   -1.3385450  
C    -1.1598590   -1.0168100   -0.9902160  
N    -0.4951340   -1.1803790   -2.1879460  
C    -0.6309770   -0.9848880    0.2751130  
C    -1.5822680   -0.7616380    1.3710790  
O    -1.2419690   -0.5579980    2.5236010  
C    -3.1206860   -0.7132050    1.0480470  
O    -3.9057820   -0.6944530    1.9759310  
C    -3.5512350   -0.7177570   -0.3741350  
H    -3.5614160   -0.8989740   -3.3786690  
H    -1.0489580   -1.2734990   -4.2588460  
H     0.4927780   -1.3667160   -2.2644310  
C     3.0078940    1.2553620   -0.9627150  
C     1.7400340    0.8115970   -0.7941890  
C     1.7896170   -0.3491570    0.0712830  
C     3.2157410   -0.5510210    0.4070290  
N     3.9319080    0.4432600   -0.2868710  
C     3.6698940   -1.4618550    1.3004430  
C     2.7010190   -2.3551300    1.9304840  
O     3.0136320   -3.1829740    2.7705420  
C     1.2008150   -2.2505400    1.4929470  
O     0.4195750   -3.1034050    1.8686450  
C     0.7964750   -1.1416240    0.5837220  
H     0.8516040    1.2539330   -1.2197530  
H     4.7107890   -1.5701090    1.5790700  
H     3.3761470    2.0922090   -1.5396230  
C     6.3932500    4.0610490    0.3339690  
C     5.3074370    3.2517310    0.2570150  
C     5.8436290    1.9337520   -0.0629680  
C     7.3148120    2.1503890   -0.1502700  
N     7.6296730    3.3940090    0.0839100  
C     8.2336190    1.0770580   -0.4354430  
C     7.7230180   -0.1592220   -0.6327420  
O     8.4652790   -1.2476890   -0.8984650  
C     6.2454530   -0.4225690   -0.5897980  
O     5.8539840   -1.5483880   -0.8775990  
C     5.3085260    0.6983820   -0.2479120  
H     4.2730590    3.5099710    0.4336150  
H     9.2984940    1.2752900   -0.4813230  
H     7.8310060   -1.9821300   -1.0404060  
H     6.4162900    5.1184000    0.5687480  
