64


C     0.6292780    1.3062170   -0.0536940  
C     1.7020690    0.4144240   -0.0138280  
C     2.8969060    1.1801230    0.0468660  
C     2.5120570    2.5514650    0.0605580  
N     1.1423700    2.5945080   -0.0056820  
C     3.4428810    3.5947640    0.1335710  
C     4.7828430    3.2451500    0.1821130  
O     5.7367180    4.2147270    0.2349900  
C     5.1877260    1.8791000    0.1668030  
O     6.5546780    1.7078600    0.1976110  
C     4.2738040    0.8296330    0.1046350  
H     1.6441610   -0.6613620    0.0476570  
H     0.5360500    3.4016330    0.0707580  
H     3.1572330    4.6411420    0.1423410  
H     6.6022150    3.7693980    0.2171050  
H     6.7580450    0.7719760    0.0265170  
C    -1.6263230   -2.2339230   -1.3349860  
C    -2.8844910   -1.8154390   -1.0315980  
C    -2.7835610   -0.4718310   -0.5152760  
C    -1.3502520   -0.1423770   -0.5295990  
N    -0.6918160   -1.2642010   -0.9952940  
C    -0.7925920    1.0583370   -0.1425210  
C    -1.7714460    2.1143370    0.1489490  
O    -1.4665850    3.2804280    0.3676220  
C    -3.3146990    1.7773440    0.1460820  
O    -4.0605370    2.7414160    0.3325380  
C    -3.7671660    0.4147780   -0.1002030  
H    -3.7970110   -2.3758080   -1.1581770  
H    -1.2974810   -3.1688230   -1.7687780  
H     0.2634480   -1.2441010   -1.3250460  
C    -5.6521880   -3.0392990    2.0631210  
C    -4.7657740   -2.1234870    1.5574170  
C    -5.5218430   -1.1680030    0.7941190  
C    -6.8836330   -1.5617460    0.8906710  
N    -6.9298100   -2.7118890    1.6530660  
C    -7.9328220   -0.8368490    0.3173890  
C    -7.5948560    0.3310870   -0.3476250  
O    -8.5624150    1.1019940   -0.9139230  
C    -6.2445300    0.7586750   -0.4584580  
O    -6.0952940    1.9255570   -1.1728660  
C    -5.1817430    0.0152860    0.0683240  
H    -3.6977310   -2.1314460    1.7164000  
H    -7.7728090   -3.1909600    1.9274010  
H    -8.9731190   -1.1353710    0.3982800  
H    -8.0920510    1.8764820   -1.2797560  
H    -5.4468100    2.4801450   -0.6781560  
H    -5.4790370   -3.9060070    2.6853960  
C     3.7287830   -2.5007930   -2.8946850  
C     3.6970860   -1.2928830   -2.2452690  
C     4.4085640   -1.4595160   -1.0075150  
C     4.8554280   -2.8063520   -0.9655410  
N     4.4225690   -3.4169830   -2.1255820  
C     5.6028370   -3.3301040    0.0971420  
C     5.9011470   -2.4743080    1.1443950  
O     6.6110040   -2.9294610    2.2163270  
C     5.4678320   -1.1218140    1.1234740  
O     5.8300050   -0.4049940    2.2459380  
C     4.7288480   -0.5864030    0.0669610  
H     3.2382450   -0.3848500   -2.6088060  
H     4.6108060   -4.3727250   -2.3842200  
H     5.9405430   -4.3608720    0.1315680  
H     6.6645410   -2.1969240    2.8550500  
H     5.3349900    0.4325720    2.2561140  
H     3.3209720   -2.7879180   -3.8538360  
