60


C     4.4647080   -0.2299720   -2.2612330  
C     5.3246040   -1.2593010   -2.5197820  
C     5.8378460   -1.7162370   -1.2580040  
C     5.2551310   -0.9098920   -0.2494880  
N     4.4065800    0.0045450   -0.8805890  
C     5.5073520   -1.1095020    1.1122980  
C     6.3822350   -2.1279230    1.4570010  
O     6.6689580   -2.3575560    2.7691670  
C     6.9858730   -2.9382020    0.4579480  
O     7.8297860   -3.9076220    0.9612380  
C     6.7234290   -2.7458940   -0.8851630  
H     5.5871080   -1.6327270   -3.5005170  
H     5.0786860   -0.4902200    1.8903460  
H     7.3176800   -3.0815730    2.8028020  
H     8.2633260   -4.3730590    0.2307620  
H     7.1873420   -3.3826200   -1.6357220  
H     3.9346850    0.4276340   -2.9362850  
C     0.1706630    0.4647580   -1.3544400  
C    -0.0533800    1.5893450   -0.5946560  
C     1.2523550    1.9704630   -0.0370880  
C     2.2147780    0.9724720   -0.5478630  
N     1.4935690    0.1010490   -1.3454280  
C     3.5514420    0.9394070   -0.2709540  
C     4.0796110    1.9810710    0.6316720  
O     5.2592360    2.0833580    0.9125290  
C     3.0520250    3.0010870    1.2475910  
O     3.4632960    3.8108930    2.0615390  
C     1.6499170    2.9381340    0.8297950  
H     0.9789610    3.6892530    1.2260760  
H    -0.5437000   -0.0944940   -1.9430700  
H     1.9054960   -0.6658630   -1.8583610  
C    -4.1918550   -0.0279850   -0.0428210  
C    -2.8267150    0.0566320   -0.1583800  
C    -2.5282060    1.4665320   -0.2879100  
C    -3.8620980    2.1195630   -0.2359750  
N    -4.8269860    1.2552170   -0.0955520  
C    -4.0163390    3.5496490   -0.3229070  
C    -2.8935210    4.2958040   -0.4187650  
O    -2.8854920    5.6374440   -0.4816840  
C    -1.5245520    3.6745160   -0.4655700  
O    -0.5701340    4.4410700   -0.5781500  
C    -1.3691980    2.1865680   -0.4128910  
H    -2.1177850   -0.7530890   -0.0644750  
H    -5.0051260    3.9927680   -0.2878370  
H    -1.9413400    5.8949300   -0.5594080  
C    -4.0027650   -4.1840800   -1.6626170  
C    -3.7152220   -2.8765270   -1.4320270  
C    -4.7186490   -2.4269460   -0.4816860  
C    -5.5668590   -3.6398820   -0.2603310  
N    -5.1378740   -4.6624630   -0.9488660  
C    -6.7166680   -3.6155300    0.6012090  
C    -7.0185740   -2.4466930    1.2124300  
O    -8.0570420   -2.2811160    2.0442820  
C    -6.1733850   -1.2073450    1.0430170  
O    -6.4818140   -0.2353160    1.7215580  
C    -4.9890600   -1.2329720    0.1238810  
H    -2.9305830   -2.2809970   -1.8741020  
H    -7.3100220   -4.5120840    0.7421500  
H    -7.9945460   -1.3515860    2.3586480  
H    -3.4810880   -4.8706540   -2.3195250  
