60


C     4.8556880   -2.1594700   -1.0986000  
C     4.6617260   -0.9276330   -0.4701440  
C     5.9950620   -0.3796220   -0.2522490  
C     6.9169810   -1.3328820   -0.7478980  
N     6.1850170   -2.3938810   -1.2640870  
C     8.3045720   -1.1791560   -0.6779970  
C     8.7849330   -0.0213840   -0.0857790  
O    10.1246340    0.1924800    0.0038830  
C     7.8814970    0.9465330    0.4272100  
O     8.5035130    2.0426640    0.9853440  
C     6.5109700    0.7817970    0.3558210  
H     6.5773190   -3.1842120   -1.7541190  
H     8.9998370   -1.9173810   -1.0637360  
H    10.2522680    1.0610600    0.4244360  
H     7.8425040    2.7164060    1.2054370  
H     5.8489570    1.5543130    0.7288060  
H     4.1181820   -2.8416060   -1.4951030  
C     0.9006820   -2.9075910    0.7985840  
C     2.1968170   -2.6203270    0.5269830  
C     2.2704090   -1.2131870    0.1813980  
C     0.9008980   -0.7010080    0.2760480  
N     0.1147660   -1.7666870    0.6129190  
C     0.4982530    0.6211760    0.0856090  
C     1.5814760    1.5772540   -0.0772270  
O     1.4445840    2.7991370   -0.0795650  
C     3.0536360    1.0489140   -0.2603430  
O     3.9095270    1.8827150   -0.4879550  
C     3.3452660   -0.4101520   -0.1616730  
H     3.0300780   -3.3013130    0.6026170  
H     0.4410370   -3.8330460    1.1159700  
H    -0.8485650   -1.6726820    0.9034070  
C    -0.8822390    1.0438310    0.1049930  
C    -2.0524930    0.3046430   -0.0069070  
C    -3.1596180    1.2106830    0.0468340  
C    -2.5732660    2.5643340    0.1895220  
N    -1.2078480    2.3893340    0.2429460  
C    -3.2925840    3.7148170    0.2324240  
C    -4.7444120    3.6250150    0.1360520  
O    -5.4742410    4.6046910    0.1345090  
C    -5.3998050    2.1991450    0.0523080  
O    -6.6143530    2.1125790    0.1225970  
C    -4.5199000    1.0131250   -0.0351900  
H    -2.1339970   -0.7420280   -0.2546120  
H    -2.8396200    4.6978610    0.3140150  
H    -0.4883420    3.1034940    0.2248180  
C    -4.3143670   -2.5576580    2.5314720  
C    -5.1298580   -3.3886400    1.8331380  
C    -5.5715240   -2.6715740    0.6532710  
C    -4.9315870   -1.3392820    0.7207530  
N    -4.1328070   -1.3513550    1.8591870  
C    -5.1386060   -0.3148850   -0.1580740  
C    -6.0228430   -0.6137130   -1.3130240  
O    -6.1754860    0.1616810   -2.2381140  
C    -6.7275440   -2.0185380   -1.3880400  
O    -7.5019740   -2.2353880   -2.3072570  
C    -6.4201220   -3.0060470   -0.3567580  
H    -5.4088720   -4.3956430    2.1080090  
H    -6.9115050   -3.9723600   -0.4163810  
H    -3.8121870   -2.7251530    3.4757890  
H    -3.7792190   -0.5051580    2.2812700  
