60


C    -3.8573730   -2.7029030   -0.2561160  
C    -4.3415240   -1.3909000   -0.1780060  
C    -5.7836620   -1.5033870   -0.0218660  
C    -6.0921520   -2.8812350   -0.0159310  
N    -4.8909940   -3.5734690   -0.1608920  
C    -7.3908730   -3.3786340    0.1159900  
C    -8.4114630   -2.4470390    0.2472260  
O    -9.6977930   -2.8670280    0.3798810  
C    -8.1216410   -1.0563610    0.2443680  
O    -9.2361720   -0.2597620    0.3839140  
C    -6.8305610   -0.5754990    0.1121770  
H    -4.8020700   -4.5793700   -0.1834190  
H    -7.6239870   -4.4381600    0.1206830  
H   -10.2568210   -2.0745890    0.4624720  
H    -8.9721740    0.6727270    0.3858180  
H    -6.6123590    0.4875080    0.1117910  
H    -2.8420090   -3.0548600   -0.3690720  
C    -3.5425920   -0.2160320   -0.2388630  
C    -2.1625350   -0.0961890   -0.3900550  
C    -1.8881500    1.2883250   -0.3591520  
C    -3.2382630    1.9409500   -0.1894270  
N    -4.1922250    1.0561540   -0.1218250  
C    -3.3850550    3.3652020   -0.1022640  
C    -2.2577920    4.1124120   -0.1840620  
O    -2.2313430    5.4428580   -0.1086880  
C    -0.8764150    3.5034700   -0.3867610  
O     0.0597380    4.3024890   -0.4901590  
C    -0.7507050    2.0582740   -0.4499350  
H    -1.4418990   -0.8963880   -0.4805400  
H    -4.3644850    3.8096900    0.0322820  
H    -1.2808920    5.6851520   -0.2222070  
C     0.8685660    0.7499320   -1.8176580  
C     2.1651870    0.3423980   -1.7801130  
C     2.7280500    0.8355020   -0.5468580  
C     1.6450180    1.5750230    0.1398690  
N     0.5274790    1.4956270   -0.6907590  
C     1.7577490    2.1489420    1.3632740  
C     3.0399890    2.0620370    2.0514580  
O     3.2310640    2.5039910    3.1728980  
C     4.2395400    1.3564790    1.3177170  
O     5.3420140    1.3673640    1.8346250  
C     3.9730770    0.7185710    0.0106220  
H     2.6706190   -0.2508830   -2.5273480  
H     0.9440570    2.6678250    1.8560130  
H     0.1151270    0.5763020   -2.5743230  
C     5.5036840    0.4886120   -1.9424590  
C     6.5454680   -0.2761940   -2.3502970  
C     6.8021800   -1.2475010   -1.3088490  
C     5.8106700   -0.9773810   -0.2387080  
N     5.0364780    0.0994990   -0.6795410  
C     5.6999110   -1.7087950    0.8964550  
C     6.6240850   -2.8239580    1.0980950  
O     6.5845870   -3.5472640    2.0814920  
C     7.7012310   -3.1087630   -0.0107480  
O     8.4838340   -4.0333250    0.1460260  
C     7.7066510   -2.2560680   -1.2007480  
H     7.0934160   -0.1708470   -3.2755890  
H     4.9707350   -1.5052500    1.6719600  
H     8.4388380   -2.4713080   -1.9731840  
H     5.0295190    1.3274410   -2.4343720  
