62


C     4.9217910   -2.2949400   -1.3154840  
C     6.0327160   -2.9956520   -0.9344800  
C     6.8682760   -2.0975050   -0.1875160  
C     6.2056440   -0.8452030   -0.1476650  
N     5.0088860   -0.9800940   -0.8495010  
C     6.7260190    0.2641000    0.5285660  
C     7.9476540    0.1082510    1.1640010  
O     8.5042330    1.1599290    1.8324160  
C     8.6320420   -1.1363130    1.1274630  
O     9.8354450   -1.1303690    1.8066700  
C     8.1096470   -2.2314910    0.4660310  
H     6.2430550   -4.0286770   -1.1766700  
H     6.2238530    1.2237680    0.5563490  
H     9.3563270    0.8557120    2.1896200  
H    10.2699570   -1.9898530    1.7039390  
H     8.6471560   -3.1776920    0.4555500  
H     4.0814550   -2.5889190   -1.9290360  
C     0.9331680   -1.1923580    0.5670590  
C     0.4976570    0.0425070    0.1070240  
C     1.6327190    0.6599680   -0.5541120  
C     2.7041420   -0.2540770   -0.4459910  
N     2.2462380   -1.3651890    0.2388830  
C     3.9837560   -0.0143040   -0.9771090  
C     4.1756550    1.1959470   -1.6417940  
O     5.3826720    1.4860480   -2.1870820  
C     3.1038580    2.1222740   -1.7620410  
O     3.4492120    3.2600090   -2.4557870  
C     1.8463820    1.8719380   -1.2420330  
H     2.8199160   -2.1616770    0.4787890  
H     5.3079490    2.3555200   -2.6188940  
H     2.6643960    3.8047310   -2.6173380  
H     1.0438070    2.5889810   -1.3926400  
H     0.3968350   -1.9380850    1.1358150  
C    -0.8274800    0.5706960    0.2979360  
C    -2.0274090   -0.0822670    0.4841250  
C    -3.0511380    0.9017850    0.6522980  
C    -2.3808490    2.2192030    0.5654380  
N    -1.0451030    1.9549780    0.2975660  
C    -2.9997300    3.4152590    0.7095470  
C    -4.4421110    3.4244090    0.9420090  
O    -5.0910630    4.4519360    1.0486320  
C    -5.1916560    2.0463170    1.0489940  
O    -6.3834660    2.0424920    1.3099750  
C    -4.4071530    0.8172310    0.8558510  
H    -2.1748950   -1.1504980    0.4239820  
H    -2.4852980    4.3686650    0.6403080  
H    -0.3076910    2.6155970    0.4972530  
C    -4.7760610   -1.3582930    2.0213350  
C    -5.5809040   -2.4467940    1.9418310  
C    -6.4569320   -2.2514680    0.8068940  
C    -6.0914130   -0.9359010    0.2259900  
N    -5.0492410   -0.4338170    1.0065210  
C    -6.6699040   -0.4044810   -0.8784670  
C    -7.7322490   -1.1605490   -1.5385620  
O    -8.2993960   -0.7671740   -2.5465670  
C    -8.1486820   -2.5484060   -0.9273820  
O    -9.0367620   -3.1913110   -1.4662870  
C    -7.4379300   -3.0190140    0.2626290  
H    -5.5791510   -3.2961470    2.6097710  
H    -6.3939900    0.5584950   -1.2925330  
H    -7.7198850   -3.9853430    0.6699480  
H    -4.0034130   -1.1234070    2.7414230  
