60


C    -4.3467710    2.2015020   -2.6410800  
C    -3.5316320    1.2920850   -2.0162290  
C    -4.1736560    0.9111600   -0.7865900  
C    -5.3989750    1.6272300   -0.7337210  
N    -5.4656970    2.4207750   -1.8621790  
C    -6.3344100    1.4696030    0.2938390  
C    -6.0336390    0.5398480    1.2760860  
O    -6.9053110    0.3129090    2.2944640  
C    -4.8197220   -0.1993570    1.2521450  
O    -4.6791260   -1.0585850    2.3155230  
C    -3.8509450   -0.0069400    0.2602550  
H    -2.5941360    0.9205420   -2.4027340  
H    -6.2590340    2.9835750   -2.1261850  
H    -7.2737950    2.0119820    0.3281030  
H    -6.5045790   -0.4036280    2.8243390  
H    -4.3156790   -1.9017630    1.9535500  
H    -4.2263460    2.7108220   -3.5869390  
C     0.2869770    1.4983750   -0.2069960  
C    -1.0630950    1.3694440   -0.0314900  
C    -1.3492060   -0.0342580    0.0930280  
C    -0.0500060   -0.7271420   -0.0029980  
N     0.9185370    0.2587580   -0.1570960  
C     0.1459370   -2.0767260    0.0102310  
C    -1.0614270   -2.8855590    0.2633720  
O    -1.0358800   -4.0941940    0.3928630  
C    -2.4357440   -2.1502310    0.4892650  
O    -3.3691950   -2.8612350    0.8615760  
C    -2.5445050   -0.7025160    0.2802060  
H    -1.7799590    2.1698130    0.0556830  
H     1.8208590    0.0688860   -0.5701490  
C     0.5124880    3.8153610   -1.0063050  
C     1.4430590    4.7929330   -1.0651930  
C     2.6611810    4.2818710   -0.4680540  
C     2.3625630    2.8949580   -0.0366890  
N     1.0325280    2.6482000   -0.4089900  
C     3.2433600    2.1011740    0.6219600  
C     4.5867630    2.6163930    0.8868560  
O     5.4341970    1.9584120    1.4716570  
C     4.9368360    4.0649700    0.3998790  
O     6.0582220    4.5037230    0.5921770  
C     3.8816050    4.8397470   -0.2649690  
H     1.3082110    5.7754060   -1.4940820  
H     3.0152890    1.1069380    0.9848880  
H     4.1184890    5.8549360   -0.5681190  
H    -0.5074270    3.8005600   -1.3649340  
C     4.1518500   -1.6489970    1.9368100  
C     2.8254180   -1.5676770    1.6395150  
C     2.5779370   -2.4450680    0.5141950  
C     3.8824650   -3.0776530    0.1980170  
N     4.7926100   -2.5387160    1.0896570  
C     4.0826450   -4.0073600   -0.7705850  
C     2.9395580   -4.4143240   -1.5777990  
O     3.0009040   -5.2767020   -2.4396440  
C     1.5698310   -3.6812620   -1.3438600  
O     0.6673000   -3.8676470   -2.1390460  
C     1.4464750   -2.7266520   -0.2096920  
H     2.0904550   -0.9771560    2.1649090  
H     5.0436880   -4.4740470   -0.9630770  
H     4.7159920   -1.1253020    2.6970170  
H     5.7739280   -2.7677220    1.1209870  
