60


C    -3.0237810    1.5272350   -0.8700580  
C    -2.9499000    0.2213680   -0.3896290  
C    -4.2967870   -0.1222950    0.0434560  
C    -5.1127640    1.0095380   -0.2100070  
N    -4.3050450    1.9823340   -0.7762720  
C    -6.4724430    1.0692450    0.1074050  
C    -7.0367460   -0.0451390    0.7101650  
O    -8.3610440   -0.0482760    1.0406280  
C    -6.2398230   -1.1826810    0.9885900  
O    -6.9314090   -2.2144450    1.5994190  
C    -4.8937480   -1.2325510    0.6738750  
H    -4.6082680    2.9017540   -1.0593560  
H    -7.0852950    1.9417250   -0.0951160  
H    -8.5549020   -0.9199350    1.4268490  
H    -6.3555570   -2.9909370    1.6595370  
H    -4.3160540   -2.1247600    0.8861850  
H    -2.2366650    2.1519560   -1.2624750  
C     1.1628670    1.6498560   -0.2154170  
C     1.8704780    0.4698690   -0.2373270  
C     0.8831270   -0.5816910   -0.2887330  
C    -0.4235560    0.1345830   -0.2874710  
N    -0.2500510    1.4207350   -0.2120940  
C    -1.7167040   -0.5548200   -0.3648810  
C    -1.6208540   -1.9206150   -0.4533870  
O    -2.6920850   -2.7384670   -0.5842410  
C    -0.3429670   -2.6689840   -0.4045130  
O    -0.4020270   -3.9029180   -0.3879670  
C     0.9596890   -1.9412200   -0.3406230  
H     2.9388940    0.3415280   -0.3298580  
H    -2.3035100   -3.6425040   -0.6079660  
C     4.2313230   -1.9846890    2.6082670  
C     4.9989270   -2.9716520    2.0801900  
C     4.3500420   -3.4166370    0.8636330  
C     3.1257110   -2.5918590    0.7234430  
N     3.1178640   -1.7410110    1.8094450  
C     2.1950440   -2.7283780   -0.2721970  
C     2.4963680   -3.7222420   -1.3291980  
O     1.8328180   -3.8236340   -2.3443110  
C     3.7671200   -4.6316730   -1.1688960  
O     3.9703760   -5.5053850   -1.9963220  
C     4.6600160   -4.3879320   -0.0364420  
H     5.9174490   -3.3631930    2.4921920  
H     5.5397200   -5.0171630    0.0585800  
H     4.3755590   -1.4111400    3.5144510  
H     2.3997550   -1.0550850    1.9872780  
C     4.8792900    3.5288430    1.3669060  
C     3.8952940    2.6493040    1.0286050  
C     2.8641400    3.3893350    0.3405690  
C     3.3251900    4.7946090    0.3204750  
N     4.5622800    4.8059390    0.9386130  
C     2.6263580    5.8469010   -0.1811930  
C     1.3143890    5.5819120   -0.7471540  
O     0.5646040    6.4596640   -1.1465350  
C     0.8462420    4.0860120   -0.8676740  
O    -0.1331680    3.8653790   -1.5547960  
C     1.6512740    3.0141310   -0.2073050  
H     3.8905350    1.5948680    1.2521440  
H     2.9822740    6.8720180   -0.1483580  
H     5.8083720    3.3491500    1.8914590  
H     5.1109470    5.6342710    1.1087600  
