64


C    -6.3671070   -1.4266850    2.9501670  
C    -5.3668880   -0.8393580    2.2188310  
C    -5.4074460   -1.4094590    0.8998050  
C    -6.4807040   -2.3407400    0.8947790  
N    -7.0334980   -2.3421900    2.1596380  
C    -6.8637060   -3.0602700   -0.2408100  
C    -6.1593650   -2.8098700   -1.4080310  
O    -6.4871840   -3.4592980   -2.5573060  
C    -5.0879450   -1.8777910   -1.4432090  
O    -4.4885120   -1.7779290   -2.6783130  
C    -4.6634950   -1.1903790   -0.2999670  
H    -4.6848560   -0.0849650    2.5820680  
H    -7.8444040   -2.8726510    2.4364220  
H    -7.6871870   -3.7671490   -0.2445080  
H    -5.8919440   -3.0939620   -3.2404230  
H    -4.3306810   -0.8204400   -2.8437440  
H    -6.6623280   -1.2690200    3.9779220  
C    -1.0677530   -0.9046850    2.2889540  
C    -2.2194520   -1.2870980    1.6802060  
C    -2.4877000   -0.3340760    0.6265130  
C    -1.3717960    0.6435470    0.6671090  
N    -0.5694040    0.2596260    1.7132000  
C    -1.2076290    1.7388070   -0.1566100  
C    -2.2953060    1.9271590   -1.1000120  
O    -2.4697310    2.9435250   -1.7764510  
C    -3.3416060    0.7766170   -1.3183970  
O    -3.9814070    0.8285220   -2.3664600  
C    -3.5047440   -0.2707080   -0.3019530  
H    -2.8311850   -2.1382350    1.9326100  
H    -0.5387990   -1.3642680    3.1132150  
H     0.3428410    0.6589270    1.8856270  
C     3.2316550    1.0135140    0.1129590  
C     1.8644880    0.8767120   -0.0430600  
C     1.2745210    2.1823140    0.0588500  
C     2.3443700    3.0946850    0.2633880  
N     3.5199620    2.3651850    0.2718870  
C     2.1620210    4.4745970    0.3736180  
C     0.8646750    4.9447680    0.2379000  
O     0.6092960    6.2769510    0.3112040  
C    -0.2288200    4.0614930    0.0207280  
O    -1.4401350    4.7021500   -0.0646470  
C    -0.0635530    2.6736410   -0.0375500  
H     1.3663180   -0.0465660   -0.3022170  
H     4.3978940    2.7108300    0.6308870  
H     2.9803990    5.1710200    0.5239680  
H    -0.3493900    6.3685230    0.1453910  
H    -1.9522140    4.2625930   -0.7855900  
C     4.2817600    0.0223180    0.0881870  
C     4.2562480   -1.3176290    0.4142850  
C     5.5729390   -1.8410220    0.2096850  
C     6.3811390   -0.7656430   -0.2443020  
N     5.5879920    0.3706030   -0.2701350  
C     7.7328720   -0.9201720   -0.5674600  
C     8.2856600   -2.1841140   -0.4202830  
O     9.5990000   -2.3908490   -0.7254930  
C     7.4978230   -3.2684310    0.0507520  
O     8.1941550   -4.4577420    0.1535570  
C     6.1615160   -3.1123540    0.3683490  
H     3.3979670   -1.8500550    0.8008760  
H     5.7969740    1.1761630   -0.8428850  
H     8.3528590   -0.1026330   -0.9209670  
H     9.7882220   -3.3309980   -0.5622180  
H     7.5925860   -5.1615730    0.4377740  
H     5.5776830   -3.9588720    0.7244190  
