60


C    -3.6715180   -0.2078640    0.4478950  
C    -4.1267060   -1.4985580    0.6208670  
C    -5.5469120   -1.4869400    0.4408340  
C    -5.9174910   -0.1463930    0.1526570  
N    -4.7590210    0.6059920    0.1358600  
C    -7.2437420    0.2402320   -0.0731650  
C    -8.2160780   -0.7462370   -0.0130590  
O    -9.5260470   -0.4243470   -0.2221020  
C    -7.8635370   -2.0951130    0.2615290  
O    -8.9430390   -2.9595240    0.2816430  
C    -6.5532870   -2.4736330    0.4844510  
H    -3.5007840   -2.3617590    0.8031390  
H    -4.7281070    1.6142840    0.1363420  
H    -7.5311000    1.2635290   -0.2921860  
H   -10.0392770   -1.2471490   -0.1469350  
H    -8.6312210   -3.8595480    0.4566770  
H    -6.3083870   -3.5131170    0.6942460  
C    -1.3604680   -0.0849580    1.4280540  
C    -2.3254300    0.3291920    0.5555630  
C    -1.7204880    1.3843790   -0.2564020  
C    -0.3289720    1.5382910    0.2268550  
N    -0.1603800    0.5865240    1.2173970  
C     0.5761030    2.4479770   -0.2420790  
C     0.1311480    3.2991040   -1.3707460  
O     0.8841180    4.0484440   -1.9654030  
C    -1.3507950    3.1702830   -1.8743510  
O    -1.7380260    3.9207500   -2.7557720  
C    -2.2047610    2.1464490   -1.2730050  
H    -3.2098640    2.0356390   -1.6664610  
H    -1.4307950   -0.8384760    2.2006010  
H     0.6066560    0.5953740    1.8730710  
C     3.8889160   -0.4743670    0.1513660  
C     4.8575690    0.3907750    0.6193930  
C     4.2719180    1.6958070    0.7384510  
C     2.8622460    1.5561410    0.3035570  
N     2.6984360    0.2312470   -0.0378010  
C     1.9565620    2.5806810    0.2481930  
C     2.4212190    3.9009340    0.7359810  
O     1.6659220    4.8436510    0.8900060  
C     3.9290230    4.0756760    1.1390660  
O     4.3279850    5.1867180    1.4552910  
C     4.7870760    2.8961370    1.1329060  
H     5.8609390    0.1278380    0.9155190  
H     5.8235530    3.0201490    1.4316400  
H     1.8334780   -0.2354490   -0.2787590  
C     7.2789490   -3.2227180   -0.7575600  
C     6.5014820   -2.1200550   -0.5520530  
C     5.1529940   -2.5729520   -0.3383000  
C     5.2015990   -4.0500020   -0.4476980  
N     6.5257610   -4.3779900   -0.6739360  
C     4.1355620   -4.8829380   -0.3317930  
C     2.8285250   -4.2840230   -0.1171710  
O     1.8054840   -4.9302510    0.0387240  
C     2.7262000   -2.7164870   -0.0959380  
O     1.6012380   -2.2327230   -0.0883520  
C     3.9643690   -1.9036970   -0.0938290  
H     6.8399450   -1.0976050   -0.5945180  
H     4.2091520   -5.9644590   -0.3843270  
H     8.3386880   -3.2802130   -0.9679360  
H     6.8648200   -5.3119310   -0.8458500  
