60


C     4.8321130   -0.6913530    0.0292870  
C     5.6399460   -1.7194860    0.4695110  
C     6.9960660   -1.3614290    0.1840010  
C     6.9651890   -0.0852440   -0.4379920  
N     5.6433550    0.3138690   -0.4948040  
C     8.1218290    0.5754890   -0.8678710  
C     9.3355490   -0.0614050   -0.6602820  
O    10.4939020    0.5355370   -1.0625280  
C     9.3880470   -1.3334100   -0.0272710  
O    10.6696440   -1.8311300    0.1121060  
C     8.2442320   -1.9830120    0.3954460  
H     5.2971580   -2.6059300    0.9861910  
H     5.3009540    1.0806920   -1.0538590  
H     8.1025320    1.5498900   -1.3450960  
H    11.2243640   -0.0601430   -0.8219520  
H    10.6367910   -2.6904380    0.5576870  
H     8.3098020   -2.9571120    0.8762110  
C     2.4817160   -1.5782560   -0.1128890  
C     3.3845790   -0.5675930    0.0519960  
C     2.5994030    0.6455300    0.2840110  
C     1.1724580    0.2408600    0.2310430  
N     1.1750080   -1.1133630    0.0000030  
C     0.1094740    1.0978930    0.3543320  
C     0.4207970    2.5115690    0.6480990  
O    -0.4394190    3.3367590    0.9009310  
C     1.9241470    2.9543920    0.6984560  
O     2.1859250    4.1314130    0.8817000  
C     2.9600850    1.9328440    0.5244780  
H     3.9949510    2.2512890    0.5956980  
H     2.6681200   -2.6229690   -0.3207600  
H     0.3443110   -1.6843000   -0.0507480  
C    -2.5002570   -2.1011200    2.1319530  
C    -1.4311700   -1.2991830    1.8973500  
C    -1.8911550   -0.3374930    0.9007110  
C    -3.3195490   -0.7162170    0.6719970  
N    -3.6587440   -1.7574130    1.3784360  
C    -4.1771140    0.0111470   -0.2441140  
C    -3.5978760    1.0315780   -0.9305570  
O    -4.2488680    1.7911500   -1.8215450  
C    -2.1456040    1.3943990   -0.7754830  
O    -1.6996640    2.2400010   -1.5426100  
C    -1.2947360    0.6848520    0.2328170  
H    -0.4594580   -1.3297370    2.3696090  
H    -3.5739600    2.4075770   -2.1829490  
H    -2.5627640   -2.9376330    2.8184590  
C    -7.5276130    0.1328740    2.5893500  
C    -8.5486250   -0.3708990    1.8598550  
C    -7.9738710   -0.6490490    0.5467510  
C    -6.5355510   -0.2500600    0.6882440  
N    -6.2862210    0.2168060    1.8740450  
C    -5.5965590   -0.3636160   -0.4159070  
C    -6.0991600   -0.8104080   -1.5977770  
O    -5.3653760   -0.9691870   -2.7098400  
C    -7.5418730   -1.2063860   -1.7659410  
O    -7.8913580   -1.6118940   -2.8735650  
C    -8.4648620   -1.1025910   -0.6221810  
H    -9.5753310   -0.5285080    2.1594780  
H    -5.9950850   -1.3046070   -3.3865240  
H    -9.4982420   -1.3908040   -0.7895360  
H    -7.5465520    0.4709410    3.6185910  
