60


C    -7.1241510   -1.2349430   -2.4831790  
C    -5.8988220   -1.1279010   -1.8816220  
C    -5.9960720   -0.0943460   -0.8898510  
C    -7.3328660    0.3852080   -0.9334060  
N    -7.9925050   -0.3179340   -1.9192600  
C    -7.8227790    1.3780810   -0.0781890  
C    -6.9452500    1.8815350    0.8670790  
O    -7.3553700    2.8394020    1.7456710  
C    -5.6084260    1.4126080    0.9526200  
O    -4.8613550    2.0386830    1.9318360  
C    -5.0970220    0.4494900    0.0723540  
H    -5.0220100   -1.7038820   -2.1339070  
H    -8.9647780   -0.2073450   -2.1587580  
H    -8.8444560    1.7422140   -0.1197660  
H    -6.5802000    3.0170910    2.3119010  
H    -4.4085970    1.3442170    2.4555820  
H    -7.4550980   -1.8875260   -3.2787470  
C    -1.9459460    0.1355920   -3.0095880  
C    -0.8905770   -0.3208040   -2.3014890  
C    -1.3729530   -0.4365870   -0.9279840  
C    -2.8069540   -0.0118700   -1.0077170  
N    -3.1273210    0.3243550   -2.2204850  
C    -3.6872310    0.0173070    0.1638600  
C    -3.0750420   -0.3237130    1.3320740  
O    -3.7131350   -0.3091520    2.5393170  
C    -1.6543210   -0.7415260    1.4512670  
O    -1.2307640   -0.9902910    2.5819370  
C    -0.7980140   -0.8287550    0.2323970  
H     0.1118220   -0.5256210   -2.6459250  
H    -3.0243230   -0.5970100    3.1833040  
H    -1.9956780    0.3664070   -4.0667210  
C     2.9767130    1.1999820   -0.6384320  
C     3.9307950    0.2976320   -0.2489000  
C     3.1373750   -0.8687670    0.2166580  
C     1.7212060   -0.4414800    0.0305620  
N     1.6473070    0.7594900   -0.4775750  
C     0.5973450   -1.2846260    0.3937310  
C     0.9009030   -2.5012340    0.9294680  
O    -0.0165490   -3.4079530    1.2825850  
C     2.3176900   -2.9506930    1.1420940  
O     2.4895020   -4.0610810    1.6404290  
C     3.4345350   -2.0671140    0.7518530  
H     0.4918290   -4.1678810    1.6456590  
H     4.4388940   -2.4461860    0.8911110  
H     3.1451670    2.1743050   -1.0800400  
C     6.4559760    3.8605000    0.5317730  
C     5.4199890    2.9853350    0.4266230  
C     5.9608540    1.7184160   -0.0116260  
C     7.4206740    1.9278740   -0.1460750  
N     7.6505680    3.2506300    0.1751990  
C     8.3236170    0.9774650   -0.5080350  
C     7.8294990   -0.3609970   -0.7668130  
O     8.5447920   -1.3016840   -1.0762380  
C     6.2817640   -0.6235780   -0.6311620  
O     5.8834640   -1.7563700   -0.8456780  
C     5.3723740    0.4952350   -0.2669460  
H     4.3880860    3.1980650    0.6575070  
H     9.3884690    1.1665880   -0.5994890  
H     6.4494470    4.8969250    0.8417380  
H     8.5611080    3.6814900    0.2121120  
