62


C     2.4923100   -0.3786660   -2.1013300  
C     3.4691060    0.1818840   -1.3137550  
C     2.8319100    0.6576770   -0.1129520  
C     1.4559720    0.3467500   -0.2343200  
N     1.2775980   -0.2667000   -1.4559970  
C     0.5016030    0.7083780    0.7468740  
C     0.9960040    1.3671850    1.8782150  
O     0.1557160    1.6641870    2.9026480  
C     2.3752090    1.6750580    2.0067290  
O     2.6849180    2.3215550    3.1849610  
C     3.2916290    1.3386660    1.0301370  
H     0.3985290   -0.6162670   -1.8053360  
H     0.6694890    2.1545580    3.5685310  
H     3.6394140    2.4812110    3.2302730  
H     4.3447100    1.5819930    1.1449660  
H     2.5733200   -0.8518700   -3.0688560  
C    -1.9319110   -2.9680940    0.0721380  
C    -0.8817920   -2.1304550    0.2372510  
C    -1.4629010   -0.7954890    0.3145210  
C    -2.9296190   -1.0172270    0.1409460  
N    -3.1852120   -2.2967600    0.0196440  
C    -3.8995280    0.0681060    0.1426700  
C    -3.3834240    1.2897030    0.4900670  
O    -4.1352460    2.3769650    0.6780290  
C    -1.9132550    1.5540810    0.6598780  
O    -1.5737930    2.7222800    0.8108110  
C    -0.9314600    0.4250920    0.5883270  
H     0.1638680   -2.3823900    0.3395190  
H    -3.5037510    3.1199930    0.8040990  
H    -1.9205080   -4.0484360   -0.0080880  
C    -7.0229830   -3.0153670    0.9497320  
C    -8.0961180   -2.3871600    0.4017080  
C    -7.6178710   -1.1470700   -0.1666170  
C    -6.1610480   -1.0995920    0.1306760  
N    -5.8709740   -2.2451640    0.8444520  
C    -5.3209240   -0.0740620   -0.2242830  
C    -5.9127100    0.9368060   -1.1400740  
O    -5.2385740    1.7210050   -1.7843220  
C    -7.4697340    0.9702330   -1.3433260  
O    -7.9580270    1.9241580   -1.9306240  
C    -8.2529760   -0.1484890   -0.8382180  
H    -9.1158840   -2.7435100    0.3847010  
H    -9.3238910   -0.1466940   -1.0171000  
H    -6.9750560   -3.9780750    1.4425520  
H    -4.9170230   -2.6158620    0.7970890  
C     5.3235600    0.9724220   -2.7734700  
C     6.6891650    0.8991800   -2.7997370  
C     7.0951340    0.1573940   -1.6391080  
C     5.9130480   -0.2008270   -0.9407540  
N     4.8309920    0.3113700   -1.6511770  
C     5.9321570   -0.9593590    0.2372830  
C     7.1692540   -1.3471810    0.7287180  
O     7.2451760   -2.0838250    1.8781330  
C     8.3631620   -0.9882880    0.0500170  
O     9.5155180   -1.4451580    0.6651820  
C     8.3395780   -0.2498070   -1.1187960  
H     7.3331940    1.3302750   -3.5541450  
H     5.0286090   -1.2511490    0.7606800  
H     8.1868480   -2.2688330    2.0362540  
H    10.2836170   -1.2070240    0.1255190  
H     9.2678880    0.0076220   -1.6256420  
H     4.6310530    1.4569950   -3.4469020  
