64


C    -5.7228790    0.2265980    2.0021550  
C    -4.9698930   -0.0698520    0.8820100  
C    -5.8736290   -0.6997930   -0.0558160  
C    -7.1489660   -0.7530440    0.5598280  
N    -7.0255990   -0.1836350    1.8126310  
C    -8.2702510   -1.3189630   -0.0609550  
C    -8.0978310   -1.8420160   -1.3319960  
O    -9.1550950   -2.4008400   -1.9891880  
C    -6.8251060   -1.8017550   -1.9629970  
O    -6.8135860   -2.3638330   -3.2266270  
C    -5.7219230   -1.2463470   -1.3454320  
H    -7.7840090   -0.0250160    2.4571830  
H    -9.2477510   -1.3580890    0.4088750  
H    -8.8310170   -2.6866910   -2.8608260  
H    -5.9408430   -2.2351220   -3.6265260  
H    -4.7631940   -1.2083060   -1.8542070  
H    -5.4354030    0.7502570    2.9035770  
C    -1.6799470   -0.9535440    3.6500580  
C    -0.6476580   -0.4207000    2.9206280  
C    -1.2161980    0.0804970    1.7014590  
C    -2.6118330   -0.1675220    1.7539510  
N    -2.8621370   -0.7933340    2.9568700  
C    -3.5266450    0.1863720    0.7383140  
C    -2.9608620    0.8059640   -0.3793150  
O    -3.7503560    1.1986670   -1.4199100  
C    -1.5652410    1.0452650   -0.4797930  
O    -1.1679360    1.5992860   -1.6820990  
C    -0.6901600    0.6968740    0.5459670  
H     0.3890380   -0.3779870    3.2231790  
H    -3.7675340   -1.1503000    3.2229400  
H    -3.1589170    1.6448720   -2.0544440  
H    -0.4621370    2.2561200   -1.5359880  
H    -1.6719510   -1.4284300    4.6209520  
C     1.6770900   -0.0953360    0.4182500  
C     2.9272830    0.3864130    0.1641520  
C     2.7733000    1.8267590   -0.0390600  
C     1.3275600    2.1196360    0.1278750  
N     0.7091170    0.9200110    0.4134580  
C     0.7788450    3.3653830    0.0193430  
C     1.6572810    4.4939420   -0.2720100  
O     1.2594170    5.6446470   -0.3713120  
C     3.1897540    4.2034870   -0.4516800  
O     3.9450610    5.1241860   -0.7159110  
C     3.6622550    2.8210670   -0.2898510  
H    -0.2658190    3.5708130    0.2354550  
H     4.7313480    2.6496040   -0.3656180  
H     1.3619310   -1.1148270    0.5907230  
C     4.1572180   -0.3849650    0.1242030  
C     4.5322640   -1.4942870    0.8540090  
C     5.8309100   -1.8937610    0.4039960  
C     6.2147440   -0.9823150   -0.6152530  
N     5.1952480   -0.0590360   -0.7473600  
C     7.4345190   -1.0768640   -1.2951530  
C     8.2879040   -2.1087290   -0.9358740  
O     9.4883380   -2.2499530   -1.5686590  
C     7.9270820   -3.0234010    0.0905320  
O     8.8850610   -3.9893490    0.3356940  
C     6.7219880   -2.9272550    0.7598180  
H     3.9570740   -1.9385150    1.6552240  
H     5.1036950    0.5864290   -1.5171070  
H     7.7308700   -0.3834160   -2.0755030  
H     9.9350160   -3.0171340   -1.1710300  
H     8.5825920   -4.5706830    1.0488130  
H     6.4675240   -3.6409360    1.5410330  
