64


C     5.4582030    0.0011910   -2.4538270  
C     6.6943730   -0.5165540   -2.7302050  
C     7.3650020   -0.7060900   -1.4747660  
C     6.4736480   -0.2794050   -0.4573780  
N     5.3050430    0.1558300   -1.0759490  
C     6.7929640   -0.3467780    0.9038220  
C     8.0413170   -0.8433660    1.2428910  
O     8.4077990   -0.9260220    2.5568870  
C     8.9507810   -1.2682550    0.2382840  
O    10.1540500   -1.7379910    0.7348800  
C     8.6290520   -1.2070690   -1.1044400  
H     7.0896130   -0.7215150   -3.7160750  
H     6.1143600   -0.0154150    1.6808530  
H     9.3147840   -1.2763180    2.5787610  
H    10.7427900   -1.9545090   -0.0029150  
H     9.3395620   -1.5433990   -1.8573960  
H     4.6661660    0.3216170   -3.1163530  
C     1.3791620   -1.6866930   -1.1552000  
C     0.7142620   -0.7619840   -0.3774910  
C     1.6929060    0.2390000   -0.0089110  
C     2.9186010   -0.1498600   -0.5994200  
N     2.7017210   -1.3244760   -1.2861490  
C     4.1107730    0.5807300   -0.4417550  
C     4.0543550    1.7316460    0.3412330  
O     5.1671940    2.4919190    0.5173160  
C     2.8343000    2.1140820    0.9621980  
O     2.9467540    3.2627570    1.7199010  
C     1.6664490    1.3930620    0.8010520  
H     3.4060520   -1.8177630   -1.8139080  
H     4.9132030    3.2449170    1.0796940  
H     2.0671480    3.5581410    1.9983630  
H     0.7522140    1.7111550    1.2952790  
H     0.9953800   -2.5685390   -1.6485260  
C    -1.3573640   -1.9194270    0.4948330  
C    -0.6949190   -0.8290720    0.0092790  
C    -1.6873470    0.2400550   -0.0851460  
C    -2.9648350   -0.3336710    0.3927040  
N    -2.7025830   -1.6426190    0.7242060  
C    -4.1465120    0.3489400    0.4708270  
C    -4.1493080    1.7584240    0.0466330  
O    -5.1314170    2.4763230    0.1197790  
C    -2.8077820    2.3592560   -0.5249230  
O    -2.8206700    3.5095410   -0.9340340  
C    -1.6112520    1.5198310   -0.5406400  
H    -0.6925360    1.9495530   -0.9251260  
H    -0.9638770   -2.9031050    0.7139050  
H    -3.3926230   -2.2872990    1.0790250  
C    -5.3638950   -0.8609790    2.2690010  
C    -6.6042010   -1.4011110    2.4634680  
C    -7.3772410   -1.1287810    1.2838620  
C    -6.5448890   -0.4031400    0.3952000  
N    -5.3038250   -0.2464780    1.0138510  
C    -6.9710950   -0.0006050   -0.8756810  
C    -8.2672150   -0.3219760   -1.2463710  
O    -8.7353990    0.0534370   -2.4718300  
C    -9.1186920   -1.0398950   -0.3647610  
O   -10.3781340   -1.2848900   -0.8791670  
C    -8.6908820   -1.4446180    0.8854010  
H    -6.9385250   -1.9146670    3.3549450  
H    -6.3468320    0.5676050   -1.5542580  
H    -9.6641000   -0.2304790   -2.5248090  
H   -10.9297890   -1.6974900   -0.1984220  
H    -9.3558020   -2.0011550    1.5431380  
H    -4.5134200   -0.7990730    2.9335950  
