60


C    -6.7579500    2.8909360   -0.6704990  
C    -5.5798590    2.1974190   -0.7743440  
C    -5.6423630    1.1282430    0.1814080  
C    -6.8987330    1.2229650    0.8395170  
N    -7.5518960    2.3100100    0.2992080  
C    -7.3155250    0.3209820    1.8244210  
C    -6.4458500   -0.7055590    2.1626840  
O    -6.8007240   -1.6119660    3.1108720  
C    -5.1728220   -0.8200960    1.5434210  
O    -4.3805640   -1.8359920    2.0375090  
C    -4.7695690    0.0889670    0.5676290  
H    -4.7746620    2.4174080   -1.4608290  
H    -8.4754740    2.6203810    0.5585610  
H    -8.2803380    0.3896420    2.3157900  
H    -6.0621580   -2.2426780    3.1915240  
H    -3.8817970   -2.2626650    1.3185120  
H    -7.1033720    3.7578580   -1.2154610  
C    -2.4849020    0.9527630    0.0822160  
C    -1.3097790    0.5562330   -0.5008780  
C    -1.5445780   -0.7885940   -1.0197740  
C    -2.9518200   -1.1159460   -0.6859290  
N    -3.4712250   -0.0151350   -0.0167500  
C    -3.5696950   -2.2836190   -1.0121890  
C    -2.8043890   -3.2985250   -1.7402410  
O    -3.2774320   -4.3696770   -2.0801830  
C    -1.3130460   -2.9725490   -2.1025080  
O    -0.6446810   -3.8038300   -2.6940210  
C    -0.7729190   -1.6630590   -1.7150910  
H    -4.6244160   -2.4677080   -0.8292060  
H     0.2419460   -1.4371050   -2.0236030  
H    -2.7038450    1.8719630    0.6084780  
C    -0.0914650    1.3334320   -0.5578950  
C     0.0840340    2.6925130   -0.5475100  
C     1.4969660    2.9653710   -0.5610950  
C     2.1662970    1.6473550   -0.5875360  
N     1.1562420    0.6944260   -0.6513790  
C     3.5156470    1.4397120   -0.5382140  
C     4.3589310    2.6560920   -0.4907290  
O     5.5769040    2.6091130   -0.4608860  
C     3.6642780    4.0690770   -0.5024690  
O     4.3766080    5.0611790   -0.4608770  
C     2.2101880    4.1272930   -0.5447960  
H    -0.7030550    3.4327880   -0.5764850  
H     1.7397370    5.1054500   -0.5353230  
H     1.3109600   -0.2501860   -0.3233610  
C     3.8074970   -0.8871380   -1.4759640  
C     4.1246120    0.1045700   -0.5888200  
C     5.1624900   -0.4514360    0.2870710  
C     5.3989010   -1.8408950   -0.1756970  
N     4.5418170   -2.0387090   -1.2425330  
C     6.2878730   -2.7036490    0.3785810  
C     7.0660330   -2.2517760    1.5271120  
O     7.8869690   -2.9540760    2.0971640  
C     6.8167630   -0.7914850    2.0521030  
O     7.4336300   -0.4007520    3.0293990  
C     5.8392330    0.0516180    1.3492980  
H     6.4440440   -3.7147260    0.0151380  
H     5.7102270    1.0680650    1.7020540  
H     3.1105330   -0.8525910   -2.3034830  
H     4.5145310   -2.8693310   -1.8136380  
