66


C     0.2244850    0.2235180    0.4275350  
C     1.5774930   -0.0140830    0.2862680  
C     2.2508800    1.2459260    0.3589970  
C     1.2520240    2.2375000    0.5537090  
N     0.0282280    1.5974190    0.5531420  
C     1.5454520    3.5947950    0.7142810  
C     2.8817420    3.9633160    0.6668520  
O     3.2303340    5.2762350    0.8025370  
C     3.8984700    2.9982640    0.4614330  
O     5.1709780    3.5383190    0.4170910  
C     3.6175420    1.6369970    0.2999430  
H     2.0260690   -0.9828220    0.1242950  
H    -0.8303090    2.0034330    0.8953090  
H     0.7822430    4.3514190    0.8640680  
H     4.1958300    5.3228660    0.6876690  
H     5.7879250    2.8629250    0.0798540  
C    -0.8979590   -0.6858870    0.4366310  
C    -0.9618500   -2.0260400    0.7485470  
C    -2.3213290   -2.4407220    0.5756470  
C    -3.0588370   -1.2974340    0.1656520  
N    -2.1813230   -0.2252820    0.1298990  
C    -4.4490130   -1.3109680   -0.0951650  
C    -5.0604790   -2.5625590    0.0589130  
O    -6.4099560   -2.7130730   -0.1702730  
C    -4.3407790   -3.7073790    0.4770130  
O    -5.1253080   -4.8452560    0.5912350  
C    -2.9872360   -3.6667730    0.7471280  
H    -0.1403550   -2.6300880    1.1087890  
H    -2.3314600    0.5079360   -0.5563480  
H    -6.5926160   -3.6684710   -0.1120930  
H    -4.5522690   -5.6205860    0.6824190  
H    -2.4585440   -4.5574590    1.0798680  
C     4.6857270    0.6685090    0.0524950  
C     4.7302670   -0.4316110   -0.7710090  
C     6.0351760   -1.0212250   -0.6602640  
C     6.7692700   -0.2334660    0.2588700  
N     5.9594530    0.8350720    0.6419110  
C     8.0809820   -0.5340000    0.6339300  
C     8.6713250   -1.6518220    0.0593510  
O     9.9497930   -1.9931320    0.3947100  
C     7.9591320   -2.4407120   -0.8803110  
O     8.6824220   -3.5106300   -1.3731840  
C     6.6591310   -2.1390730   -1.2468220  
H     3.9323600   -0.7482770   -1.4281930  
H     6.0471250    1.2598830    1.5574920  
H     8.6452140    0.0650390    1.3415230  
H    10.1762200   -2.7917500   -0.1123190  
H     8.1356080   -4.0090770   -1.9981390  
H     6.1316050   -2.7616530   -1.9668580  
C    -8.2354860    0.3467720    1.5370300  
C    -8.2549570    1.5188030    0.8299890  
C    -7.1055820    1.5047270   -0.0301460  
C    -6.4163740    0.2848730    0.2130460  
N    -7.1109890   -0.3842030    1.2013260  
C    -5.2122100   -0.0797330   -0.4394500  
C    -4.7585470    0.8454460   -1.3866470  
O    -3.6033690    0.6060020   -2.1009640  
C    -5.4337770    2.0638790   -1.6390100  
O    -4.8142270    2.8540620   -2.5967870  
C    -6.5904240    2.4124870   -0.9717480  
H    -8.9901770    2.3072730    0.9154810  
H    -7.0275260   -1.3842600    1.3224680  
H    -3.5387430    1.3172080   -2.7643090  
H    -5.4236630    3.5517220   -2.8789040  
H    -7.0829050    3.3620490   -1.1709100  
H    -8.9300990   -0.0325220    2.2738360  
