64


C     5.3693480   -2.3547780   -0.1577640  
C     6.6488560   -2.7026030    0.1764160  
C     7.3597240   -1.4878410    0.4594960  
C     6.4418700   -0.4194820    0.2831610  
N     5.2205070   -0.9700490   -0.1008890  
C     6.7919950    0.9223360    0.5035820  
C     8.0982570    1.1871740    0.8910390  
O     8.4893510    2.4738420    1.1186280  
C     9.0319510    0.1312750    1.0594710  
O    10.2891430    0.5557110    1.4437080  
C     8.6778720   -1.1902020    0.8555850  
H     7.0431920   -3.7089920    0.2108510  
H     6.0828480    1.7387680    0.4179590  
H     9.4231160    2.4478470    1.3902740  
H    10.8665930   -0.2116210    1.5698630  
H     9.4081840   -1.9836920    1.0020530  
H     4.5308100   -2.9654600   -0.4597430  
C     1.1067890   -1.1784690    1.5482270  
C     2.4397800   -1.3667850    1.3239780  
C     2.8206170   -0.5077130    0.2332880  
C     1.6680210    0.1991070   -0.1805440  
N     0.6277410   -0.2302390    0.6405480  
C     1.6674300    1.1510050   -1.2028430  
C     2.8781530    1.3894300   -1.8362040  
O     2.9491270    2.3027720   -2.8418780  
C     4.0532810    0.6815790   -1.4662100  
O     5.1569000    0.9959790   -2.2214870  
C     4.0378650   -0.2602840   -0.4404660  
H     3.0868080   -2.0367610    1.8717530  
H     0.7787650    1.6931110   -1.5051800  
H     3.8756430    2.3301450   -3.1404960  
H     5.9639380    0.6623890   -1.7928450  
H     0.4310300   -1.6225190    2.2643870  
C    -1.1675940    1.3030350    1.3111560  
C    -2.4942140    1.4469780    1.0799590  
C    -2.8966360    0.3977500    0.1614020  
C    -1.6871570   -0.3922730   -0.1364160  
N    -0.6606080    0.2195980    0.5785350  
C    -1.6274700   -1.4996670   -0.9191670  
C    -2.8620500   -1.9537330   -1.5351290  
O    -2.9549860   -2.9671180   -2.2102680  
C    -4.1659350   -1.0946760   -1.3179900  
O    -5.1714820   -1.3940880   -1.9325520  
C    -4.1069100    0.0718510   -0.3934580  
H    -3.1412180    2.1954830    1.5113910  
H    -0.7136500   -2.0570550   -1.0908510  
H    -0.4942220    1.8673420    1.9413720  
C    -5.2556150    2.2655490   -0.3573120  
C    -6.5011920    2.7500600   -0.0900040  
C    -7.3336140    1.6279090    0.2516400  
C    -6.5317410    0.4643550    0.1573400  
N    -5.2444850    0.8710740   -0.2202370  
C    -7.0193760   -0.8069610    0.4779960  
C    -8.3455570   -0.9058410    0.8706940  
O    -8.8686810   -2.1265170    1.1846530  
C    -9.1667330    0.2481560    0.9526690  
O   -10.4611960   -0.0112270    1.3593460  
C    -8.6767360    1.5059250    0.6517010  
H    -6.8025380    3.7872740   -0.1483480  
H    -6.4216180   -1.7065020    0.4050500  
H    -9.8065880   -1.9910400    1.4031780  
H   -10.9798870    0.8060550    1.3266590  
H    -9.3163000    2.3824680    0.7347540  
H    -4.3620710    2.7722360   -0.6907430  
