66


C     0.4531360    1.4199830   -0.1828170  
C     1.6828590    0.7968020   -0.1733350  
C     1.4578840   -0.6184230   -0.0773350  
C     0.0531640   -0.8046050   -0.0213180  
N    -0.5370960    0.4472970   -0.0403960  
C    -0.5795350   -2.0679810   -0.0028920  
C     0.3032270   -3.1517560   -0.1022730  
O    -0.1746740   -4.4350290   -0.1575250  
C     1.7105730   -2.9940520   -0.1297640  
O     2.3929470   -4.1931600   -0.1593770  
C     2.3301750   -1.7437180   -0.0796510  
H     2.6372270    1.3004130   -0.2223520  
H    -1.4890550    0.5775490   -0.3571560  
H     0.6227130   -4.9976400   -0.2302190  
H     3.1166150   -4.1076680   -0.8194700  
C     0.1090170    2.8200740   -0.2819340  
C     0.7915130    3.8730940   -0.8550340  
C     0.0032560    5.0536320   -0.6704400  
C    -1.1708820    4.6653660    0.0285060  
N    -1.1040240    3.2966420    0.2209230  
C    -2.1665020    5.5757010    0.3981230  
C    -1.9809220    6.9050080    0.0475650  
O    -2.9208310    7.8356800    0.3865580  
C    -0.8220040    7.3097810   -0.6664780  
O    -0.7865400    8.6631520   -0.9494060  
C     0.1612490    6.4080470   -1.0288350  
H     1.7283680    3.7923860   -1.3889960  
H    -1.6483600    2.7974900    0.9091400  
H    -3.0631230    5.2840240    0.9355980  
H    -2.6096310    8.6931180    0.0487350  
H     0.0247330    8.8688940   -1.4367060  
H     1.0416970    6.7430250   -1.5738520  
C    -2.0300560   -2.2134940    0.0751220  
C    -3.0002970   -1.3265160    0.5260300  
C    -4.2718350   -1.9641000    0.3894690  
C    -4.0280000   -3.2535860   -0.1571530  
N    -2.6710910   -3.3707080   -0.3441880  
C    -5.0561100   -4.1675300   -0.4220520  
C    -6.3528770   -3.7752640   -0.1303560  
O    -7.3937930   -4.6277020   -0.3688770  
C    -6.6156340   -2.4899940    0.4160910  
O    -7.9581340   -2.2476630    0.6506610  
C    -5.6009800   -1.5887530    0.6761640  
H    -2.8167350   -0.3662540    0.9862690  
H    -2.1659160   -4.2017950   -0.6156030  
H    -4.8741080   -5.1526490   -0.8391150  
H    -8.2070140   -4.1678170   -0.0985670  
H    -8.0631050   -1.3605320    1.0244920  
H    -5.8295280   -0.6103270    1.0952410  
C     4.8352550    0.6332500    2.6790190  
C     6.0629080    0.2950940    2.1711780  
C     5.8302050   -0.5963050    1.0713970  
C     4.4225380   -0.7573770    0.9559230  
N     3.8471910   -0.0069510    1.9595280  
C     3.8035410   -1.5892910   -0.0081340  
C     4.6891190   -2.2669270   -0.8462200  
O     4.1973290   -3.1263690   -1.8153480  
C     6.0927890   -2.1234700   -0.7497740  
O     6.7909650   -2.8809130   -1.6755460  
C     6.6757590   -1.2968420    0.1899320  
H     7.0213100    0.6316520    2.5417470  
H     2.8535080    0.1244680    2.0728610  
H     4.9678890   -3.4790530   -2.2970550  
H     7.7397560   -2.7096380   -1.5851710  
H     7.7578790   -1.2032240    0.2524160  
H     4.5766690    1.2805680    3.5052190  
