62


C     4.8378210   -0.3635080    0.5874630  
C     5.7315010   -0.1733680    1.6113810  
C     7.0201510   -0.5596980    1.1134630  
C     6.8448840   -0.9685300   -0.2347890  
N     5.5023260   -0.8332670   -0.5372720  
C     7.9051110   -1.4054740   -1.0376650  
C     9.1678300   -1.4321730   -0.4668720  
O    10.2346910   -1.8550180   -1.2009970  
C     9.3644370   -1.0209850    0.8802450  
O    10.6780540   -1.1013450    1.2969380  
C     8.3157170   -0.5879370    1.6686160  
H     5.4952510    0.2266010    2.5876480  
H     5.0488700   -1.1625070   -1.3761580  
H     7.7755270   -1.7177200   -2.0686210  
H    11.0216570   -1.7938720   -0.6322910  
H    10.7490580   -0.7981570    2.2141200  
H     8.4903830   -0.2766370    2.6963850  
C     2.5539090   -0.7629710    1.4761790  
C     1.2758960   -0.3693150    1.2428860  
C     1.2997940    0.5295870    0.1118110  
C     2.7210230    0.6353430   -0.2981260  
N     3.4459720   -0.1842950    0.5692420  
C     3.1775420    1.3880800   -1.3300790  
C     2.2054170    2.1407390   -2.1169270  
O     2.5141760    2.8227960   -3.0804880  
C     0.6964220    2.0712520   -1.6959330  
O    -0.1060230    2.7851740   -2.2700540  
C     0.3089280    1.1874740   -0.5689170  
H     0.4024090   -0.6786840    1.7962840  
H     4.2246720    1.4499530   -1.6055150  
H     2.9448870   -1.4387200    2.2247980  
C    -2.1950330    2.0435350    3.0528760  
C    -1.1253790    1.9125700    2.2341820  
C    -1.6645360    1.4026680    0.9774700  
C    -3.1306730    1.2936100    1.2345720  
N    -3.4315860    1.6672340    2.4445430  
C    -4.0600140    0.8310270    0.2108430  
C    -3.5273300    0.5491520   -1.0149700  
O    -4.2581280    0.1509320   -2.0718910  
C    -2.0628720    0.6104710   -1.2814620  
O    -1.6728270    0.2308050   -2.3839300  
C    -1.1178120    1.0962980   -0.2241690  
H    -0.0897340    2.1369530    2.4445960  
H    -3.6043970   -0.0132590   -2.7874480  
H    -2.2143440    2.3980230    4.0764110  
C    -6.1861050    1.6484860    1.1925290  
C    -7.4717590    1.2141830    1.3127560  
C    -7.5452390   -0.0889720    0.7083790  
C    -6.2529440   -0.3961520    0.2153250  
N    -5.4220850    0.6928390    0.5132470  
C    -5.9538800   -1.6263980   -0.3787110  
C    -6.9844780   -2.5477110   -0.5055340  
O    -6.7391430   -3.7604740   -1.0875730  
C    -8.2862750   -2.2476280   -0.0369800  
O    -9.2056640   -3.2619080   -0.2339600  
C    -8.5741130   -1.0361540    0.5685540  
H    -8.2799380    1.7566000    1.7843070  
H    -4.9705600   -1.8787450   -0.7522350  
H    -7.5785290   -4.2514770   -1.0886170  
H   -10.0714400   -2.9783150    0.0945290  
H    -9.5762250   -0.8299380    0.9399490  
H    -5.7186630    2.5596270    1.5287810  
