62


C     4.2126670    0.3805490   -0.1773580  
C     4.9614720    1.4478560   -0.6362890  
C     6.3365460    1.1628030   -0.3724160  
C     6.3822890   -0.1077270    0.2632520  
N     5.0857620   -0.5800610    0.3356330  
C     7.5777990   -0.6974300    0.6881210  
C     8.7526400    0.0022220    0.4575550  
O     9.9457560   -0.5253040    0.8524110  
C     8.7289600    1.2670480   -0.1931220  
O     9.9802120    1.8291730   -0.3548980  
C     7.5470530    1.8479340   -0.6092420  
H     4.5645800    2.3106730   -1.1538830  
H     4.7862670   -1.3285290    0.9427470  
H     7.6181500   -1.6641450    1.1795340  
H    10.6395560    0.1089340    0.6013900  
H     9.8962040    2.6878230   -0.7951820  
H     7.5530300    2.8179320   -1.1022810  
C     1.8299920    1.1517610   -0.0808660  
C     2.7809720    0.1718040   -0.1796800  
C     2.0658640   -1.0924710   -0.2823110  
C     0.6834260   -0.8102670   -0.2281420  
N     0.5480880    0.5984200   -0.1085390  
C    -0.2849100   -1.8112060   -0.3240550  
C     0.1573630   -3.1208730   -0.4796840  
O    -0.7558330   -4.1247570   -0.5740080  
C     1.5387400   -3.4168510   -0.5551210  
O     1.8230150   -4.7529990   -0.7298120  
C     2.4944970   -2.4166560   -0.4606840  
H    -1.3419090   -1.5932030   -0.2808230  
H    -0.2685620   -4.9575470   -0.6970350  
H     2.7769740   -4.8747210   -0.8470380  
H     3.5505350   -2.6556920   -0.5577700  
H     1.9602380    2.2131020    0.0548290  
C    -0.5947630    1.3477630   -0.0269190  
C    -0.7007640    2.7275960    0.0150440  
C    -2.0934730    2.9889020    0.1024210  
C    -2.7341620    1.6231190    0.1052130  
N    -1.8400450    0.6753720    0.0291110  
C    -4.1672490    1.4458430    0.1717430  
C    -4.8978430    2.5986040    0.2428270  
O    -6.2200450    2.6289150    0.3545380  
C    -4.2785170    3.9926890    0.2439460  
O    -5.0890650    4.9256330    0.3172880  
C    -2.8485310    4.1275240    0.1675440  
H     0.0874390    3.4635700   -0.0278650  
H    -6.4392690    3.5955000    0.3772670  
H    -2.4287300    5.1278970    0.1654400  
C    -3.9493310   -2.3071910    2.6302000  
C    -3.6936750   -1.0617010    2.1677450  
C    -4.5557450   -0.9036210    0.9998450  
C    -5.2842250   -2.2081560    0.9137640  
N    -4.9329830   -3.0191780    1.8698000  
C    -6.2660130   -2.4661050   -0.1082690  
C    -6.5123640   -1.4825090   -1.0017890  
O    -7.3908080   -1.5828210   -2.0143400  
C    -5.7910360   -0.1616730   -0.9522660  
O    -6.0352460    0.6412350   -1.8482160  
C    -4.8047300    0.1144290    0.1387130  
H    -2.9938820   -0.3347180    2.5513360  
H    -6.7755580   -3.4225570   -0.1432870  
H    -7.3270050   -0.7291030   -2.4963430  
H    -3.5053830   -2.8037400    3.4849050  
