62


C    -4.9926280   -0.1463640   -0.1597250  
C    -5.5431620   -1.4377510   -0.1099290  
C    -6.9131880   -1.3132230    0.2088120  
C    -7.1821160    0.0844210    0.3530190  
N    -6.0126970    0.7543660    0.1261240  
C    -8.4525470    0.5762620    0.6749450  
C    -9.4652540   -0.3511380    0.8574150  
O   -10.7169670    0.0664290    1.1724660  
C    -9.2150790   -1.7539170    0.7202950  
O   -10.3343270   -2.5283030    0.9360670  
C    -7.9674920   -2.2390250    0.4030200  
H    -4.9961560   -2.3608330   -0.2250350  
H    -5.8301590    1.7463780    0.2159960  
H    -8.6638960    1.6340960    0.7870410  
H   -11.2778110   -0.7241110    1.2637180  
H   -10.1079650   -3.4661390    0.8472390  
H    -7.7968880   -3.3086600    0.3028450  
C    -1.4218590   -2.1245470   -1.9739690  
C    -2.6888850   -1.8078170   -1.5966520  
C    -2.6430270   -0.5151060   -0.9532090  
C    -1.2471230   -0.0992620   -0.9803070  
N    -0.5469390   -1.1218130   -1.5678160  
C    -0.7274200    1.1103190   -0.5123870  
C    -1.7253420    2.0906940   -0.1113510  
O    -1.4833450    3.2550820    0.1994500  
C    -3.2418120    1.6708020   -0.0651510  
O    -4.0351790    2.5509180    0.2422600  
C    -3.6437290    0.2827370   -0.3981530  
H    -3.5709430   -2.3931740   -1.7996500  
H    -1.0489400   -2.9890450   -2.5051640  
H     0.4073220   -1.0201720   -1.8807920  
C     0.6813330    1.4116400   -0.4495390  
C     1.7943160    0.5823580   -0.5188860  
C     2.9685440    1.3839290   -0.3415870  
C     2.4856530    2.7700830   -0.1533020  
N     1.1174320    2.7228330   -0.2632250  
C     3.2776610    3.8493060    0.0926320  
C     4.7035010    3.6301430    0.2065580  
O     5.5125860    4.5141530    0.4551820  
C     5.2530580    2.1648190    0.0154510  
O     6.4592370    2.0006530    0.1249320  
C     4.3139720    1.0607590   -0.2955920  
H     1.7916950   -0.4963350   -0.5351850  
H     2.8891760    4.8538160    0.2257200  
H     0.4581780    3.4670960   -0.0664560  
C     4.3023830   -1.0991570   -1.5837040  
C     4.8163120   -0.2789650   -0.5897760  
C     5.8882840   -1.0381520    0.0334070  
C     5.9459510   -2.2945800   -0.6184010  
N     4.9685390   -2.2986730   -1.5996810  
C     6.8457920   -3.3057960   -0.2619140  
C     7.7157410   -3.0416390    0.7839140  
O     8.6247450   -3.9811910    1.1720970  
C     7.6715300   -1.7915250    1.4554360  
O     8.5991880   -1.6732470    2.4736150  
C     6.7768980   -0.8010950    1.1006900  
H     4.8411180   -3.0259290   -2.2861020  
H     6.8868400   -4.2644330   -0.7690280  
H     9.1522810   -3.5858560    1.8881190  
H     8.6219950   -0.7540370    2.7795140  
H     6.7883020    0.1573080    1.6077000  
H     3.5424100   -0.8781800   -2.3192040  
