62


C     5.7353950   -2.3403290    2.6916720  
C     6.9110600   -1.6533060    2.8255540  
C     6.9305850   -0.6403670    1.8057750  
C     5.7188590   -0.7599920    1.0800270  
N     4.9893890   -1.7848670    1.6611360  
C     5.3939140    0.0530030   -0.0277540  
C     6.3448200    1.0112840   -0.3881530  
O     6.0825150    1.8637900   -1.4138200  
C     7.5602230    1.1450220    0.3317200  
O     8.3764640    2.1518320   -0.1470380  
C     7.8601280    0.3438110    1.4173270  
H     7.6767800   -1.8417740    3.5655630  
H     4.2032610   -2.2373600    1.2181870  
H     6.8883200    2.3863090   -1.5712000  
H     9.2439420    2.0973900    0.2803050  
H     8.7979910    0.4716020    1.9539210  
H     5.3467510   -3.1761550    3.2561990  
C     1.2790130    0.4070770    1.3474220  
C     0.5783750    0.1560050    0.1909820  
C     1.5859690   -0.0916280   -0.8488380  
C     2.9015820    0.0406490   -0.1832680  
N     2.6331810    0.3370600    1.1462580  
C     4.1253300   -0.0869030   -0.7724690  
C     4.1214130   -0.4077970   -2.2182550  
O     5.1340280   -0.6575610   -2.8453080  
C     2.7401510   -0.4622560   -2.9646970  
O     2.7356530   -0.6266070   -4.1741120  
C     1.5078430   -0.3234370   -2.1844240  
H     0.5681060   -0.4224010   -2.7129120  
H     0.8828870    0.6051130    2.3343730  
H     3.3444030    0.4244760    1.8577290  
C    -2.5882470    2.6652760    2.0525080  
C    -1.3803720    2.2398440    1.6095940  
C    -1.6655920    1.0754120    0.7762900  
C    -3.1464140    0.9674120    0.8038620  
N    -3.6738280    1.8841810    1.5669370  
C    -3.8774230   -0.0745500    0.0745420  
C    -3.0798370   -0.9559290   -0.5943670  
O    -3.5765010   -2.0036790   -1.3205080  
C    -1.6026370   -0.8898820   -0.6366400  
O    -1.0165100   -1.7570130   -1.2935490  
C    -0.8759870    0.1827740    0.1129490  
H    -0.4114630    2.6787180    1.8004430  
H    -2.7788170   -2.4460340   -1.6928000  
H    -2.8066380    3.5085720    2.6964540  
C    -7.2034410    2.9004870   -0.6382740  
C    -5.9765690    2.3049230   -0.5132410  
C    -6.1983670    0.9421390   -0.1214930  
C    -7.6063060    0.7690890   -0.0369070  
N    -8.1913750    1.9794660   -0.3429960  
C    -8.2148850   -0.4494980    0.2806070  
C    -7.3793220   -1.5340990    0.4893730  
O    -7.9019930   -2.7563600    0.7876260  
C    -5.9700050   -1.4053250    0.3906540  
O    -5.2855440   -2.5754410    0.6538470  
C    -5.3482890   -0.1770300    0.1190290  
H    -5.0245150    2.7906960   -0.6600400  
H    -9.1834500    2.1479590   -0.3925900  
H    -9.2912090   -0.5722220    0.3482390  
H    -7.1331910   -3.3523620    0.8698810  
H    -4.6346010   -2.7115870   -0.0676990  
H    -7.4608330    3.9152260   -0.9071520  
