64


C     0.1985600    1.5714460   -0.1317300  
C     0.6331710    2.8726040   -0.0305430  
C     2.0550340    2.8844770   -0.2281320  
C     2.4543320    1.5464080   -0.4514080  
N     1.3047430    0.7590790   -0.4548540  
C     3.7924690    1.1364490   -0.6230870  
C     4.7367890    2.1691180   -0.5932770  
O     6.0634480    1.8896780   -0.7711520  
C     4.3521600    3.5202780   -0.3960560  
O     5.4171150    4.4040480   -0.4050430  
C     3.0339950    3.8956420   -0.2172690  
H    -0.0052910    3.7331720    0.1151370  
H     1.3523100   -0.2151020   -0.1751660  
H     6.5326510    2.7423610   -0.7763780  
H     5.0823800    5.3117480   -0.3614620  
H     2.7698150    4.9384990   -0.0554120  
C    -3.2968940    2.4168210    2.5543810  
C    -2.0685970    2.4309890    1.9489280  
C    -2.1100430    1.4719990    0.8797800  
C    -3.4069130    0.9005510    0.8879890  
N    -4.1195390    1.5142080    1.9017990  
C    -3.8161360   -0.1335150    0.0172350  
C    -2.8508400   -0.5746800   -0.8921110  
O    -3.1821430   -1.5130100   -1.8185400  
C    -1.5492470   -0.0193160   -0.9178880  
O    -0.7421260   -0.5546390   -1.9036070  
C    -1.1465160    1.0021620   -0.0521570  
H    -1.2243640    3.0399100    2.2369730  
H    -5.0152120    1.1956490    2.2385210  
H    -2.3804660   -1.6964340   -2.3390250  
H     0.0737880   -0.0231270   -1.9564540  
H    -3.6669950    2.9851510    3.3960060  
C     3.4892480   -1.1610100   -1.6543200  
C     4.1461750   -0.2815420   -0.8153920  
C     5.1794630   -1.0533060   -0.1565210  
C     5.0890850   -2.3810990   -0.6445070  
N     4.0548600   -2.4137530   -1.5590870  
C     5.9286030   -3.4133780   -0.2059120  
C     6.8801900   -3.0977610    0.7497650  
O     7.7291680   -4.0612630    1.2132940  
C     6.9825720   -1.7740470    1.2548120  
O     7.9789600   -1.6151970    2.2019600  
C     6.1515220   -0.7602150    0.8204580  
H     3.7593210   -3.2259140   -2.0775270  
H     5.8579120   -4.4295780   -0.5802340  
H     8.3119950   -3.6372540    1.8665590  
H     8.0072850   -0.6884780    2.4819490  
H     6.2623860    0.2485560    1.2065360  
H     2.6811420   -0.9766600   -2.3478540  
C    -7.7648390    1.7284690   -0.4281560  
C    -8.5602870    0.6356530   -0.2867200  
C    -7.6936800   -0.5037390   -0.0672490  
C    -6.3094690    0.0242900   -0.0886780  
N    -6.4248420    1.3900600   -0.2908470  
C    -5.1708300   -0.7182900    0.0491680  
C    -5.3631710   -2.1680000    0.2888260  
O    -4.4429110   -2.9242110    0.5413290  
C    -6.8255690   -2.7537430    0.2667770  
O    -6.9702750   -3.9609920    0.3887050  
C    -7.9446320   -1.8303810    0.1062200  
H    -9.6394100    0.6167220   -0.3329330  
H    -8.9486470   -2.2435720    0.1076670  
H    -8.0415790    2.7580930   -0.6140570  
H    -5.6397130    2.0037690   -0.4468570  
