62


C     5.1042220   -2.3756060   -0.5954180  
C     4.7817620   -1.0443420   -0.3657530  
C     6.0516580   -0.3449950   -0.2217700  
C     7.0757740   -1.3114330   -0.3856470  
N     6.4608290   -2.5289000   -0.6252420  
C     8.4391890   -1.0193430   -0.2795160  
C     8.7903020    0.2890900    0.0132980  
O    10.1053780    0.6363650    0.1283860  
C     7.7849460    1.2704850    0.1994380  
O     8.2803130    2.5280110    0.4945750  
C     6.4384880    0.9732650    0.0928320  
H     6.9399860   -3.4052770   -0.7630730  
H     9.2127120   -1.7695650   -0.4088490  
H    10.1317070    1.5879290    0.3289610  
H     7.5434400    3.1529360    0.5630840  
H     5.6965510    1.7521130    0.2263010  
H     4.4412340   -3.2150410   -0.7243390  
C     1.1363880   -3.0856860    0.9069550  
C     0.1973400   -2.1127710    0.8006080  
C     0.9087310   -0.9545180    0.2885660  
C     2.3266290   -1.4176470    0.1636600  
N     2.4407430   -2.6658360    0.5288290  
C     3.4142120   -0.5449040   -0.2819910  
C     3.0171150    0.7245730   -0.6186280  
O     3.8532720    1.6527110   -1.1361720  
C     1.6161400    1.2136760   -0.5318010  
O     1.3895570    2.3444480   -0.9658780  
C     0.5317860    0.3221000   -0.0096330  
H    -0.8513240   -2.1722550    1.0533360  
H     3.2687350    2.4212830   -1.3311350  
H     1.0023320   -4.1052070    1.2495430  
C    -0.8217650    0.8303720    0.1106030  
C    -1.9914940    0.1516170   -0.1092860  
C    -3.0555410    1.0969620    0.1452990  
C    -2.3415880    2.3436060    0.5277280  
N    -1.0497650    2.1954270    0.5162950  
C    -3.0521430    3.5510910    0.8686990  
C    -4.3990620    3.5295490    0.7630250  
O    -5.1864040    4.5934910    1.0045960  
C    -5.1379250    2.3041950    0.3104840  
O    -6.3613100    2.4391830    0.1534300  
C    -4.4224710    1.0172770    0.0845670  
H    -2.1085040   -0.8585980   -0.4696570  
H    -2.5081960    4.4413770    1.1629930  
H    -6.1011940    4.2987390    0.8100160  
C    -4.0497410   -3.0028440    2.0308630  
C    -3.9124320   -1.6781660    1.6989700  
C    -4.8130080   -1.4129230    0.6117820  
C    -5.4879810   -2.6342970    0.3395850  
N    -4.9897840   -3.5855190    1.2062070  
C    -6.4903710   -2.7548380   -0.6251610  
C    -6.8467600   -1.6025210   -1.3112410  
O    -7.8268020   -1.6475620   -2.2509830  
C    -6.2118640   -0.3607030   -1.0516470  
O    -6.6751000    0.6680240   -1.8409040  
C    -5.1633080   -0.2403190   -0.1290340  
H    -3.2489180   -0.9771190    2.1830320  
H    -5.3059560   -4.5408900    1.2628400  
H    -7.0043700   -3.6880710   -0.8315300  
H    -7.9267750   -0.7308350   -2.5725990  
H    -6.7973890    1.4470850   -1.2566960  
H    -3.5528390   -3.5821730    2.7961370  
