62


C     3.0691280   -3.7586300   -2.6304330  
C     4.1149990   -4.3902210   -2.0103980  
C     4.4441330   -3.6162950   -0.8466610  
C     3.5502200   -2.5142210   -0.8135590  
N     2.7314380   -2.6224660   -1.9177810  
C     3.5973780   -1.5084250    0.1794690  
C     4.5690590   -1.6697090    1.1719990  
O     4.6339280   -0.7835590    2.2040550  
C     5.4628010   -2.7701210    1.1540400  
O     6.3521470   -2.7770940    2.2136710  
C     5.4175610   -3.7332460    0.1643910  
H     4.6003780   -5.2967510   -2.3449240  
H     1.9567860   -2.0098400   -2.1213960  
H     5.4054420   -1.0279560    2.7442790  
H     6.9790820   -3.5069690    2.1039940  
H     6.1184470   -4.5657790    0.1731680  
H     2.5292710   -4.0193970   -3.5297870  
C    -0.8532600   -0.9621150    0.0463710  
C     0.4050230   -1.5235040    0.0944410  
C     1.3227290   -0.4254060    0.1059910  
C     0.4467540    0.7903360    0.0548710  
N    -0.8149540    0.4710040    0.0180490  
C     0.9864570    2.1373980    0.0505750  
C     2.3447650    2.2218910    0.1216130  
O     3.0116190    3.3725820    0.1811470  
C     3.2622780    1.0097150    0.1480870  
O     4.4662620    1.2680340    0.1138730  
C     2.6937620   -0.3436170    0.1687190  
H     0.6566180   -2.5721800    0.1567220  
H     3.9637820    3.1056720    0.1741240  
C    -2.5049710    3.8024620    2.3381820  
C    -1.5042930    2.9802670    1.9462090  
C    -0.9214680    3.6205070    0.7696750  
C    -1.7332500    4.8651000    0.6019980  
N    -2.6529310    4.9681340    1.5188600  
C    -1.4688060    5.8120750   -0.4509150  
C    -0.4533590    5.5364740   -1.2990300  
O    -0.0979180    6.3184190   -2.3331460  
C     0.3707570    4.2821910   -1.1746120  
O     1.2097920    4.0795960   -2.0474300  
C     0.1228640    3.3287450   -0.0468320  
H    -1.1944380    2.0439130    2.3846670  
H    -2.0752730    6.7062100   -0.5430970  
H     0.6385880    5.8412190   -2.7750040  
H    -3.1784430    3.6780820    3.1780920  
C    -2.1471120   -1.5574200    0.0357540  
C    -2.5703820   -2.8879420    0.0439890  
C    -3.9849810   -2.8826270    0.0306330  
C    -4.4013050   -1.5111590    0.0147800  
N    -3.2722210   -0.7425540    0.0161530  
C    -5.7511350   -1.1355580    0.0007590  
C    -6.6935010   -2.1493240    0.0021320  
O    -8.0168160   -1.8456210   -0.0108130  
C    -6.2971660   -3.5245410    0.0169870  
O    -7.3639710   -4.3975140    0.0157980  
C    -4.9729420   -3.8971480    0.0307150  
H    -1.9204290   -3.7521170    0.0579010  
H    -3.1980620    0.2657610    0.0200040  
H    -6.0738730   -0.1001250   -0.0107210  
H    -8.5111280   -2.6841720   -0.0062290  
H    -7.0406120   -5.3106660    0.0320040  
H    -4.6922340   -4.9480370    0.0423790  
