60


C    -4.1353280    1.4790610   -0.8858300  
C    -5.2220470    1.9938910   -0.2462800  
C    -5.8041960    0.9389130    0.5394550  
C    -5.0226040   -0.2233720    0.3264280  
N    -3.9976570    0.1207230   -0.5678360  
C    -5.2710800   -1.4224200    1.0017870  
C    -6.3473960   -1.4573230    1.8787540  
O    -6.6310290   -2.6122840    2.5534920  
C    -7.1515760   -0.3113050    2.0844040  
O    -8.1848810   -0.4988780    2.9839810  
C    -6.8890810    0.8810740    1.4301520  
H    -5.5668100    3.0165320   -0.3163410  
H    -4.6782390   -2.3157320    0.8596260  
H    -7.4137050   -2.4368140    3.1033010  
H    -8.6983700    0.3189320    3.0579640  
H    -7.5050020    1.7590020    1.6159200  
H    -3.4170090    1.9526870   -1.5357830  
C     0.2188170    0.9524810   -1.0595430  
C     0.6714780   -0.2621180   -1.5058230  
C    -0.5013500   -1.1067980   -1.6094000  
C    -1.6185830   -0.2331470   -1.1412230  
N    -1.1999730    0.9519500   -0.8205610  
C    -2.9937650   -0.7167800   -1.0719900  
C    -3.2164210   -1.9854270   -1.5319410  
O    -4.4340750   -2.5513100   -1.6073830  
C    -2.1106000   -2.8712460   -1.9995880  
O    -2.4134590   -4.0018550   -2.3902880  
C    -0.7231520   -2.3749760   -2.0121320  
H     1.6676530   -0.5220480   -1.8380790  
H    -4.2700800   -3.4538270   -1.9635130  
H     0.0473080   -3.0578230   -2.3567000  
C     4.1738420    1.5142040    0.7027330  
C     4.2243480    2.8793680    0.7252700  
C     3.0037610    3.3607370    0.1294180  
C     2.2317680    2.1636410   -0.2585640  
N     3.0131610    1.0649880    0.0660660  
C     0.9654720    2.1672260   -0.7800110  
C     0.3842340    3.5039650   -1.0774430  
O    -0.6560940    3.6521020   -1.6886040  
C     1.1873130    4.7858420   -0.6518280  
O     0.6670460    5.8784670   -0.8148420  
C     2.5178440    4.6169000   -0.0769850  
H     5.0463320    3.4858960    1.0757260  
H     3.0636070    5.5109290    0.2079660  
H     2.6043280    0.1505040    0.2194020  
C     5.8851250    0.8675410    2.3487010  
C     6.6615210   -0.1931650    2.6568520  
C     6.3846690   -1.2400370    1.6931900  
C     5.3655290   -0.6934270    0.7651840  
N     5.0740970    0.6012470    1.2250240  
C     4.8958020   -1.3579020   -0.3188130  
C     5.3744180   -2.7227250   -0.5632620  
O     4.9877730   -3.3899320   -1.5078960  
C     6.4204580   -3.3330810    0.4325320  
O     6.8190500   -4.4711160    0.2543640  
C     6.8865690   -2.4911530    1.5412280  
H     7.3542480   -0.2566720    3.4836190  
H     4.2042260   -0.9346710   -1.0371330  
H     7.6384560   -2.9046270    2.2062940  
H     5.7862650    1.8231850    2.8436920  
