60


C    -6.1318570   -0.7093390   -2.3110500  
C    -7.4250060   -1.0486690   -2.0411770  
C    -7.7064140   -0.6654490   -0.6812650  
C    -6.5310990   -0.0853800   -0.1500030  
N    -5.5787160   -0.1187960   -1.1686360  
C    -6.4356260    0.4055230    1.1545100  
C    -7.5686180    0.3051990    1.9490040  
O    -7.5384250    0.7649620    3.2294680  
C    -8.7631970   -0.2732240    1.4393850  
O    -9.7973590   -0.2972200    2.3513090  
C    -8.8436790   -0.7544980    0.1456570  
H    -8.1090550   -1.5211220   -2.7328010  
H    -5.5302200    0.8458080    1.5573240  
H    -8.4129850    0.5966080    3.6214680  
H   -10.5712430   -0.7290030    1.9600950  
H    -9.7684470   -1.1928460   -0.2234310  
H    -5.5292610   -0.8239250   -3.2002280  
C    -3.8618090    1.6100580   -1.3972340  
C    -2.5138590    1.7157300   -1.2390840  
C    -2.0184360    0.4392110   -0.7869200  
C    -3.1957960   -0.4501400   -0.7035540  
N    -4.2938730    0.3320900   -1.0602300  
C    -3.1849250   -1.7574150   -0.3497420  
C    -1.8922220   -2.3584500   -0.0529460  
O    -1.7515340   -3.5169800    0.2983220  
C    -0.6064490   -1.4684180   -0.2086320  
O     0.4746250   -2.0333910   -0.1137820  
C    -0.7482150   -0.0152710   -0.4742660  
H    -1.9260310    2.5914760   -1.4611960  
H    -4.0813220   -2.3630960   -0.2767170  
H    -4.5875470    2.3385290   -1.7324520  
C     0.4179350    0.8486720   -0.4134160  
C     0.4976160    2.2143520   -0.2259580  
C     1.8837420    2.5767490   -0.1762190  
C     2.6454110    1.3225030   -0.3532910  
N     1.7095060    0.3272270   -0.5157210  
C     4.0186270    1.2144110   -0.3338310  
C     4.7522920    2.4809420   -0.1110330  
O     5.9705290    2.5452140   -0.0641030  
C     3.9510950    3.8271230    0.0631790  
O     4.5883230    4.8546900    0.2459390  
C     2.5010890    3.7814610    0.0105390  
H    -0.3270690    2.8900180   -0.0632330  
H     1.9533480    4.7098250    0.1384050  
H     1.8802610   -0.6701880   -0.4526030  
C     4.3220090   -1.0720970   -1.3821020  
C     4.7185670   -0.0421740   -0.5684750  
C     5.9802500   -0.5456070    0.0362480  
C     6.1473200   -1.9035100   -0.5529760  
N     5.1826260   -2.1904000   -1.3870650  
C     7.2571560   -2.7543260   -0.2160760  
C     8.1577370   -2.2939760    0.6845150  
O     9.2352160   -2.9797290    1.1004650  
C     8.0105620   -0.9376940    1.3106820  
O     8.8599250   -0.5899490    2.1294280  
C     6.8703980   -0.0733000    0.9291480  
H     7.3434770   -3.7335910   -0.6736590  
H     9.6836970   -2.3892790    1.7453670  
H     6.8306890    0.9140000    1.3714070  
H     3.4569030   -1.0927810   -2.0342590  
