60


C     3.9494690   -2.0925700   -1.4412930  
C     4.3490190   -0.9996970   -0.6863150  
C     5.7580950   -1.1921020   -0.3981200  
C     6.1388490   -2.4092190   -1.0128510  
N     5.0131050   -2.9273110   -1.6347110  
C     7.4339610   -2.9316620   -0.9356950  
C     8.3708070   -2.2098070   -0.2126310  
O     9.6460610   -2.6707830   -0.1060740  
C     8.0054290   -0.9965240    0.4312130  
O     9.0386690   -0.4080580    1.1267920  
C     6.7217660   -0.4861900    0.3507750  
H     4.9894070   -3.7765990   -2.1790800  
H     7.7221720   -3.8661340   -1.4056090  
H    10.1397160   -2.0445260    0.4515340  
H     8.7193180    0.3775030    1.5953320  
H     6.4652810    0.4246510    0.8861950  
H     2.9852270   -2.3051560   -1.8801190  
C     3.4968490    0.0984110   -0.3140050  
C     2.1280930    0.1547070   -0.1646800  
C     1.7548090    1.4989320    0.1515600  
C     3.0181850    2.2696020    0.1765380  
N     4.0423720    1.3598970   -0.0374650  
C     3.1139410    3.6094950    0.3611970  
C     1.8830360    4.3564530    0.5652350  
O     1.8518810    5.5664240    0.7266400  
C     0.5224960    3.5654020    0.5821330  
O    -0.4970510    4.2150730    0.7676240  
C     0.5278060    2.1026400    0.3830580  
H     1.4622330   -0.6901250   -0.2467120  
H     4.0556710    4.1496260    0.3637940  
H     4.9448770    1.6388660   -0.3957530  
C    -0.8586620    0.0889430    1.0112580  
C    -0.7080020    1.3332070    0.4664570  
C    -2.0617890    1.6559160   -0.0487930  
C    -2.8779870    0.4395640    0.2446470  
N    -2.1600410   -0.4421400    0.8976740  
C    -4.2742910    0.3058680   -0.1378610  
C    -4.8364930    1.4344310   -0.6799840  
O    -6.1319360    1.5433240   -0.9853300  
C    -4.0481260    2.6730880   -0.9762630  
O    -4.6429860    3.6181430   -1.4926840  
C    -2.6131940    2.7330940   -0.6346430  
H    -6.2335100    2.4331420   -1.3920540  
H    -2.0922020    3.6631640   -0.8212770  
H    -0.1071780   -0.4911060    1.5320190  
C    -4.6215290   -2.8334880    3.0101430  
C    -5.6242220   -3.5744540    2.4698880  
C    -5.9521440   -2.9803020    1.1933330  
C    -5.0600100   -1.7987040    1.0545240  
N    -4.3037870   -1.7421390    2.2101120  
C    -5.0562190   -0.9395990   -0.0142890  
C    -5.8778600   -1.3728720   -1.1753750  
O    -5.7529120   -0.8945610   -2.2887310  
C    -6.9158600   -2.5373730   -0.9895820  
O    -7.7145150   -2.7522190   -1.8892840  
C    -6.8617260   -3.3170930    0.2389160  
H    -6.0910820   -4.4464280    2.9045980  
H    -7.5532550   -4.1467150    0.3503080  
H    -4.0923750   -2.9799500    3.9432000  
H    -3.3805140   -1.3056780    2.1617660  
