62


C     2.0451700   -0.0509040   -0.2792600  
C     3.3998580    0.1425610   -0.3136950  
C     4.0077280   -1.1799700   -0.1841430  
C     2.9711470   -2.1301430   -0.0954870  
N     1.7410350   -1.4141740   -0.1528410  
C     3.2146620   -3.4939560    0.0580760  
C     4.5442240   -3.9032410    0.1238840  
O     4.8263520   -5.2258500    0.2673330  
C     5.5953690   -2.9609340    0.0566880  
O     6.8533920   -3.5085330    0.1560140  
C     5.3381390   -1.6040010   -0.0913850  
H     2.4127360   -4.2146640    0.1257290  
H     5.7936890   -5.3193910    0.3112780  
H     7.5221660   -2.8076030    0.1467370  
H     6.1553650   -0.8880160   -0.1074350  
H     1.2513200    0.6652510   -0.4089550  
C     0.4791810   -1.9054310   -0.0988030  
C    -0.7161010   -1.1524770   -0.0910980  
C    -1.7451910   -2.0925870   -0.0199750  
C    -1.0288020   -3.4201820    0.0162780  
N     0.2782370   -3.2830850   -0.0396980  
C    -1.7229450   -4.6572520    0.1171140  
C    -3.0750620   -4.5881540    0.2262720  
O    -3.8606350   -5.6493210    0.3578440  
C    -3.8469350   -3.2727770    0.2173840  
O    -5.0774360   -3.4176240    0.3667420  
C    -3.1491610   -2.0200470    0.0378080  
H    -0.8010530   -0.0799260   -0.0724760  
H    -1.1860780   -5.5986960    0.1295590  
H    -4.7745440   -5.2735620    0.4258320  
C    -3.8931160   -0.7827130   -0.0710680  
C    -3.4810570    0.4744510   -0.4771540  
C    -4.6080460    1.3558440   -0.4275270  
C    -5.7519540    0.5335250    0.0418370  
N    -5.2548640   -0.7314550    0.2467120  
C    -7.0135450    1.0070050    0.2124140  
C    -7.2742850    2.4133200   -0.0755000  
O    -8.3774730    2.9258750    0.0507300  
C    -6.0754890    3.3057450   -0.5686260  
O    -6.2803080    4.4893440   -0.8063570  
C    -4.7667010    2.6810850   -0.7189360  
H    -2.5011810    0.7398290   -0.8377910  
H    -7.8393840    0.3905860    0.5541110  
H    -3.9482710    3.3048950   -1.0665090  
H    -5.7809110   -1.5678160    0.4629950  
C     5.2952040    1.6124560   -1.1044740  
C     4.0816970    1.4110920   -0.4658170  
C     3.6270980    2.7201440   -0.0404310  
C     4.6044120    3.6565650   -0.4545830  
N     5.6046030    2.9487000   -1.0994330  
C     4.5033310    5.0281160   -0.1974460  
C     3.3872840    5.4655400    0.4989100  
O     3.2348150    6.7899350    0.7718460  
C     2.4026690    4.5400070    0.9401470  
O     1.3666810    5.1273030    1.6338000  
C     2.5110020    3.1852200    0.6832860  
H     6.4168370    3.3573190   -1.5355340  
H     5.2526080    5.7454910   -0.5157090  
H     2.3988100    6.8940300    1.2589600  
H     0.7178910    4.4567410    1.8943190  
H     1.7560180    2.4968040    1.0548830  
H     5.9290710    0.9023660   -1.6149350  
