60


C     1.2725110   -3.5427450   -2.2740950  
C     1.3019540   -2.3177360   -1.6480540  
C     2.6404960   -2.1042220   -1.1808540  
C     3.3787580   -3.2547810   -1.5481060  
N     2.5253570   -4.1066490   -2.2180890  
C     4.7311910   -3.4428330   -1.2281530  
C     5.3580190   -2.4483360   -0.5022590  
O     6.6655510   -2.5769390   -0.1486010  
C     4.6615400   -1.2718510   -0.1074600  
O     5.4291330   -0.4103480    0.5946950  
C     3.3005500   -1.0534620   -0.4555060  
H     0.4461870   -1.6744110   -1.5219330  
H     2.7823170   -5.0039660   -2.5989520  
H     5.2852050   -4.3304870   -1.5169270  
H     6.8958380   -1.7699280    0.3481640  
H     4.8417010    0.3628460    0.8673640  
H     0.4549220   -4.0566480   -2.7592040  
C     2.6512010    0.1802320   -0.0997160  
C     1.4244040    0.7072880   -0.4647450  
C     1.2986660    1.9635310    0.2026600  
C     2.5766930    2.1126100    0.9645790  
N     3.3500990    1.0777010    0.7781830  
C     2.8773180    3.2660270    1.7587890  
C     1.9316910    4.2341020    1.8064710  
O     2.0498560    5.3643600    2.5016440  
C     0.5919740    4.1031980    1.0962580  
O    -0.2252500    4.9866880    1.3495390  
C     0.3241370    2.9368250    0.2354050  
H     0.7315380    0.3048120   -1.1837920  
H     3.8200880    3.3469690    2.2878790  
H     1.1876590    5.8289590    2.3759140  
C    -2.8102450   -0.2041290    0.0289420  
C    -3.7222760    0.4812400   -0.7391520  
C    -3.1538770    1.7603630   -1.0630200  
C    -1.8201340    1.8011680   -0.4195400  
N    -1.6742940    0.5982190    0.2247290  
C    -0.9668450    2.8759250   -0.4566720  
C    -1.3906520    4.0228610   -1.2925860  
O    -0.6493090    4.9541000   -1.5541740  
C    -2.8283030    4.0168290   -1.9230360  
O    -3.2121610    5.0126050   -2.5181160  
C    -3.6426460    2.8152430   -1.7759520  
H    -4.6903320    0.1086330   -1.0308480  
H    -4.6290230    2.8085070   -2.2294180  
H    -0.8413630    0.2899390    0.7065260  
C    -6.1206750   -3.1153200    0.0097310  
C    -5.5796830   -4.1560350    0.6792860  
C    -4.2279830   -3.7288490    1.0212920  
C    -4.1233390   -2.3434620    0.4556870  
N    -5.2295870   -1.9999270   -0.1299140  
C    -2.9002750   -1.5427140    0.5870220  
C    -1.8717770   -2.1568130    1.2562850  
O    -0.6728060   -1.5870630    1.4711640  
C    -1.9580270   -3.5435150    1.8182120  
O    -0.9577360   -3.9839450    2.3846570  
C    -3.2038890   -4.3105020    1.6724720  
H    -6.0317540   -5.1075650    0.9214800  
H    -0.1329850   -2.2684360    1.9365670  
H    -3.2291430   -5.3093630    2.0970770  
H    -7.1129560   -3.0317540   -0.4158230  
