64


C     4.2132270   -0.6920960   -1.8673940  
C     4.5911680    0.1026850   -0.8033390  
C     5.7672530   -0.5199040   -0.2343880  
C     6.0420910   -1.6801630   -1.0013300  
N     5.0805880   -1.7565800   -1.9896870  
C     7.1091860   -2.5433360   -0.7202480  
C     7.9155320   -2.2287910    0.3613550  
O     8.9731080   -3.0315770    0.6819780  
C     7.6525580   -1.0736000    1.1445080  
O     8.5432650   -0.8937650    2.1888550  
C     6.5985440   -0.2261170    0.8643690  
H     5.0301560   -2.4683890   -2.7011930  
H     7.3195510   -3.4312140   -1.3079110  
H     9.4049040   -2.6361270    1.4587110  
H     8.3194500   -0.0781350    2.6606640  
H     6.4279000    0.6614420    1.4665740  
H     3.4047240   -0.5569680   -2.5723000  
C     0.2844710    0.7420450   -0.1288220  
C     0.3589570    2.0866450    0.2405330  
C     1.7227840    2.4672150    0.1994640  
C     2.4687060    1.3221000   -0.2072080  
N     1.5766570    0.3016800   -0.4026560  
C     3.8744480    1.3087220   -0.3527220  
C     4.5108590    2.5163870   -0.0587510  
O     5.8650380    2.6235860   -0.1814770  
C     3.7816910    3.6700860    0.3582400  
O     4.5907390    4.7658010    0.6025720  
C     2.4117570    3.6686910    0.4843600  
H    -0.4923460    2.6952010    0.5002540  
H     1.8110900   -0.6535580   -0.6328400  
H     6.0945180    3.5497320    0.0126360  
H     4.0374680    5.5420230    0.7743200  
H     1.8778840    4.5613710    0.8025080  
C    -3.9868500    1.5322320    0.5312330  
C    -4.5522040    0.3086980    0.3281070  
C    -3.4010890   -0.5545390   -0.0218280  
C    -2.2172480    0.3463210    0.0452820  
N    -2.5778100    1.5560700    0.3689450  
C    -0.8579510   -0.1333340   -0.2399990  
C    -0.7754130   -1.4547610   -0.6207030  
O     0.4008620   -2.0684450   -0.9338160  
C    -1.9316660   -2.3502000   -0.7276240  
O    -1.7397930   -3.5258570   -1.0759820  
C    -3.2813460   -1.8382020   -0.4088380  
H     0.1381120   -2.9932500   -1.1471500  
H    -4.1109680   -2.5329470   -0.4925020  
H    -4.4925890    2.4499270    0.8043360  
C    -8.1875450    2.2985790   -1.3854190  
C    -6.9027770    1.9879810   -1.0207020  
C    -6.9593860    0.7735130   -0.2574640  
C    -8.3254100    0.3878720   -0.1996270  
N    -9.0490810    1.3386090   -0.8899470  
C    -8.7642600   -0.7713580    0.4483830  
C    -7.7993330   -1.5600400    1.0564660  
O    -8.1707680   -2.6898580    1.7251360  
C    -6.4301680   -1.2008130    1.0075010  
O    -5.6054910   -2.0885020    1.6801470  
C    -5.9755190   -0.0508670    0.3573890  
H    -6.0190680    2.5539270   -1.2768380  
H   -10.0479290    1.3250490   -1.0230430  
H    -9.8084150   -1.0623800    0.4999690  
H    -7.3628630   -3.0644610    2.1179910  
H    -4.7641740   -1.6520550    1.8863430  
H    -8.5659680    3.1313970   -1.9611340  
