60


C    -4.5127220    0.7899660   -0.0581250  
C    -4.1858730   -0.4888590    0.4124740  
C    -5.3545970   -1.2883970    0.3335440  
C    -6.3902360   -0.4598890   -0.1954860  
N    -5.8495590    0.7786990   -0.4237950  
C    -7.6925850   -0.9254080   -0.4059190  
C    -7.9581970   -2.2456430   -0.0761540  
O    -9.2064720   -2.7519500   -0.2581740  
C    -6.9360820   -3.0890110    0.4556170  
O    -7.3698450   -4.3703640    0.7277010  
C    -5.6529320   -2.6312250    0.6616800  
H    -3.2453680   -0.7908260    0.8501960  
H    -6.3193340    1.6297150   -0.7105970  
H    -8.4836130   -0.3008760   -0.8068150  
H    -9.1904960   -3.6807800    0.0322420  
H    -6.6397620   -4.8911860    1.0939070  
H    -4.8886390   -3.2905410    1.0677710  
C    -0.1507240    1.4089630   -0.0288320  
C    -0.1404520    2.7861860   -0.0628360  
C    -1.5028580    3.2311840   -0.1318930  
C    -2.3350600    2.0116280   -0.1141010  
N    -1.4672110    0.9516500   -0.0275320  
C    -3.7154780    1.9903370   -0.1716400  
C    -4.3543060    3.3100550   -0.3851990  
O    -5.5495090    3.4454530   -0.6202500  
C    -3.4825440    4.6224860   -0.3222460  
O    -4.0706950    5.6941340   -0.3885440  
C    -2.0477110    4.4867830   -0.2064380  
H     0.7352450    3.4189700   -0.0488970  
H    -1.4452650    5.3889590   -0.1885020  
H    -1.6907240   -0.0221260   -0.1773060  
C     0.9097050    0.4425440   -0.0009140  
C     2.2694270    0.6248070    0.0145770  
C     2.8341220   -0.6981480    0.0341960  
C     1.6430360   -1.6117410    0.0171890  
N     0.5270490   -0.9405610   -0.0019730  
C     1.7797170   -3.0415510    0.0062980  
C     3.0348250   -3.5485460    0.0126090  
O     3.3149230   -4.8555520    0.0162890  
C     4.2604670   -2.6643960    0.0471950  
O     5.3472030   -3.2294680    0.1393170  
C     4.1098610   -1.1888330    0.0220920  
H     2.8108190    1.5593360    0.0152830  
H     0.9004190   -3.6754620   -0.0059500  
H     4.2964430   -4.9155120    0.0490400  
C     5.8264600    2.0828170    2.5711450  
C     4.9793620    1.1371880    2.0967080  
C     5.6319100    0.6073570    0.9060060  
C     6.9147670    1.3811780    0.8237430  
N     7.0193950    2.2390160    1.7976500  
C     7.8798080    1.1445870   -0.2165310  
C     7.5969500    0.1904270   -1.1334300  
O     8.3979910   -0.1246280   -2.1618310  
C     6.3124180   -0.5933690   -1.0963930  
O     6.0990060   -1.3708190   -2.0207140  
C     5.3305090   -0.3676420    0.0097830  
H     4.0271090    0.8297910    2.5036350  
H     8.7961200    1.7232970   -0.2483850  
H     7.9228320   -0.8195300   -2.6675520  
H     5.6997570    2.7056830    3.4488190  
