60


C    -2.9499040   -2.7328180    1.9485660  
C    -3.3905240   -1.4624610    1.6632860  
C    -4.1846450   -1.5412650    0.4638930  
C    -4.1977910   -2.9085710    0.0799240  
N    -3.4258610   -3.6027110    0.9909130  
C    -4.9238060   -3.3893130   -1.0149130  
C    -5.6766240   -2.4639940   -1.7183530  
O    -6.4298720   -2.8572140   -2.7784180  
C    -5.6841350   -1.0853630   -1.3638550  
O    -6.4621290   -0.3130960   -2.1892250  
C    -4.9188630   -0.5860760   -0.3051440  
H    -3.2095550   -0.5852860    2.2677590  
H    -3.2704810   -4.5986690    0.9799500  
H    -4.9406610   -4.4357800   -1.3014370  
H    -6.8957400   -2.0532500   -3.0808200  
H    -6.9326380    0.3400270   -1.6159190  
H    -2.3381090   -3.0922190    2.7638240  
C    -1.3873500    1.9538440    0.2728080  
C    -2.0074640    3.1484070    0.5478090  
C    -3.4274190    2.9336790    0.5089560  
C    -3.6211800    1.4993250    0.1848000  
N    -2.3588820    0.9620340    0.0868610  
C    -4.8262790    0.8641880   -0.0052330  
C    -5.9951650    1.7442420    0.0655530  
O    -7.1293630    1.4004440   -0.2710920  
C    -5.8336160    3.2263780    0.5702260  
O    -6.8472880    3.8743200    0.7814140  
C    -4.4894340    3.7612890    0.7225640  
H    -1.5108630    4.0737780    0.8012890  
H    -4.3815920    4.8030980    1.0063170  
H    -2.1865240    0.0312330   -0.2632880  
C     1.0331650    2.5008970   -0.1654980  
C     0.0196540    1.6523260    0.1808390  
C     0.6997980    0.3738300    0.4529450  
C     2.1472310    0.6586200    0.1994490  
N     2.3100490    1.9078030   -0.1518670  
C     3.1949500   -0.3493850    0.3571980  
C     2.7539480   -1.5855680    0.7928550  
O     3.5218160   -2.6490820    1.0073060  
C     1.3026860   -1.8672480    1.0903980  
O     1.0160610   -2.9953000    1.4894010  
C     0.2836050   -0.8212710    0.9050550  
H     2.9049650   -3.3532960    1.3174750  
H    -0.7413850   -1.0820480    1.1577890  
H     0.9437410    3.5393690   -0.4613140  
C     4.5844670   -0.0340980    0.0713860  
C     5.1172940    1.1551050   -0.3579250  
C     6.5378670    0.9238720   -0.4879520  
C     6.7186920   -0.5067840   -0.0870430  
N     5.5906370   -1.0599350    0.2361630  
C     8.0183720   -1.1311360   -0.0834620  
C     9.0779880   -0.3763910   -0.4568140  
O    10.3429040   -0.8192110   -0.5023950  
C     8.9260230    1.0705760   -0.8662280  
O     9.9486600    1.6744370   -1.1892210  
C     7.5913230    1.6855300   -0.8622410  
H     4.5845930    2.0709140   -0.5537920  
H     8.1227100   -2.1694090    0.2109480  
H    10.8752070   -0.0499680   -0.8061860  
H     7.5212550    2.7265880   -1.1623220  
