64


C     0.7564050   -1.5977460   -0.9849420  
C     2.1140520   -1.5430780   -1.1382250  
C     2.5347690   -0.2431430   -0.6983850  
C     1.3736970    0.4516030   -0.2725640  
N     0.2852420   -0.3953780   -0.4615430  
C     1.4170930    1.7436790    0.2752670  
C     2.6611080    2.3537110    0.3652300  
O     2.7648580    3.6069950    0.8857340  
C     3.8353150    1.6989370   -0.0889050  
O     4.9764660    2.4590120    0.0137580  
C     3.7855220    0.4061360   -0.6074530  
H     2.7443950   -2.3338550   -1.5185740  
H     0.5424040    2.2468920    0.6731000  
H     3.7120080    3.8345900    0.8916640  
H     5.7654100    1.8908670   -0.0302030  
H     0.0550850   -2.3858180   -1.2172170  
C    -2.8190010   -2.3776690    2.0072550  
C    -1.6359640   -2.0487230    1.4007120  
C    -1.8873960   -0.8879860    0.5939920  
C    -3.2569390   -0.5558720    0.7616210  
N    -3.7968210   -1.4722890    1.6365190  
C    -3.8476820    0.5593140    0.1366010  
C    -3.0260640    1.3472160   -0.6685810  
O    -3.5389280    2.4452450   -1.2903860  
C    -1.6587970    1.0251450   -0.8568630  
O    -1.0102840    1.8709140   -1.7268680  
C    -1.0809880   -0.0808950   -0.2388500  
H    -0.6924310   -2.5608490    1.5198000  
H    -4.7762750   -1.5415340    1.8672690  
H    -2.8048480    2.8537230   -1.7850840  
H    -0.0471790    1.8188470   -1.5953400  
H    -3.0530150   -3.1853250    2.6859210  
C     5.1923850   -0.6928930   -2.3536110  
C     6.4633890   -1.1839500   -2.4672720  
C     7.0944420   -1.0302560   -1.1869230  
C     6.1381290   -0.4362070   -0.3222150  
N     4.9727380   -0.2305850   -1.0572330  
C     6.4069080   -0.1655250    1.0294830  
C     7.6716180   -0.4826450    1.5065350  
O     7.9825660   -0.2408760    2.8120300  
C     8.6435930   -1.0637500    0.6509310  
O     9.8515020   -1.3171650    1.2713580  
C     8.3680750   -1.3442260   -0.6753490  
H     6.9031250   -1.6030810   -3.3619570  
H     5.6630070    0.2337510    1.7108730  
H     8.8953750   -0.5464640    2.9528680  
H    10.4524620   -1.7508450    0.6477130  
H     9.1254360   -1.8019820   -1.3088400  
H     4.4048360   -0.6039120   -3.0877330  
C    -5.6554990    2.1591220    0.7907810  
C    -7.0051310    2.1962120    0.9028920  
C    -7.5079110    0.9028200    0.4949120  
C    -6.3160080    0.0968450    0.1233910  
N    -5.2079250    0.9077520    0.3408970  
C    -6.3744270   -1.1795650   -0.3431150  
C    -7.6841550   -1.8138920   -0.4734820  
O    -7.8308780   -2.9558180   -0.8829320  
C    -8.9554230   -0.9852280   -0.0629770  
O   -10.0559600   -1.5078020   -0.1479040  
C    -8.7628340    0.3890130    0.4055330  
H    -7.5980250    3.0374750    1.2313220  
H    -5.5002900   -1.7418730   -0.6524830  
H    -9.6485740    0.9609600    0.6654040  
H    -4.9239820    2.9288690    0.9901530  
