62


C     4.1734590   -1.3657540   -2.4732800  
C     5.3931530   -1.9741930   -2.5578970  
C     6.0493010   -1.7942620   -1.2919250  
C     5.1651420   -1.0587760   -0.4640590  
N     4.0139150   -0.7970060   -1.2074420  
C     5.4690720   -0.7274360    0.8621160  
C     6.7008640   -1.1309960    1.3550250  
O     7.0483740   -0.8316980    2.6401870  
C     7.6056080   -1.8577500    0.5366730  
O     8.7885890   -2.1873850    1.1702160  
C     7.2947100   -2.1930030   -0.7682080  
H     5.7857880   -2.4865230   -3.4256280  
H     4.7901150   -0.1772510    1.5038560  
H     7.9429530   -1.1845150    2.7865110  
H     9.3699380   -2.6511260    0.5497040  
H     7.9995240   -2.7589020   -1.3743130  
H     3.3878700   -1.2542920   -3.2070080  
C     1.6067040   -0.5949240   -0.7124430  
C     2.8743230   -0.1069040   -0.7671600  
C     2.8172710    1.2930390   -0.3644270  
C     1.3928130    1.5623700   -0.0561650  
N     0.6988300    0.3900970   -0.2987130  
C     0.9210400    2.7657380    0.3807530  
C     1.8674420    3.8668900    0.5465300  
O     1.5417110    4.9679780    0.9616780  
C     3.3720800    3.6092530    0.1730320  
O     4.1696530    4.5277350    0.2542120  
C     3.7632430    2.2585340   -0.2574170  
H    -0.1085590    2.9228110    0.6890210  
H     4.8108310    2.0773950   -0.4750710  
H     1.2435830   -1.5839680   -0.9545420  
C    -1.7672910   -2.5243740    1.9565140  
C    -0.7142550   -1.7883840    1.4798400  
C    -1.2632160   -0.8023990    0.5914480  
C    -2.6702130   -0.9846180    0.5773240  
N    -2.9477670   -2.0353030    1.4279080  
C    -3.5577950   -0.1945310   -0.1829640  
C    -2.9715470    0.8120300   -0.9543520  
O    -3.7563880    1.6470490   -1.6779400  
C    -1.5648460    1.0032860   -0.9847960  
O    -1.1454580    1.9860600   -1.8547320  
C    -0.7106720    0.2073600   -0.2257140  
H     0.3255860   -1.9259240    1.7401540  
H    -3.8597890   -2.4489930    1.5468200  
H    -3.1609570    2.2460580   -2.1647940  
H    -0.3752270    2.4606990   -1.4919850  
H    -1.7783770   -3.3576450    2.6445770  
C    -6.5015690    0.0397420    3.0698690  
C    -7.6319530   -0.2801800    2.3893840  
C    -7.2535270   -0.5233880    1.0121290  
C    -5.7860810   -0.3187070    0.9483070  
N    -5.3861110   -0.0116580    2.2379640  
C    -5.0204670   -0.4116740   -0.1782730  
C    -5.7241550   -0.7867260   -1.4247220  
O    -5.1440630   -0.9815970   -2.4775480  
C    -7.2852890   -0.9857950   -1.3799670  
O    -7.8689830   -1.2516230   -2.4188660  
C    -7.9713590   -0.8486570   -0.0960540  
H    -8.6308920   -0.3408630    2.7960700  
H    -9.0472090   -0.9933980   -0.0786780  
H    -6.3790370    0.2974300    4.1137370  
H    -4.4676330    0.3350720    2.4711760  
