62


C    -5.1380130   -2.2197630    2.0662360  
C    -4.6926990   -1.4459480    1.0200210  
C    -5.8162150   -1.1815660    0.1596020  
C    -6.9291830   -1.8308680    0.7494800  
N    -6.4838090   -2.4587200    1.8980950  
C    -8.2095200   -1.7929130    0.1821340  
C    -8.3634740   -1.0877870   -1.0004260  
O    -9.5883250   -1.0148930   -1.5927360  
C    -7.2537310   -0.4360100   -1.6072700  
O    -7.5699410    0.2157170   -2.7816180  
C    -5.9915400   -0.4751800   -1.0472420  
H    -7.0599160   -2.9924230    2.5300530  
H    -9.0670480   -2.2849280    0.6293650  
H    -9.4907110   -0.4738330   -2.3954510  
H    -6.7904490    0.6840660   -3.1155860  
H    -5.1553210    0.0280740   -1.5265430  
H    -4.5956050   -2.6081230    2.9158760  
C    -2.2723240   -1.8678500    0.6573060  
C    -1.1244800   -1.1235080    0.5045660  
C    -1.4966590    0.2553670    0.5667680  
C    -2.8961820    0.2787490    0.7761700  
N    -3.3558530   -1.0315410    0.8186840  
C    -3.6322490    1.4573970    0.9557490  
C    -2.9439860    2.6566760    0.9158070  
O    -3.6088900    3.8316700    1.0871280  
C    -1.5418930    2.6942800    0.6964480  
O    -1.0375590    3.9433580    0.6838970  
C    -0.7786140    1.5018010    0.4953050  
H    -0.1388110   -1.5456800    0.3932740  
H    -4.7022670    1.4502410    1.1313630  
H    -2.9390570    4.5383800    1.0381750  
H    -0.0371050    3.8642260    0.5632390  
H    -2.4172770   -2.9384230    0.6525470  
C     0.6238630    1.5843610    0.2226760  
C     1.5559530    0.6110020   -0.1248740  
C     2.8007270    1.2709460   -0.2595530  
C     2.5120960    2.7114260    0.0292730  
N     1.2468660    2.8776470    0.3016200  
C     3.5267560    3.7209360    0.0118180  
C     4.7837980    3.3177100   -0.2964360  
O     5.8393730    4.1263420   -0.3449600  
C     5.1280140    1.8735940   -0.6417250  
O     6.3014170    1.6641310   -0.9646160  
C     4.0799190    0.8676740   -0.5817210  
H     1.3806960   -0.4398680   -0.2773810  
H     3.2896410    4.7530360    0.2429320  
H     6.5900680    3.5472650   -0.6238170  
C     3.7083150   -1.1586850   -1.9733640  
C     4.1855260   -2.4194050   -2.1128450  
C     5.2345660   -2.5953690   -1.1320250  
C     5.3323400   -1.3100700   -0.3968490  
N     4.3783710   -0.4585440   -0.9608630  
C     6.1763430   -1.0927620    0.6408340  
C     7.0720940   -2.1741560    1.0485880  
O     7.8628190   -2.0651320    1.9731440  
C     7.0041880   -3.5337570    0.2633360  
O     7.7500440   -4.4446770    0.5881460  
C     6.0313420   -3.6523790   -0.8243800  
H     3.8525370   -3.1541930   -2.8316720  
H     6.2363950   -0.1539230    1.1782570  
H     5.9728270   -4.6016350   -1.3483660  
H     2.9304120   -0.6499400   -2.5265560  
