60


C     5.6490770    3.5047190    0.8169240  
C     6.8312190    3.3133230    0.1556090  
C     6.8703400    1.9367070   -0.2567840  
C     5.6630980    1.3382550    0.1829110  
N     4.9164200    2.3251610    0.8071270  
C     5.3569990   -0.0260750   -0.0139330  
C     6.3222140   -0.7838360   -0.6826160  
O     6.0777350   -2.0931140   -0.9529050  
C     7.5332390   -0.1967540   -1.1321330  
O     8.3644710   -1.0832270   -1.7889840  
C     7.8144550    1.1421720   -0.9355610  
H     7.5889100    4.0641050   -0.0223290  
H     4.1342470    2.1367770    1.4169290  
H     6.8905740   -2.4685180   -1.3345510  
H     9.2285940   -0.6710820   -1.9360260  
H     8.7491680    1.5673370   -1.2952080  
H     5.2466390    4.3917530    1.2854990  
C     1.2369240    0.9737340   -0.9958720  
C     0.5421440    0.0594090   -0.2379540  
C     1.5546720   -0.7324120    0.4729810  
C     2.8660780   -0.1882200    0.0548000  
N     2.5904990    0.8453730   -0.8312440  
C     4.0930160   -0.6339520    0.4502420  
C     4.0967930   -1.7625050    1.4103680  
O     5.1109380   -2.1844120    1.9336510  
C     2.7218290   -2.4172900    1.7947100  
O     2.7250960   -3.4118690    2.5019770  
C     1.4849880   -1.8077810    1.2992870  
H     0.5494370   -2.2451450    1.6245960  
H     0.8350300    1.7480860   -1.6356410  
H     3.2970230    1.4451220   -1.2325890  
C    -2.6076530    0.4178460   -3.3690570  
C    -1.3998730    0.2783330   -2.7695870  
C    -1.6910500    0.1221720   -1.3479470  
C    -3.1739250    0.1821850   -1.2807560  
N    -3.7024680    0.3662880   -2.4591380  
C    -3.9024630    0.0511210   -0.0276120  
C    -3.1473470   -0.1663260    1.0833440  
O    -3.6682090   -0.3769180    2.3010830  
C    -1.6472410   -0.2205380    1.0510160  
O    -1.0786930   -0.3934490    2.1269040  
C    -0.9109470   -0.0378690   -0.2387090  
H    -0.4274120    0.2433070   -3.2394080  
H    -2.9000360   -0.4665150    2.9069010  
H    -2.8190920    0.5457700   -4.4238060  
C    -7.3916550   -2.0521630   -1.9163460  
C    -6.1233090   -1.6882260   -1.6205410  
C    -6.2531900   -0.5894780   -0.6685220  
C    -7.7340430   -0.4293020   -0.5057350  
N    -8.3919690   -1.2864280   -1.2306310  
C    -8.3004610    0.5552410    0.3794820  
C    -7.4455960    1.3427820    1.0694620  
O    -7.8284090    2.3110660    1.9191730  
C    -5.9521900    1.2165240    0.9257490  
O    -5.2616220    2.0223680    1.5431870  
C    -5.3726180    0.1636840    0.0361070  
H    -5.2016980   -2.0910270   -2.0118910  
H    -9.3768240    0.6471960    0.4725240  
H    -6.9938050    2.7165260    2.2418420  
H    -7.7197350   -2.8328860   -2.5922800  
