62


C    -5.1102050   -0.2276890    2.6615920  
C    -6.4592600   -0.4254210    2.5745300  
C    -6.7670030   -0.6629540    1.1910620  
C    -5.5455270   -0.5985630    0.4752880  
N    -4.5327370   -0.3279060    1.3946020  
C    -5.4649870   -0.8074900   -0.9068860  
C    -6.6465990   -1.0724830   -1.5822550  
O    -6.6259580   -1.2815360   -2.9308560  
C    -7.8818800   -1.1322520   -0.8842030  
O    -8.9675710   -1.4066430   -1.6945940  
C    -7.9539210   -0.9346720    0.4823400  
H    -7.1579290   -0.3974750    3.3996370  
H    -4.5307260   -0.7662390   -1.4555630  
H    -7.5449060   -1.4296240   -3.2131890  
H    -9.7790080   -1.3842180   -1.1663260  
H    -8.9109860   -0.9925340    0.9972930  
H    -4.4840070    0.0001130    3.5124570  
C    -2.1566330   -0.9854670    1.5550560  
C    -3.1647030   -0.1834070    1.1096670  
C    -2.5565500    0.8870830    0.3318950  
C    -1.1021350    0.6279240    0.3611080  
N    -0.9282200   -0.5246430    1.1081490  
C    -0.1476630    1.4125080   -0.2335290  
C    -0.6367640    2.6075160   -0.9465790  
O     0.1078690    3.3819360   -1.5259900  
C    -2.1848570    2.9007330   -0.9744680  
O    -2.5713850    3.9070940   -1.5462660  
C    -3.0860520    1.9638490   -0.3070960  
H    -4.1519760    2.1633920   -0.3358350  
H    -2.2226200   -1.8734380    2.1691300  
H    -0.0278620   -0.8954300    1.3802970  
C     1.7714700   -0.1917380   -0.3634670  
C     1.2753730    1.0667970   -0.1903380  
C     2.4262550    1.9134030    0.1390540  
C     3.6060990    1.0138160    0.1756100  
N     3.1489350   -0.2568550   -0.1663080  
C     4.8653470    1.4054800    0.5038630  
C     5.0932130    2.8103380    0.8293020  
O     6.1897950    3.2535870    1.1358440  
C     3.8631600    3.7838980    0.7800060  
O     4.0286820    4.9618920    1.0509960  
C     2.5487850    3.2345670    0.4194390  
H     5.7046840    0.7214730    0.5630720  
H     1.7126000    3.9220560    0.3773060  
H     1.2468100   -1.0930550   -0.6475320  
C     6.7569280   -1.4826310   -2.3490140  
C     6.8511740   -2.7402890   -1.8148320  
C     5.7596980   -2.8922110   -0.8947280  
C     5.0325910   -1.6720280   -0.9198230  
N     5.6538440   -0.8362450   -1.8200910  
C     3.8839970   -1.4695380   -0.1329540  
C     3.4653510   -2.5233980    0.6791610  
O     2.3529710   -2.3863110    1.4714100  
C     4.1759120   -3.7479900    0.6936440  
O     3.6225510   -4.6896690    1.5409300  
C     5.3097240   -3.9435050   -0.0730950  
H     7.6070550   -3.4763740   -2.0500120  
H     5.3966300    0.1230050   -1.9964360  
H     2.2863460   -3.2090380    1.9894000  
H     4.2247840   -5.4429820    1.6313650  
H     5.8348880   -4.8955530   -0.0458480  
H     7.3858090   -0.9824560   -3.0715870  
