62


C    -3.4189760    1.1154750   -2.0263970  
C    -3.8515680    2.4123340   -2.0667260  
C    -4.7619630    2.5907890   -0.9709980  
C    -4.8363540    1.3486460   -0.2877890  
N    -4.0053910    0.4492980   -0.9519920  
C    -5.6221100    1.1636260    0.8613990  
C    -6.3589620    2.2495360    1.3140620  
O    -7.1376690    2.1224410    2.4258150  
C    -6.3055280    3.4949510    0.6346620  
O    -7.0954360    4.4741670    1.2045980  
C    -5.5173170    3.6764310   -0.4874780  
H    -3.5628760    3.1546540   -2.7983790  
H    -5.6417540    0.2332980    1.4191330  
H    -7.5553760    2.9860840    2.5871390  
H    -6.9929700    5.3021200    0.7125320  
H    -5.4838330    4.6440350   -0.9845760  
H    -2.7537820    0.5746560   -2.6838900  
C    -0.3537750   -1.9474690   -0.0405460  
C    -1.2463280   -0.9073950   -0.3234630  
C    -2.5451180   -1.4665660   -0.4043190  
C    -2.4181470   -2.8653260   -0.1550500  
N    -1.0907450   -3.1218700    0.0537170  
C    -3.5171840   -3.7321420   -0.1236230  
C    -4.7661100   -3.1781930   -0.3519370  
O    -5.8724350   -3.9649430   -0.3332160  
C    -4.9242570   -1.7862580   -0.6283010  
O    -6.2223460   -1.4158610   -0.8825320  
C    -3.8337880   -0.9292480   -0.6551990  
H    -1.0050870    0.1415310   -0.3882720  
H    -0.6595060   -3.9929590    0.3383470  
H    -3.4254550   -4.7931240    0.0807950  
H    -6.6406020   -3.3866730   -0.4902820  
H    -6.3165340   -0.4496280   -0.8159840  
C     2.8309350    1.0253730   -0.9685160  
C     1.6735000    0.3216590   -0.9243680  
C     1.9133400   -0.8904230   -0.1788990  
C     3.3350750   -0.8586290    0.2021660  
N     3.8629540    0.3386010   -0.3125150  
C     3.9566020   -1.7847520    0.9803650  
C     3.1990760   -2.9523850    1.3772850  
O     3.6424440   -3.8489080    2.0800110  
C     1.7230580   -3.0883780    0.8609400  
O     1.1663550   -4.1624270    1.0452270  
C     1.0735570   -1.9309320    0.1837470  
H     0.7586580    0.5996930   -1.4224410  
H     4.9882150   -1.7138960    1.2995800  
H     3.0555780    1.9616410   -1.4591630  
C     5.4887020    4.2692020    0.8605080  
C     4.6010990    3.2714550    0.6201330  
C     5.4150370    2.1399960    0.1918850  
C     6.8086460    2.6603050    0.2275020  
N     6.8460040    3.9037460    0.6219820  
C     7.9427660    1.8404240   -0.1168200  
C     7.7103450    0.5612970   -0.4876480  
O     8.6738540   -0.3117930   -0.8288960  
C     6.3204820   -0.0025690   -0.5688500  
O     6.1896610   -1.1387800   -1.0103750  
C     5.1566590    0.8516630   -0.1591350  
H     3.5283690    3.2901720    0.7491730  
H     8.9435040    2.2550000   -0.0714120  
H     8.2111560   -1.1335660   -1.0990500  
H     5.2787540    5.2723890    1.2117860  
