62


C     3.3063260   -0.7698330   -0.0496560  
C     2.9453290   -2.0578540    0.2625190  
C     4.0624090   -2.8936300   -0.0719010  
C     5.0840090   -2.0470690   -0.5778600  
N     4.6021110   -0.7500610   -0.5420020  
C     6.3273940   -2.5288460   -1.0002330  
C     6.5463710   -3.8953690   -0.9117630  
O     7.7385200   -4.4189370   -1.3165250  
C     5.5399800   -4.7582600   -0.4007350  
O     5.9120780   -6.0882520   -0.3702870  
C     4.3133180   -4.2774700    0.0182930  
H     2.0108790   -2.3573780    0.7154730  
H     5.0314760    0.0523890   -0.9775160  
H     7.1094570   -1.8842990   -1.3878240  
H     7.6956450   -5.3803380   -1.1745990  
H     5.1836140   -6.6218620   -0.0201710  
H     3.5589300   -4.9587360    0.4067280  
C     1.2505920    0.5394000   -0.3657210  
C     0.8074370    1.8385990   -0.1834820  
C     1.9341750    2.5717130    0.3730410  
C     2.9995440    1.6524600    0.5168280  
N     2.5624870    0.4117350    0.0341100  
C     4.2290060    1.9877110    1.0960130  
C     4.3958390    3.2961140    1.5238370  
O     5.5747160    3.6815660    2.0865130  
C     3.3438900    4.2370660    1.3811290  
O     3.6569010    5.4969820    1.8480780  
C     2.1267390    3.8909090    0.8251460  
H     5.0286740    1.2701010    1.2380610  
H     5.4909130    4.6231970    2.3171420  
H     2.9152840    6.0981110    1.6827070  
H     1.3442670    4.6338880    0.7166330  
H     0.7476000   -0.2963380   -0.8284290  
C    -3.2462370   -0.0490980    0.1041950  
C    -1.9009200    0.1991990    0.2522560  
C    -1.6617240    1.4803170   -0.3542730  
C    -3.0028410    1.9045500   -0.8375310  
N    -3.9195250    1.0137270   -0.5788690  
C    -3.2207990    3.1684740   -1.4952920  
C    -2.1521870    3.9801900   -1.6393770  
O    -2.1968970    5.1963090   -2.2069290  
C    -0.7724120    3.5888190   -1.1576000  
O     0.1166750    4.4207580   -1.3502160  
C    -0.5434820    2.2677880   -0.5183960  
H    -1.1682790   -0.4151660    0.7555450  
H    -4.2116440    3.4436430   -1.8388400  
H    -1.2703770    5.5246050   -2.1772560  
C    -3.5431580   -2.2743180    1.2310420  
C    -4.0198170   -1.1832190    0.5461180  
C    -5.4602710   -1.4149600    0.3687850  
C    -5.7540280   -2.7208050    1.0068250  
N    -4.5471170   -3.1800070    1.5051340  
C    -6.9764180   -3.3062960    1.0647430  
C    -8.1036800   -2.6084770    0.4543720  
O    -9.2420210   -3.0516800    0.4525390  
C    -7.8208110   -1.2217220   -0.2290920  
O    -8.7481040   -0.6200300   -0.7455910  
C    -6.4471470   -0.6961120   -0.2228620  
H    -7.1584500   -4.2651400    1.5405860  
H    -6.2509470    0.2600780   -0.6920780  
H    -2.5316920   -2.4797390    1.5551860  
H    -4.4245470   -4.0483360    2.0031680  
