62


C    -4.8989470   -0.7926580    2.5126020  
C    -5.6171750   -1.9487540    2.6117680  
C    -5.4096060   -2.6984430    1.3998680  
C    -4.5418630   -1.9434620    0.5755070  
N    -4.2362140   -0.7814520    1.2824700  
C    -4.1180640   -2.3652680   -0.6873440  
C    -4.5901910   -3.5914270   -1.1321820  
O    -4.2151280   -4.0587680   -2.3560850  
C    -5.4623550   -4.3694550   -0.3239100  
O    -5.8401290   -5.5638130   -0.9055360  
C    -5.8722760   -3.9416050    0.9253570  
H    -6.2283870   -2.2406390    3.4548290  
H    -3.4521080   -1.7811720   -1.3126720  
H    -4.6610650   -4.9131020   -2.4888850  
H    -6.4712980   -6.0205640   -0.3301060  
H    -6.5396170   -4.5553150    1.5270860  
H    -4.7813800    0.0405310    3.1898820  
C    -2.0780430    0.3115970    0.9481440  
C    -1.5827510    1.4606350    0.3951160  
C    -2.7332240    2.1797720   -0.1665600  
C    -3.9313760    1.3611280    0.1335950  
N    -3.4605020    0.2455370    0.8223330  
C    -5.2045560    1.6600680   -0.2146720  
C    -5.4356590    2.8883090   -0.9715750  
O    -6.5441260    3.2546830   -1.3290130  
C    -4.1844340    3.7605130   -1.3438650  
O    -4.3472290    4.7807840   -1.9944030  
C    -2.8578710    3.3200990   -0.8938370  
H    -6.0489680    1.0237280    0.0271690  
H    -2.0150170    3.9505450   -1.1438140  
H    -1.5501140   -0.5019920    1.4209320  
C     1.8652520   -1.1696140    0.0216190  
C     2.9247350   -0.3046810    0.0479140  
C     2.2927710    1.0331390    0.1774150  
C     0.8383790    0.7515180    0.2276480  
N     0.6120110   -0.5333830    0.1218400  
C    -0.1610660    1.8071350    0.3478360  
C     0.3325440    3.0844050    0.4201960  
O    -0.4393800    4.1770440    0.6079200  
C     1.7788930    3.3954480    0.3233050  
O     2.1310210    4.5774920    0.3989930  
C     2.7554420    2.2960260    0.1729150  
H     0.1903750    4.9325100    0.6095730  
H     3.7984800    2.5784680    0.0687580  
H     1.8996150   -2.2494560   -0.0491010  
C     4.3275310   -0.5951650   -0.0626660  
C     4.9672470   -1.6766460   -0.6529370  
C     6.3692830   -1.5043600   -0.4800340  
C     6.5543680   -0.2875920    0.2363310  
N     5.3057800    0.2630840    0.4443610  
C     7.8165170    0.1869650    0.6052880  
C     8.9163330   -0.5726690    0.2346210  
O    10.1682490   -0.1589150    0.5676020  
C     8.7532690   -1.7841710   -0.4985110  
O     9.9455950   -2.4117830   -0.7937260  
C     7.5065510   -2.2517260   -0.8588880  
H     4.4711130   -2.4704940   -1.1943460  
H     5.1147550    0.9875230    1.1201770  
H     7.9641580    1.1111370    1.1542350  
H    10.7957840   -0.8140720    0.2151770  
H     9.7734160   -3.2217730   -1.2964620  
H     7.4038200   -3.1805220   -1.4158610  
