60


C     1.3497730   -2.7239200    1.7205660  
C     1.9393460   -3.9496160    1.8008820  
C     1.2532120   -4.8212850    0.8840950  
C     0.2260380   -4.0631070    0.2729940  
N     0.2914500   -2.7650610    0.8043330  
C    -0.5972360   -4.5887540   -0.7266810  
C    -0.4004410   -5.9152210   -1.0900300  
O    -1.1886510   -6.4713760   -2.0543170  
C     0.6088490   -6.6937460   -0.4730770  
O     0.6812500   -7.9905260   -0.9382920  
C     1.4364170   -6.1606780    0.5019800  
H     2.7688320   -4.2100440    2.4442540  
H    -1.3790620   -4.0196860   -1.2113520  
H    -0.9046490   -7.3952710   -2.1638830  
H     1.3834170   -8.4665840   -0.4707260  
H     2.2202990   -6.7667840    0.9515020  
H     1.5640330   -1.8064590    2.2442680  
C     1.4164710    1.3070850   -0.0682500  
C     0.1909630    1.8664810   -0.3322880  
C    -0.7634570    0.8011120   -0.1630180  
C     0.0548270   -0.3742280    0.2173130  
N     1.3224300   -0.0753710    0.2684880  
C    -0.5347160   -1.6799780    0.4951490  
C    -1.8969570   -1.7643390    0.4269590  
O    -2.5828910   -2.8874820    0.7064190  
C    -2.7512820   -0.6189160    0.0265860  
O    -3.9641820   -0.8174500   -0.0642680  
C    -2.1274020    0.7107430   -0.2537060  
H    -0.0179710    2.8955010   -0.5867830  
H    -3.5249010   -2.6707120    0.5311830  
C     2.7279730    1.8968070   -0.0759670  
C     3.1387100    3.1877920   -0.3229840  
C     4.5696650    3.2202320   -0.2037760  
C     4.9909480    1.8345020    0.1361320  
N     3.8328900    1.0932560    0.2011020  
C     6.2797240    1.4538120    0.3285570  
C     7.3298390    2.4593310    0.1989380  
O     8.5156180    2.2093370    0.3541920  
C     6.9076060    3.9321900   -0.1573280  
O     7.7734190    4.7871360   -0.2700200  
C     5.4847910    4.2220100   -0.3423930  
H     2.4991420    4.0262510   -0.5584240  
H     6.5703010    0.4373590    0.5749140  
H     5.2054130    5.2418700   -0.5891530  
H     3.7466660    0.1054760    0.3925360  
C    -2.5553210    2.5742620   -1.8043920  
C    -3.4688480    3.5437840   -2.0335530  
C    -4.5161460    3.4056980   -1.0456900  
C    -4.1472250    2.2418620   -0.2051010  
N    -2.9299760    1.7466110   -0.7277660  
C    -4.8508990    1.8533510    0.8816880  
C    -6.0788220    2.5852560    1.2208810  
O    -6.7630500    2.2926900    2.1864810  
C    -6.5129830    3.7818920    0.3071090  
O    -7.5407540    4.3863540    0.5633990  
C    -5.6389550    4.1329750   -0.8156740  
H    -3.4339860    4.2763520   -2.8273520  
H    -4.5848570    1.0128100    1.5086720  
H    -5.9141190    4.9898790   -1.4227980  
H    -1.6489510    2.3401790   -2.3442130  
