60


C     2.6432280    1.6531580   -2.9228970  
C     1.5680790    1.4861810   -2.0800910  
C     1.2980360    2.7539770   -1.4704860  
C     2.2626570    3.6555660   -1.9801960  
N     3.0585470    2.9625050   -2.8683050  
C     2.3560110    4.9969760   -1.5826320  
C     1.4614240    5.4439160   -0.6287470  
O     1.5117910    6.7312340   -0.1912780  
C     0.4707500    4.5802580   -0.0848300  
O    -0.3166620    5.1834010    0.8301620  
C     0.3397640    3.2274460   -0.5089550  
H     1.0752690    0.5450930   -1.8960340  
H     3.8318120    3.3545160   -3.3828300  
H     3.1012840    5.6773940   -1.9825630  
H     0.7985830    6.8261210    0.4669430  
H    -0.9595120    4.4882740    1.1796580  
H     3.1471020    0.9380140   -3.5572370  
C    -0.7309240    2.4137130   -0.0049260  
C    -1.1915060    1.1638150   -0.3914330  
C    -2.2995830    0.8541900    0.4496340  
C    -2.4346170    2.0449200    1.3472940  
N    -1.5246230    2.9388160    1.0700570  
C    -3.4577310    2.1543960    2.3419750  
C    -4.3192170    1.1138350    2.4447320  
O    -5.3215150    1.0547680    3.3187810  
C    -4.1999600   -0.1361310    1.5839770  
O    -4.9664930   -1.0523070    1.8799700  
C    -3.1733300   -0.2097090    0.5333520  
H    -0.8536530    0.5795460   -1.2304320  
H    -3.5308510    3.0343370    2.9709520  
H    -5.7290900    0.1665060    3.1745360  
C     0.1189910   -2.9938490   -0.4820540  
C    -0.5945050   -3.8838210   -1.2510070  
C    -1.9500360   -3.4121550   -1.3162360  
C    -1.9947380   -2.1612670   -0.5183680  
N    -0.7196340   -1.9717020   -0.0412900  
C    -3.1246130   -1.4158730   -0.2985290  
C    -4.3526490   -1.8608350   -1.0001030  
O    -5.3685530   -1.1894380   -1.0331110  
C    -4.3324730   -3.2187330   -1.7884200  
O    -5.3768550   -3.6341750   -2.2680300  
C    -3.0626460   -3.9237080   -1.9190560  
H    -0.2073120   -4.7758890   -1.7217990  
H    -3.0504290   -4.8523220   -2.4813010  
H    -0.3798800   -1.1804610    0.4895100  
C     1.5072660   -2.9693860   -0.1034850  
C     2.5075910   -3.8634640   -0.3726860  
C     3.6880470   -3.3160490    0.2538260  
C     3.2178610   -2.0361500    0.8840150  
N     1.9485120   -1.8426460    0.6738210  
C     4.1132670   -1.1796970    1.6150740  
C     5.4056590   -1.5703950    1.7212350  
O     6.3496390   -0.8787670    2.3683560  
C     5.9105030   -2.8561750    1.0997220  
O     7.1015640   -3.1219630    1.2506240  
C     4.9781180   -3.7133910    0.3565510  
H     2.4421230   -4.7882990   -0.9283550  
H     3.7492740   -0.2588650    2.0565030  
H     7.1743220   -1.4071020    2.2754300  
H     5.3756900   -4.6270420   -0.0742160  
