64


C     0.2804600    1.9919070   -0.8558490  
C    -1.0707160    1.7566770   -0.9107490  
C    -1.2546230    0.3472880   -0.7098890  
C     0.0252220   -0.2197460   -0.5074090  
N     0.9460050    0.8044950   -0.5958720  
C     0.2571080   -1.6027550   -0.2927720  
C    -0.9025480   -2.4056820   -0.2778480  
O    -0.8204740   -3.7353840   -0.0435940  
C    -2.1895770   -1.8411480   -0.4563980  
O    -3.2037280   -2.7795350   -0.4095070  
C    -2.4077270   -0.4807910   -0.6699080  
H    -1.8383300    2.5064790   -1.0308890  
H     1.9431630    0.6696930   -0.6870730  
H    -1.7244450   -4.0908230   -0.1233130  
H    -4.0379690   -2.3602090   -0.6798910  
C     0.7840290    4.0808120   -2.0822630  
C     1.6427050    5.1366090   -1.9652880  
C     2.4467290    4.9055930   -0.7967830  
C     2.0190070    3.6779990   -0.2315950  
N     0.9973340    3.1772470   -1.0409640  
C     2.5673300    3.1587350    0.9482750  
C     3.5848470    3.8812780    1.5533170  
O     4.1559630    3.4154700    2.7026300  
C     4.0383930    5.1033640    0.9918710  
O     5.0582880    5.7021060    1.7071020  
C     3.4813980    5.6208250   -0.1632480  
H     1.7057850    5.9792680   -2.6402170  
H     2.2176110    2.2406730    1.4067980  
H     4.8316460    4.0617790    2.9706640  
H     5.3086830    6.5338510    1.2787160  
H     3.8362060    6.5659450   -0.5698950  
H     0.0371200    3.8562740   -2.8295680  
C    -4.1548980    0.8953330   -1.8950480  
C    -3.7646780    0.0491710   -0.8760450  
C    -4.9561350   -0.2024480   -0.0853870  
C    -6.0198440    0.5165260   -0.6887900  
N    -5.4985980    1.1724010   -1.7866190  
C    -7.3217320    0.5216020   -0.1736160  
C    -7.5562450   -0.2105540    0.9794540  
O    -8.8061040   -0.2431240    1.5216420  
C    -6.5010910   -0.9250040    1.6090270  
O    -6.8894420   -1.5938930    2.7521320  
C    -5.2164060   -0.9272600    1.0989800  
H    -6.0236010    1.7561700   -2.4191570  
H    -8.1352150    1.0732030   -0.6336110  
H    -8.7588830   -0.7898410    2.3250770  
H    -6.1223410   -2.0317580    3.1502470  
H    -4.4245170   -1.4725760    1.6059100  
H    -3.5694130    1.2974360   -2.7092420  
C     1.5964670   -2.1310950   -0.1225220  
C     2.6922220   -1.5032100    0.4277810  
C     3.7837370   -2.4337500    0.3125130  
C     3.1777810   -3.6197070   -0.3782740  
N     1.9129610   -3.4480570   -0.6208980  
C     3.9649900   -4.7818240   -0.7065790  
C     5.2686000   -4.7767400   -0.3444850  
O     6.1233730   -5.7847750   -0.5719870  
C     5.9023340   -3.6016500    0.3711510  
O     7.0994470   -3.7056850    0.6521910  
C     5.0905450   -2.4276790    0.6792980  
H     2.7208990   -0.5569120    0.9500390  
H     3.5071440   -5.6227890   -1.2153210  
H     6.9786460   -5.4761800   -0.1929500  
H     5.5792220   -1.5997510    1.1837460  
