66


C     4.1312150   -0.1950110    0.1854290  
C     3.7710490   -1.4298390   -0.3376800  
C     4.9624540   -2.2073340   -0.4805230  
C     6.0387070   -1.3967300   -0.0279000  
N     5.5084530   -0.1867840    0.3554630  
C     7.3663200   -1.8433690   -0.0150350  
C     7.6136720   -3.1303910   -0.4659400  
O     8.8906240   -3.6171250   -0.4740390  
C     6.5504720   -3.9546430   -0.9229610  
O     6.9578240   -5.2095590   -1.3421630  
C     5.2411750   -3.5124860   -0.9364890  
H     2.7615650   -1.7751710   -0.5117280  
H     5.9917140    0.5573850    0.8365410  
H     8.1906390   -1.2279540    0.3304440  
H     8.8469100   -4.5265910   -0.8158420  
H     6.1829670   -5.7243820   -1.6110910  
H     4.4447410   -4.1643050   -1.2913970  
C     0.2299380    1.0695130   -1.4103770  
C     0.0324750    2.1789730   -0.6153080  
C     1.2020710    2.2777810    0.2293450  
C     2.0510120    1.1922400   -0.0934610  
N     1.4250540    0.4608670   -1.0837260  
C     3.3054290    0.9631960    0.5228480  
C     3.6851740    1.9284170    1.4633050  
O     4.9035230    1.8383180    2.0937380  
C     2.8408820    3.0130080    1.8026400  
O     3.3787990    3.8471880    2.7681560  
C     1.6042860    3.1950200    1.2173100  
H     1.8977300   -0.2344910   -1.6419380  
H     4.9618480    2.5957900    2.7026640  
H     2.7815640    4.5955540    2.9132880  
H     0.9803320    4.0444580    1.4779550  
H    -0.3804080    0.6840490   -2.2159130  
C    -4.2146410    1.0548500   -0.3305220  
C    -4.7490250    2.3230560   -0.4468980  
C    -3.6597100    3.2426530   -0.5677910  
C    -2.4630810    2.4797180   -0.5244830  
N    -2.8265700    1.1593590   -0.3530920  
C    -1.1694120    3.0340410   -0.6208950  
C    -1.1201940    4.4254630   -0.7345100  
O     0.0869400    5.0621810   -0.8416060  
C    -2.3042730    5.2077660   -0.7546500  
O    -2.0658540    6.5684310   -0.8662280  
C    -3.5633750    4.6443710   -0.6791620  
H    -5.8023540    2.5629240   -0.4002340  
H    -2.1870570    0.3848440   -0.4467430  
H    -0.1071330    6.0058440   -0.9799220  
H    -2.9036460    7.0273220   -1.0255480  
H    -4.4528060    5.2708070   -0.7001490  
C    -4.8628750   -0.2285590   -0.1753570  
C    -6.0954230   -0.6682060   -0.6091820  
C    -6.2476100   -2.0273710   -0.1836080  
C    -5.0619490   -2.3797580    0.5140090  
N    -4.2146730   -1.2847050    0.4722910  
C    -4.8703060   -3.6394740    1.0905640  
C    -5.8910580   -4.5691670    0.9530040  
O    -5.7566610   -5.8134270    1.5000960  
C    -7.0759560   -4.2417380    0.2431280  
O    -7.9940960   -5.2748460    0.1833680  
C    -7.2631460   -2.9946800   -0.3244480  
H    -6.7868610   -0.0922740   -1.2088400  
H    -3.4569860   -1.1425060    1.1248780  
H    -3.9681750   -3.9107820    1.6295500  
H    -6.5705700   -6.3051580    1.2956160  
H    -8.7826040   -4.9766640   -0.2933240  
H    -8.1818310   -2.7670120   -0.8618210  
