64


C    -3.7232580    0.1970540   -0.1337670  
C    -4.3403340    1.4272180   -0.1813300  
C    -3.3212700    2.4353500   -0.2217010  
C    -2.0745600    1.7654030   -0.2054380  
N    -2.3327790    0.4030780   -0.1993360  
C    -0.8369180    2.4403570   -0.1846070  
C    -0.8906780    3.8382580   -0.2074400  
O     0.2645510    4.5546100   -0.2513120  
C    -2.1322240    4.5199260   -0.2490690  
O    -2.0052620    5.8946060   -0.2912280  
C    -3.3381090    3.8428530   -0.2578490  
H    -5.4076950    1.5872350   -0.2340590  
H    -1.6693590   -0.2758630    0.1517600  
H     0.0238680    5.4966600   -0.2102390  
H    -2.8816750    6.3039620   -0.2423300  
H    -4.2774650    4.3910990   -0.2870890  
C     1.1799360   -0.5071700   -2.8406610  
C     0.2643020    0.3421780   -2.3188060  
C     0.8379880    0.7914200   -1.0557140  
C     2.1420520    0.0637930   -0.9593540  
N     2.3325800   -0.6778240   -2.0204310  
C     3.0506170    0.2200720    0.1669620  
C     2.6984660    1.2062510    1.0492010  
O     3.4585800    1.5811760    2.0850740  
C     1.3944100    1.9510530    0.9868010  
O     1.1445810    2.7200600    1.9106090  
C     0.4460820    1.7161270   -0.1446260  
H    -0.6664150    0.6775100   -2.7537680  
H     2.9226460    2.2479640    2.5697680  
H     1.1369470   -1.0392150   -3.7837380  
C     6.3902390   -0.9351850   -2.5714200  
C     7.1781460   -1.5561270   -1.6393520  
C     6.4557440   -1.5283010   -0.3982760  
C     5.2335810   -0.8492260   -0.6463000  
N     5.2336770   -0.4671020   -1.9728980  
C     4.2644920   -0.6076860    0.3573070  
C     4.5362630   -1.1790380    1.6095370  
O     3.6159510   -1.1076010    2.6126630  
C     5.7519960   -1.8624860    1.8634560  
O     5.8606480   -2.3352520    3.1618740  
C     6.7193660   -2.0229490    0.8924180  
H     8.1580950   -1.9814410   -1.8088140  
H     4.3528940   -0.3256280   -2.4578420  
H     4.0141360   -1.5355570    3.3906090  
H     6.6838080   -2.8370550    3.2512230  
H     7.6499410   -2.5406250    1.1179300  
H     6.5594870   -0.7727060   -3.6269940  
C    -7.3856830   -1.4767110    1.8419500  
C    -6.3830230   -0.6455000    1.4141250  
C    -5.4973430   -1.4307550    0.6001920  
C    -6.0207070   -2.7502480    0.5801430  
N    -7.1743940   -2.7456820    1.3372130  
C    -5.4012540   -3.8092300   -0.0933650  
C    -4.2224030   -3.5275650   -0.7642120  
O    -3.5787540   -4.5155230   -1.4510190  
C    -3.6752300   -2.2196940   -0.7618290  
O    -2.4983740   -2.1208460   -1.4850800  
C    -4.2863310   -1.1530940   -0.0938200  
H    -6.2763900    0.3982830    1.6690120  
H    -7.7566600   -3.5491680    1.5124240  
H    -5.8034910   -4.8169560   -0.1098150  
H    -2.8037240   -4.1046780   -1.8732680  
H    -2.3139260   -1.1878570   -1.6894330  
H    -8.2401150   -1.2711940    2.4712500  
