62


C     1.3364170    0.0127310    0.0374570  
C     1.0557170   -1.3395370    0.0787110  
C     2.1326570   -1.9995750   -0.6473210  
C     3.0142260   -0.9948570   -1.1078050  
N     2.5052180    0.2255840   -0.6677660  
C     4.1538500   -1.2481620   -1.8754310  
C     4.4154020   -2.5724300   -2.1903520  
O     5.5149180   -2.8953140   -2.9267210  
C     3.5444330   -3.6023670   -1.7454730  
O     3.9353450   -4.8685040   -2.1354080  
C     2.4182800   -3.3353230   -0.9913490  
H     4.8203710   -0.4616800   -2.2106820  
H     5.5339570   -3.8655790   -3.0008860  
H     3.3995770   -5.5280010   -1.6695060  
H     1.7890820   -4.1450320   -0.6390700  
H     0.8339110    0.8475830    0.5019560  
C    -3.1630880    0.0599120    0.3639100  
C    -1.8399610   -0.1086240    0.0494660  
C    -1.3592100   -1.2939350    0.7134500  
C    -2.5185760   -1.8370370    1.4530700  
N    -3.5852990   -0.9978940    1.1809810  
C    -2.5052240   -2.9496960    2.2327360  
C    -1.2666180   -3.6986140    2.3144540  
O    -1.1397870   -4.7343320    2.9513320  
C    -0.0148920   -3.1620000    1.5197910  
O     1.0181100   -3.8066990    1.6038370  
C    -0.1241560   -1.9092450    0.7300390  
H    -1.2826180    0.4943570   -0.6511610  
H    -3.3747150   -3.3168490    2.7687840  
H    -4.4255580   -0.9728410    1.7394550  
C    -3.7319910    2.4039030   -0.3099700  
C    -4.0796540    1.1078590   -0.0317580  
C    -5.5283290    1.0191680   -0.2199430  
C    -5.9753340    2.3758680   -0.6227400  
N    -4.8311500    3.1551660   -0.6711600  
C    -7.2592070    2.7214330   -0.8853770  
C    -8.2915420    1.6913380   -0.7757320  
O    -9.4738860    1.9105410   -0.9817390  
C    -7.8410460    0.2391440   -0.3820180  
O    -8.6803240   -0.6415940   -0.2989180  
C    -6.4152640   -0.0053790   -0.1244750  
H    -7.5608180    3.7214650   -1.1812980  
H    -6.1242370   -1.0219890    0.1185540  
H    -2.7527930    2.8609370   -0.2583660  
H    -4.8174100    4.1446830   -0.8659020  
C     2.8770080    2.2527320   -1.9923610  
C     3.6254160    3.3885030   -1.8654320  
C     4.3362540    3.3033290   -0.6166130  
C     3.9824360    2.0735850   -0.0101850  
N     3.0827220    1.4504660   -0.8702650  
C     4.4852930    1.6504120    1.2234720  
C     5.3761510    2.4984670    1.8643240  
O     5.9040300    2.1429570    3.0698070  
C     5.7469610    3.7387270    1.2776780  
O     6.6383590    4.4696760    2.0397910  
C     5.2418630    4.1469690    0.0571100  
H     3.6723670    4.1973350   -2.5819510  
H     4.2139000    0.7028930    1.6754470  
H     6.5145770    2.8508990    3.3386040  
H     6.9010220    5.2665870    1.5561210  
H     5.5410370    5.1013970   -0.3718220  
H     2.2141490    1.9129500   -2.7746730  
