62


C    -4.3131780    0.2266660    2.8286250  
C    -3.6312840    0.1966550    1.6311250  
C    -4.4641440   -0.5432780    0.7069930  
C    -5.6306990   -0.9298280    1.4138700  
N    -5.5057380   -0.4531570    2.7047460  
C    -6.6610390   -1.6757440    0.8275170  
C    -6.5090020   -2.0422730   -0.5000400  
O    -7.4845430   -2.7633280   -1.1238490  
C    -5.3408640   -1.6763120   -1.2216940  
O    -5.3314820   -2.1261230   -2.5278430  
C    -4.3244080   -0.9441080   -0.6377590  
H    -6.2042250   -0.5376300    3.4263560  
H    -7.5563010   -1.9691280    1.3662270  
H    -7.1948220   -2.9035590   -2.0420050  
H    -4.5573680   -1.7701050   -2.9887620  
H    -3.4368490   -0.6847460   -1.2096570  
H    -4.0428090    0.7071630    3.7584390  
C    -1.2051670    0.6513740    2.1770520  
C    -2.3115270    0.7797730    1.3898080  
C    -1.9208430    1.6530190    0.2843670  
C    -0.4970740    2.0066200    0.5027750  
N    -0.1283060    1.3777590    1.6724060  
C     0.2537720    2.8094910   -0.3108460  
C    -0.4164740    3.3407330   -1.5147400  
O     0.1661000    3.9834130   -2.3711390  
C    -1.9467330    3.0382190   -1.7197050  
O    -2.5178370    3.5398300   -2.6756780  
C    -2.6209150    2.1590420   -0.7649480  
H    -3.6729100    1.9453620   -0.9223310  
H    -1.0870480    0.0713270    3.0826050  
H     0.7922520    1.4235630    2.0806230  
C     3.7857960    0.1560340    0.1246180  
C     4.7349310    1.1618010    0.3061050  
C     4.0541510    2.4020310    0.2639650  
C     2.6673840    2.1163730    0.0537380  
N     2.5390000    0.7557650   -0.0138940  
C     1.6777020    3.1173640   -0.0585240  
C     2.1305100    4.4327650    0.0544460  
O     1.2434880    5.4525790    0.0129020  
C     3.5133080    4.7345070    0.2579830  
O     3.7625780    6.0864330    0.3479870  
C     4.4684650    3.7507810    0.3660050  
H     5.7952250    1.0056960    0.4502360  
H     1.7132760    0.2159140   -0.2355430  
H     1.7469170    6.2859590    0.0234810  
H     4.7179140    6.2430910    0.3861900  
H     5.5140200    4.0043080    0.5247520  
C     3.8850180   -1.2638780    0.0654860  
C     4.9767760   -2.0973640    0.1673980  
C     4.4646680   -3.4248070    0.0291610  
C     2.9818820   -3.2372820   -0.1583200  
N     2.6506880   -1.9779180   -0.1358040  
C     2.0968610   -4.3565560   -0.3343260  
C     2.6503810   -5.5925850   -0.3256460  
O     1.9637970   -6.7288270   -0.4761350  
C     4.1432570   -5.8167450   -0.1386550  
O     4.5189780   -6.9940700   -0.1492890  
C     5.0165040   -4.6719440    0.0372750  
H     6.0095640   -1.8153750    0.3164290  
H     1.0323490   -4.1995740   -0.4680920  
H     2.6476760   -7.4389300   -0.4231820  
H     6.0769090   -4.8629780    0.1677390  
