62


C     3.2834640   -0.7437970   -0.0568000  
C     2.9379680   -2.0337940    0.2646550  
C     4.0634600   -2.8590040   -0.0674960  
C     5.0740060   -2.0043390   -0.5818620  
N     4.5777050   -0.7124750   -0.5528330  
C     6.3214970   -2.4749990   -1.0046660  
C     6.5558320   -3.8384210   -0.9078290  
O     7.7524930   -4.3514030   -1.3125180  
C     5.5605450   -4.7091880   -0.3881800  
O     5.9476750   -6.0345240   -0.3502020  
C     4.3298330   -4.2393670    0.0312030  
H     2.0087490   -2.3413260    0.7229950  
H     4.9961310    0.0914200   -0.9962480  
H     7.0953410   -1.8244070   -1.3986020  
H     7.7209040   -5.3121970   -1.1635210  
H     5.2270720   -6.5739610    0.0072660  
H     3.5840580   -4.9261730    0.4263540  
C     1.2109770    0.5386780   -0.3748040  
C     0.7504510    1.8313560   -0.1922630  
C     1.8678470    2.5801840    0.3611630  
C     2.9470560    1.6764690    0.5014190  
N     2.5262180    0.4296250    0.0214810  
C     4.1736210    2.0301700    1.0758620  
C     4.3230360    3.3411280    1.5020650  
O     5.4982180    3.7440020    2.0600460  
C     3.2570420    4.2668390    1.3625200  
O     3.5537500    5.5313970    1.8275340  
C     2.0430460    3.9026360    0.8112440  
H     4.9841670    1.3243350    1.2152170  
H     5.4016710    4.6842660    2.2912120  
H     2.8022270    6.1213650    1.6669300  
H     1.2495530    4.6344560    0.7060000  
H     0.7194480   -0.3054260   -0.8346920  
C    -3.2803750   -0.0776500    0.1114850  
C    -1.9304000    0.1609750    0.2522730  
C    -1.7172600    1.4451830   -0.3487570  
C    -3.0694510    1.8605990   -0.8143770  
N    -3.9780240    0.9578520   -0.5451090  
C    -3.3138710    3.1196140   -1.4636100  
C    -2.2521970    3.9394180   -1.6203510  
O    -2.3117140    5.1527170   -2.1819110  
C    -0.8555620    3.5573700   -1.1574620  
O     0.0167080    4.4026670   -1.3694320  
C    -0.6075530    2.2464960   -0.5215200  
H    -1.1847560   -0.4482730    0.7378510  
H    -4.3120930    3.3861680   -1.7916170  
H    -1.3850820    5.4859750   -2.1640230  
C    -3.4057820   -2.2436110    1.2476570  
C    -4.3057660   -3.2025080    1.5589320  
C    -5.5900090   -2.7820930    1.0426080  
C    -5.3693050   -1.4690950    0.3881840  
N    -3.9946680   -1.1802570    0.5433260  
C    -6.3545630   -0.7624130   -0.2161580  
C    -7.7112760   -1.3227160   -0.2232900  
O    -8.6514980   -0.7466270   -0.7466890  
C    -7.9589730   -2.7088080    0.4651860  
O    -9.0825170   -3.1860700    0.4657720  
C    -6.8105170   -3.3744360    1.0836470  
H    -4.1033330   -4.1167420    2.0985150  
H    -6.1809230    0.1942730   -0.6880590  
H    -6.9775260   -4.3352110    1.5611420  
H    -2.3500660   -2.2042910    1.4703470  
