60


C     4.4012850   -1.1504940   -1.5049300  
C     5.4490240   -1.9137990   -1.0705680  
C     6.0672970   -1.2093620    0.0156300  
C     5.3477650   -0.0009380    0.1965020  
N     4.3191930    0.0215510   -0.7497260  
C     5.6611700    0.9150750    1.2050140  
C     6.7326740    0.6130180    2.0332460  
O     7.0833240    1.4773480    3.0282660  
C     7.4713510   -0.5872160    1.8595950  
O     8.5057120   -0.7433500    2.7629960  
C     7.1519600   -1.4948380    0.8679240  
H     5.7527100   -2.8647980   -1.4865040  
H     5.1278970    1.8472890    1.3430350  
H     7.8654380    1.1050040    3.4708600  
H     9.0033700   -1.5458250    2.5476150  
H     7.7224070   -2.4147780    0.7558610  
H     3.7142430   -1.3091630   -2.3240180  
C     0.0052550   -0.4225290   -0.8227130  
C    -0.3195310    0.8980360   -1.0792200  
C     0.8987010    1.6531380   -1.1445210  
C     1.9895190    0.6819660   -0.9096150  
N     1.3907730   -0.5403310   -0.7219460  
C     3.3188860    1.0020960   -0.8987400  
C     3.6833800    2.4091220   -1.1544340  
O     4.8377270    2.7922290   -1.2257280  
C     2.5229560    3.4563550   -1.3550320  
O     2.8275270    4.6317210   -1.4971960  
C     1.1480380    2.9790480   -1.3566420  
H    -1.2982570    1.3009270   -1.2916040  
H     0.3581610    3.7051850   -1.5208560  
H     1.8460640   -1.4410410   -0.6271160  
C    -4.3014460   -0.7773620    0.0949330  
C    -4.4192410   -2.1411060   -0.0440580  
C    -3.1192800   -2.6715680   -0.3450130  
C    -2.2013960   -1.5128030   -0.4072430  
N    -2.9647270   -0.4158220   -0.1461690  
C    -0.8466070   -1.5878660   -0.6787530  
C    -0.2912920   -2.9492500   -0.7867440  
O     0.9085430   -3.1881070   -0.8571560  
C    -1.2676010   -4.1788540   -0.8110860  
O    -0.8009530   -5.2849280   -1.0298960  
C    -2.6847140   -3.9461700   -0.5583460  
H    -5.3291590   -2.7161680    0.0138420  
H    -3.3475880   -4.8055260   -0.5447790  
H    -2.6434030    0.5389300   -0.0695030  
C    -8.4604040   -0.8740690    1.7631740  
C    -7.2078860   -1.2683200    1.4082460  
C    -6.5532870   -0.0700950    0.9214190  
C    -7.6019620    0.9933040    1.0753580  
N    -8.7151170    0.5107420    1.5513750  
C    -7.3563700    2.3633880    0.7263070  
C    -6.1195970    2.6894800    0.2840540  
O    -5.7501700    3.9373440   -0.0391810  
C    -5.0346610    1.6626340    0.1388810  
O    -3.9236210    2.0843870   -0.1967150  
C    -5.3161670    0.2163060    0.4005390  
H    -6.7805960   -2.2524930    1.5203290  
H    -8.1403790    3.1029720    0.8431890  
H    -4.8039430    3.8908820   -0.2920650  
H    -9.2494700   -1.4854980    2.1848910  
