64


C    -0.9973710   -1.2652720    0.7575220  
C    -2.3362470   -1.3185350    0.5032500  
C    -2.7601010    0.0147660    0.1723020  
C    -1.6200490    0.8515120    0.2542570  
N    -0.5340390    0.0476650    0.6164000  
C    -1.6610220    2.2129980   -0.0657380  
C    -2.8841270    2.7416110   -0.4457230  
O    -2.9865410    4.0679000   -0.7498590  
C    -4.0394840    1.9226580   -0.5213310  
O    -5.1829440    2.5939040   -0.8981160  
C    -4.0071520    0.5590150   -0.2236660  
H    -2.9631230   -2.1963580    0.5660150  
H    -0.7989200    2.8639130    0.0047410  
H    -3.9265670    4.2488370   -0.9243600  
H    -5.9449790    2.0026650   -0.7672360  
H    -0.3124600   -2.0370960    1.0765250  
C     3.1619680   -1.6262500   -1.0050090  
C     1.8601200   -1.3477070   -0.7480640  
C     1.8348490   -0.2434350    0.1845740  
C     3.2480320    0.1010670    0.4583190  
N     4.0182670   -0.7685230   -0.3033420  
C     3.6606620    1.0976460    1.2916070  
C     2.6477590    1.8964460    1.9581560  
O     2.9016880    2.8456350    2.6852160  
C     1.1329450    1.5304500    1.7302180  
O     0.2841860    2.1352910    2.3587430  
C     0.8055960    0.4380610    0.7795040  
H     1.0017910   -1.8478870   -1.1697290  
H     4.7041210    1.3106670    1.4930970  
H     3.5937900   -2.3779020   -1.6498820  
C     6.9167560    2.3349590   -1.4414600  
C     8.0416770    1.5685900   -1.2921650  
C     7.6137110    0.2670890   -0.8619550  
C     6.1972050    0.3122840   -0.7705020  
N     5.7975820    1.5767830   -1.1434120  
C     5.4368220   -0.8050130   -0.3747480  
C     6.1251570   -1.9809510   -0.0781410  
O     5.4321700   -3.0923500    0.3035500  
C     7.5373010   -2.0352210   -0.1861570  
O     8.0613160   -3.2747070    0.1277810  
C     8.2834950   -0.9364520   -0.5685400  
H     9.0585160    1.8890200   -1.4712840  
H     4.8558410    1.9304500   -1.0715710  
H     6.0896300   -3.7863700    0.4881100  
H     9.0281660   -3.2228380    0.1531090  
H     9.3661770   -1.0066580   -0.6471910  
H     6.8100590    3.3675700   -1.7417410  
C    -6.4457590   -1.7042920    2.8284020  
C    -5.4954780   -0.9345370    2.2099210  
C    -5.8289090   -0.8948380    0.8137110  
C    -7.0093050   -1.6669350    0.6455900  
N    -7.3610860   -2.1481550    1.8901210  
C    -7.6357950   -1.8410450   -0.5951300  
C    -7.0554030   -1.2249490   -1.6917050  
O    -7.6117580   -1.3687920   -2.9307820  
C    -5.8785740   -0.4445800   -1.5470780  
O    -5.4148910    0.0923690   -2.7310470  
C    -5.2480770   -0.2601600   -0.3153760  
H    -4.6542480   -0.4527790    2.6869100  
H    -8.1618360   -2.7280840    2.0847000  
H    -8.5358920   -2.4334580   -0.7250210  
H    -7.0354100   -0.8962640   -3.5564680  
H    -4.5411510    0.4886650   -2.5686910  
H    -6.5515990   -1.9783550    3.8686370  
