62


C     2.8055300   -2.4115270   -1.6691820  
C     3.7992060   -3.3389790   -1.6815000  
C     4.7987910   -2.9166850   -0.7341600  
C     4.3682360   -1.6872400   -0.1818820  
N     3.1256590   -1.3757950   -0.7731720  
C     5.0787500   -1.0437240    0.8353740  
C     6.2617770   -1.6282370    1.2657770  
O     6.9912950   -1.0232030    2.2453730  
C     6.7191860   -2.8445820    0.7002630  
O     7.9080430   -3.2984640    1.2292290  
C     5.9989580   -3.4936680   -0.2881990  
H     3.8347920   -4.2176970   -2.3111790  
H     4.7675550   -0.1065110    1.2758670  
H     7.7796620   -1.5706540    2.4027880  
H     8.1720810   -4.1182750    0.7857730  
H     6.3488720   -4.4390130   -0.6974080  
H     1.9093090   -2.3335320   -2.2650620  
C    -1.2540760   -1.0218820   -0.2797970  
C     0.0099920   -1.5529560   -0.4207930  
C     0.9102180   -0.4332360   -0.4174790  
C     0.0288820    0.7485540   -0.2457020  
N    -1.2225190    0.4023690   -0.1743340  
C     0.5474830    2.1226890   -0.1807080  
C     1.9026540    2.2188080   -0.3123590  
O     2.5664400    3.4145890   -0.2999700  
C     2.8239940    1.0753170   -0.4774930  
O     4.0265470    1.3255000   -0.6095980  
C     2.2719380   -0.3107760   -0.5112530  
H     0.2797930   -2.5963850   -0.4949300  
H     3.5143880    3.1712370   -0.4176140  
C    -2.5021950   -1.7325820   -0.2211450  
C    -2.7024410   -3.0909370   -0.3241680  
C    -4.1208480   -3.2898290   -0.2015330  
C    -4.6692740   -1.9036250   -0.0219960  
N    -3.7323210   -1.0049440   -0.0336130  
C    -6.0831790   -1.6708500    0.1395740  
C    -6.9029110   -2.7472030    0.1240470  
O    -8.2355460   -2.6860400    0.2623060  
C    -6.3786280   -4.1550160   -0.0551000  
O    -7.2096750   -5.0654230   -0.0543050  
C    -4.9397100   -4.3714590   -0.2177660  
H    -1.9575260   -3.8609190   -0.4701280  
H    -6.4552160   -0.6603490    0.2661660  
H    -8.5400410   -3.6202730    0.2073710  
H    -4.6006200   -5.3951510   -0.3436030  
C    -2.8080160    3.1571580    2.6681540  
C    -1.7762590    2.5245630    2.0255850  
C    -1.3676430    3.3648710    0.9383450  
C    -2.1966950    4.5187700    0.9850390  
N    -3.0688300    4.3596870    2.0408290  
C    -2.0717440    5.5934120    0.1005500  
C    -1.0599550    5.5178080   -0.8437410  
O    -0.8739160    6.5343200   -1.7307500  
C    -0.1957660    4.3961830   -0.9054670  
O     0.7338250    4.4689420   -1.9227540  
C    -0.3413870    3.2903040   -0.0504840  
H    -1.3807630    1.5540710    2.2802720  
H    -3.7682820    5.0282830    2.3217020  
H    -2.7140060    6.4675820    0.1384750  
H    -0.1098330    6.2651540   -2.2756130  
H     1.6135750    4.2578000   -1.5427570  
H    -3.3929610    2.8429730    3.5208480  
