62


C    -1.9090330   -1.5112620   -0.2735980  
C    -2.4614500   -0.2572590   -0.2090330  
C    -3.8626470   -0.4107680   -0.4678790  
C    -4.1077590   -1.7926500   -0.6719600  
N    -2.8960620   -2.4530770   -0.5345440  
C    -5.3843090   -2.2984530   -0.9423940  
C    -6.4281070   -1.3870510   -1.0094690  
O    -7.6929940   -1.8230170   -1.2779480  
C    -6.1983930    0.0000040   -0.8005340  
O    -7.3393680    0.7735510   -0.8959680  
C    -4.9376630    0.4965530   -0.5306130  
H    -1.9540110    0.6677190    0.0228020  
H    -2.7154980   -3.4091000   -0.8008310  
H    -5.5827030   -3.3537380   -1.0987100  
H    -8.2720460   -1.0412300   -1.2729120  
H    -7.1135100    1.7005370   -0.7272880  
H    -4.7714630    1.5600060   -0.3734760  
C     0.4872650   -1.1629710   -0.7299000  
C     1.7109520   -1.6378440   -0.3612710  
C     1.4544700   -2.7724340    0.5241860  
C    -0.0191030   -2.8882230    0.6460910  
N    -0.5628130   -1.8883370   -0.1602050  
C    -0.6549410   -3.7987400    1.4276210  
C     0.1548790   -4.7476360    2.1869060  
O    -0.3281150   -5.6014090    2.9155630  
C     1.7176510   -4.6558690    2.0553940  
O     2.4127140   -5.4453780    2.6755060  
C     2.2832470   -3.6121220    1.1940840  
H    -1.7333900   -3.8458420    1.5305260  
H     3.3623310   -3.5533390    1.1118830  
H     0.2459730   -0.3555980   -1.4081950  
C     3.0819080    2.5334590   -0.1527960  
C     4.3227190    2.3467310   -0.7272280  
C     4.4564630    0.9535580   -1.0335100  
C     3.2503580    0.3259260   -0.6350610  
N     2.4199240    1.3074800   -0.1291600  
C     3.0042780   -1.0575470   -0.7630800  
C     4.0446190   -1.8093230   -1.3126920  
O     3.8900720   -3.1528460   -1.4887620  
C     5.2603400   -1.1970110   -1.7194900  
O     6.1707980   -2.0899610   -2.2497280  
C     5.4768180    0.1622190   -1.5989810  
H     5.0372060    3.1284910   -0.9480040  
H     1.6178760    1.1080100    0.4506550  
H     4.7121300   -3.4888770   -1.8873550  
H     6.9682740   -1.6165340   -2.5288640  
H     6.4170040    0.6028690   -1.9236030  
C     3.0848050    4.8179870    0.9129660  
C     2.4521610    3.7328590    0.3719350  
C     1.0217360    4.0273810    0.4285230  
C     0.8909230    5.3693150    1.0522440  
N     2.1790410    5.8011870    1.2921430  
C    -0.2907210    5.9903920    1.2980960  
C    -1.5273560    5.3083830    0.9268730  
O    -2.6361300    5.7888520    1.1021540  
C    -1.4130270    3.8862250    0.2684150  
O    -2.4363260    3.2755700   -0.0079590  
C    -0.0785970    3.3372940    0.0256860  
H    -0.3647350    6.9755430    1.7481160  
H    -0.0180260    2.3790620   -0.4782170  
H     4.1442930    4.9694110    1.0696830  
H     2.4195640    6.6521950    1.7760990  
