64


C    -4.7593650    0.2899270    0.2056160  
C    -5.0253550   -0.9798050    0.6587330  
C    -6.4095990   -1.2649900    0.4021530  
C    -6.9601510   -0.1194210   -0.2192460  
N    -5.9619910    0.8546910   -0.2774650  
C    -8.2898170   -0.0534320   -0.6425110  
C    -9.0867790   -1.1683610   -0.4209700  
O   -10.3902980   -1.1586250   -0.8169910  
C    -8.5579440   -2.3190000    0.2222970  
O    -9.4761290   -3.3368720    0.3809010  
C    -7.2394690   -2.3787350    0.6363920  
H    -4.3221610   -1.6156070    1.1790290  
H    -5.9405310    1.5330410   -1.0303920  
H    -8.7150860    0.8214420   -1.1234820  
H   -10.7756570   -2.0171170   -0.5698670  
H    -9.0560710   -4.0901860    0.8217500  
H    -6.8546370   -3.2721780    1.1236830  
C    -0.4690950   -0.7966420   -0.4174460  
C    -1.8256440   -0.8106660   -0.3251870  
C    -2.2560020    0.5190490    0.0257580  
C    -1.0969140    1.3228330    0.1258320  
N     0.0072980    0.4979070   -0.1573580  
C    -1.1444870    2.6738420    0.4870680  
C    -2.3999420    3.2278150    0.7027620  
O    -2.5005160    4.5365330    1.0615250  
C    -3.5756910    2.4508200    0.5785630  
O    -4.7318720    3.1485660    0.8439390  
C    -3.5335420    1.0885990    0.2553200  
H    -2.4617720   -1.6631420   -0.5126370  
H    -0.2655850    3.2862370    0.6446030  
H    -3.4432900    4.7187420    1.2231050  
H    -5.4776130    2.5210870    0.8998380  
H     0.2299950   -1.5711790   -0.6946450  
C     1.3417150    0.8343620   -0.2094480  
C     2.4358160    0.0321630   -0.0104150  
C     3.6054700    0.8212420   -0.2551790  
C     3.1177400    2.1757280   -0.6057750  
N     1.7292000    2.1408040   -0.5158010  
C     3.9051140    3.2167770   -0.9621330  
C     5.3457890    3.0034740   -0.9299070  
O     6.1566030    3.8516870   -1.2645470  
C     5.8799140    1.6257220   -0.3942180  
O     7.0909210    1.5661870   -0.1660720  
C     4.9520770    0.5126920   -0.1853280  
H     2.4199370   -0.9924390    0.3233320  
H     3.5277010    4.1886110   -1.2634220  
H     1.1339100    2.7745530   -1.0307350  
C     3.9070490   -3.4412400   -2.0544920  
C     4.0112740   -2.1053550   -1.7626490  
C     4.9097770   -1.9759380   -0.6460960  
C     5.3308400   -3.2909880   -0.3140000  
N     4.6893150   -4.1620090   -1.1729340  
C     6.2615110   -3.5658940    0.6935870  
C     6.7978250   -2.4768980    1.3604640  
O     7.7286580   -2.6584190    2.3361530  
C     6.4005340   -1.1468990    1.0520200  
O     7.0208660   -0.1944800    1.8265650  
C     5.4319780   -0.8648400    0.0837710  
H     3.5152480   -1.3064120   -2.2935630  
H     4.8448000   -5.1569630   -1.2090890  
H     6.5886210   -4.5709470    0.9401020  
H     7.9818690   -1.7579250    2.6191690  
H     7.2704270    0.5429870    1.2189610  
H     3.3395150   -3.9446230   -2.8246410  
