60


C    -3.9298540   -1.9668040    1.7043510  
C    -4.9588300   -2.8195480    1.9580180  
C    -6.0938690   -2.3732300    1.1917470  
C    -5.6929450   -1.2210030    0.4747650  
N    -4.3501040   -0.9703670    0.8095860  
C    -6.5437650   -0.5652400   -0.4233880  
C    -7.8349450   -1.0585740   -0.5608100  
O    -8.6979270   -0.4463520   -1.4174900  
C    -8.2603050   -2.1951030    0.1731170  
O    -9.5663830   -2.5597260   -0.0711440  
C    -7.4041780   -2.8576740    1.0352600  
H    -4.9246340   -3.6671950    2.6286390  
H    -6.2379450    0.2780480   -1.0304470  
H    -9.5371580   -0.9379020   -1.3893080  
H    -9.7889840   -3.3514650    0.4408700  
H    -7.7389580   -3.7411030    1.5746430  
H    -2.9292500   -1.9282390    2.1075870  
C    -3.5381450    0.0565280    0.3734510  
C    -2.1766230    0.0816090    0.2313090  
C    -1.8040610    1.4138070   -0.1637610  
C    -3.0658430    2.1830730   -0.2437520  
N    -4.0978780    1.2893480    0.0272260  
C    -3.1588130    3.5075600   -0.5118680  
C    -1.9237820    4.2368300   -0.7668030  
O    -1.8895760    5.4361610   -0.9918110  
C    -0.5697440    3.4351290   -0.7606960  
O     0.4525920    4.0440020   -1.0347480  
C    -0.5838640    1.9928980   -0.4349420  
H    -1.5142730   -0.7598570    0.3600720  
H    -4.0991610    4.0485860   -0.5485040  
H    -4.9941600    1.5890680    0.3859140  
C     0.8304960    0.0148650   -1.0866740  
C     0.6623630    1.2229170   -0.4675000  
C     1.9568130    1.5416720    0.1409920  
C     2.8486920    0.3920320   -0.1594710  
N     2.0947800   -0.5093350   -0.8828480  
C     4.1534980    0.2687030    0.2527800  
C     4.7295050    1.4814990    0.8877930  
O     5.9269560    1.6500830    1.0359990  
C     3.7628160    2.6241790    1.3500660  
O     4.2041300    3.5018240    2.0747320  
C     2.3783540    2.5954620    0.8851090  
H     1.7407680    3.4336130    1.1385270  
H     0.1166870   -0.5290950   -1.6918580  
H     2.5798530   -1.1408940   -1.5288240  
C     4.7997140   -2.5729240   -3.1493210  
C     5.9110010   -3.2218480   -2.7396470  
C     6.1823010   -2.7105980   -1.4019330  
C     5.1106950   -1.6835070   -1.1651200  
N     4.2993130   -1.6397200   -2.1883000  
C     5.0346440   -0.8976030    0.0586630  
C     5.8975200   -1.2984490    1.0501690  
O     5.8749990   -0.8031580    2.2894820  
C     6.9574770   -2.3439390    0.8520990  
O     7.6903760   -2.6031940    1.8053630  
C     7.0755410   -3.0273800   -0.4478970  
H     6.4805650   -3.9742830   -3.2666580  
H     6.6278960   -1.2249240    2.7608810  
H     7.8557110   -3.7747150   -0.5539010  
H     4.2677520   -2.6782640   -4.0869770  
