60


C    -3.1422620    0.9001910   -1.8900820  
C    -4.4015530    1.3705250   -2.1067140  
C    -5.2829020    0.6767950   -1.2038770  
C    -4.4950270   -0.2355950   -0.4624260  
N    -3.1651160   -0.0900160   -0.8948720  
C    -5.0335520   -1.0294850    0.5546070  
C    -6.3952620   -0.9237620    0.8003830  
O    -6.9638370   -1.6873690    1.7751310  
C    -7.2011520   -0.0297360    0.0505190  
O    -8.5315470   -0.0370700    0.4108230  
C    -6.6598340    0.7704460   -0.9414770  
H    -4.6810500    2.1110150   -2.8439410  
H    -4.4489330   -1.7359560    1.1289570  
H    -7.9172230   -1.4946710    1.7785130  
H    -9.0330260    0.5482890   -0.1759820  
H    -7.2876230    1.4659350   -1.4945020  
H    -2.2145390    1.1226300   -2.3953840  
C     0.7999310    1.4425970    0.2360650  
C    -0.5241050    1.3128880   -0.1331430  
C    -0.8488300   -0.0813050   -0.1598820  
C     0.3858440   -0.7951530    0.2123330  
N     1.3334660    0.1638730    0.4432210  
C     0.5056420   -2.1611840    0.3098600  
C    -0.6971070   -2.9580030    0.1108470  
O    -0.7508240   -4.1652330    0.2930070  
C    -2.0196910   -2.2293120   -0.3409370  
O    -2.9758740   -2.9214620   -0.6310520  
C    -2.0293850   -0.7478760   -0.4236370  
H    -1.1935030    2.1179070   -0.3853400  
H     2.3236890    0.0129150    0.5915690  
C    -0.0506020    5.8289030    0.6587610  
C    -0.2367030    4.4811730    0.6287110  
C     1.0908750    3.9156170    0.4911130  
C     1.9863720    5.1156070    0.4645680  
N     1.3097350    6.2283240    0.5471410  
C     3.4137720    5.0023860    0.3553220  
C     3.9495410    3.7600130    0.3204250  
O     5.2670260    3.5184700    0.2557550  
C     3.0921000    2.5310440    0.3863170  
O     3.6830880    1.4501440    0.4491780  
C     1.5978110    2.6441090    0.3785920  
H    -1.1697360    3.9508330    0.7421310  
H     4.0281060    5.8951580    0.3237590  
H     5.3753000    2.5439000    0.2551550  
H    -0.8077500    6.5967350    0.7666230  
C     1.8469210   -3.8024600    1.6249200  
C     3.1269290   -4.2314620    1.7284210  
C     3.9099060   -3.5119950    0.7483390  
C     2.9594210   -2.6184260    0.0385750  
N     1.7154600   -2.8097060    0.6359440  
C     3.3056940   -1.8165910   -1.0033220  
C     4.7058340   -1.7790890   -1.4207980  
O     5.1049810   -1.0720610   -2.3336170  
C     5.7335610   -2.6854360   -0.6528400  
O     6.9112490   -2.6475670   -0.9728770  
C     5.2273980   -3.5464130    0.4187710  
H     3.4957520   -4.9798160    2.4147990  
H     2.5981610   -1.2096760   -1.5561640  
H     5.9376740   -4.1979300    0.9188350  
H     0.9682660   -4.1114890    2.1702570  
