62


C    -2.8572780   -1.0216080   -0.0623460  
C    -3.5283610    0.1552980    0.3160980  
C    -4.9121820   -0.1194940    0.3235140  
C    -5.0688280   -1.4915520   -0.0537300  
N    -3.8209950   -2.0007960   -0.2780970  
C    -6.3218330   -2.1076140   -0.1435120  
C    -7.4331040   -1.3336030    0.1511680  
O    -8.6745980   -1.8771440    0.0818150  
C    -7.2969110    0.0394150    0.5314690  
O    -8.5041050    0.6547420    0.7873820  
C    -6.0660020    0.6469030    0.6204470  
H    -3.0616640    1.0853110    0.6007600  
H    -3.5589600   -2.9547970   -0.4960500  
H    -6.4487790   -3.1466620   -0.4272920  
H    -9.3133040   -1.1836680    0.3246970  
H    -8.3535680    1.5760130    1.0465840  
H    -5.9816540    1.6919050    0.9105020  
C     0.7959740    1.5746760   -0.2530020  
C    -0.5017590    1.0914340   -0.2851610  
C    -0.4513240   -0.3283810   -0.2128680  
C     0.9748310   -0.6895720   -0.1463650  
N     1.6673900    0.4864120   -0.1556780  
C     1.5122240   -1.9685010   -0.1047920  
C     0.5530250   -3.0261770   -0.3017830  
O     0.8380480   -4.2166270   -0.4846030  
C    -0.9855300   -2.6989270   -0.3220670  
O    -1.7390600   -3.6533860   -0.4672160  
C    -1.4562140   -1.2976320   -0.1962860  
H    -1.3666650    1.7192880   -0.4027050  
H     2.6741170    0.5648680   -0.1002580  
C     4.5037190   -0.3779350    2.8550250  
C     3.3504070   -0.6825280    2.1784810  
C     3.7070790   -1.5527190    1.0883970  
C     5.1114820   -1.7484460    1.1721500  
N     5.5697130   -1.0083840    2.2441400  
C     5.8206520   -2.5905180    0.3086740  
C     5.0816870   -3.2680980   -0.6465590  
O     5.6925230   -4.1258780   -1.5080190  
C     3.6748940   -3.0917320   -0.7626630  
O     3.1118030   -3.8211430   -1.7816710  
C     2.9636500   -2.2165720    0.0644580  
H     2.3605600   -0.3404480    2.4432630  
H     6.5223570   -0.9952520    2.5725360  
H     6.8921700   -2.7468490    0.3810250  
H     4.9707560   -4.5039920   -2.0477350  
H     2.2635860   -4.1931080   -1.4323680  
H     4.6559360    0.2381880    3.7299970  
C    -1.4169070    5.3748840   -0.4823120  
C    -0.4062680    6.2731100   -0.5219820  
C     0.8122990    5.4781270   -0.4627540  
C     0.3296670    4.0651040   -0.3904100  
N    -0.9713760    4.0190300   -0.3981400  
C     1.2664390    2.9364880   -0.3177220  
C     2.6011310    3.2796620   -0.3146750  
O     3.6015900    2.3771150   -0.2544130  
C     3.0940210    4.6783030   -0.3777520  
O     4.3197840    4.8529170   -0.3616030  
C     2.1266040    5.7799570   -0.4557030  
H    -0.4673730    7.3507050   -0.5836890  
H     4.4276410    2.9165550   -0.2620100  
H     2.5234070    6.7897580   -0.5019850  
H    -2.4832830    5.5630790   -0.5068400  
