60


C     6.5247680   -1.4234640   -3.0467270  
C     5.4495130   -1.1458480   -2.2412810  
C     5.9582520   -0.5574580   -1.0349870  
C     7.3715440   -0.4935320   -1.1818300  
N     7.6862280   -1.0419100   -2.4077420  
C     8.2148210    0.0684320   -0.2218550  
C     7.6152400    0.6127640    0.9050830  
O     8.3803750    1.1853900    1.8707030  
C     6.2075190    0.5946030    1.0758570  
O     5.7942940    1.1565020    2.2615070  
C     5.3537890   -0.0179270    0.1449910  
H     4.4173650   -1.3489310   -2.4842720  
H     8.6145250   -1.1009340   -2.7959520  
H     9.2931340    0.1145690   -0.3356160  
H     7.7534380    1.5266490    2.5372020  
H     5.0138980    1.7173520    2.0574860  
H     6.5581640   -1.8703230   -4.0302120  
C     2.4067970   -3.3528250   -0.1874540  
C     3.5684990   -2.6646110   -0.1141410  
C     3.1848310   -1.2796700    0.1440020  
C     1.7030990   -1.3191130    0.1884060  
N     1.2543430   -2.5262750   -0.0174950  
C     0.8837010   -0.1260900    0.4276810  
C     1.5942280    1.0052760    0.7224600  
O     1.0126460    2.1698400    1.0912060  
C     3.0742350    1.0483010    0.7483740  
O     3.5806780    2.1195970    1.1285880  
C     3.8985020   -0.1339470    0.3435650  
H     4.5764190   -3.0396520   -0.2074840  
H     1.7566130    2.7834230    1.2757000  
H     2.2620620   -4.4139390   -0.3482070  
C    -1.2909130   -1.3429230    0.6855940  
C    -0.5712220   -0.2101270    0.3906310  
C    -1.5576210    0.8026240   -0.0032520  
C    -2.8887060    0.1593580    0.1282040  
N    -2.6449940   -1.1290290    0.5507980  
C    -4.0906630    0.7403940   -0.1766530  
C    -4.0533270    2.1486010   -0.6231270  
O    -5.0599390    2.8177670   -0.7759310  
C    -2.6563460    2.8108330   -0.8629740  
O    -2.6133070    3.9347100   -1.3361650  
C    -1.4496530    2.0621710   -0.5017160  
H    -0.4985960    2.5583260   -0.6391100  
H    -0.9113380   -2.3119450    0.9704240  
H    -3.3644080   -1.8049960    0.7630310  
C    -6.2934860   -1.6068370    2.9672570  
C    -5.3341080   -0.8694110    2.3516980  
C    -5.8493760   -0.6225840    1.0088440  
C    -7.1800410   -1.3047150    1.0067940  
N    -7.4286450   -1.8807970    2.1513210  
C    -8.0490110   -1.2759650   -0.1397220  
C    -7.6191690   -0.6126560   -1.2374930  
O    -8.3187650   -0.5113350   -2.3773510  
C    -6.2607360    0.0372390   -1.2945340  
O    -5.8978870    0.4779420   -2.3783420  
C    -5.3843110    0.0542410   -0.0758870  
H    -4.4099490   -0.4986900    2.7721030  
H    -9.0118650   -1.7731770   -0.1038740  
H    -7.7380750   -0.0242460   -3.0023410  
H    -6.2885690   -1.9815050    3.9843810  
