64


C     4.9986410   -1.0376800   -2.3306750  
C     6.1779660   -1.7295990   -2.3621380  
C     6.8458990   -1.4879320   -1.1145950  
C     6.0060240   -0.6335270   -0.3532310  
N     4.8726570   -0.3630930   -1.1178650  
C     6.3363250   -0.2064870    0.9428390  
C     7.5454860   -0.6384960    1.4694160  
O     7.9141850   -0.2528360    2.7247030  
C     8.4025360   -1.4838660    0.7167680  
O     9.5683100   -1.8241110    1.3756680  
C     8.0660860   -1.9129450   -0.5543210  
H     6.5346360   -2.3367990   -3.1829160  
H     5.6780020    0.4094050    1.5462170  
H     8.7746020   -0.6659590    2.9125860  
H    10.0910350   -2.4226300    0.8219050  
H     8.7348350   -2.5694320   -1.1077840  
H     4.2231220   -0.9352580   -3.0759810  
C     0.5483290   -1.1561900   -0.7597440  
C     1.8904400   -1.2788600   -0.9303320  
C     2.4711560    0.0230800   -0.7221430  
C     1.4208580    0.9200810   -0.4166750  
N     0.2199610    0.1714730   -0.4457700  
C     1.6501510    2.2674630   -0.1267990  
C     2.9669650    2.7115520   -0.1568760  
O     3.2393010    4.0179010    0.1155430  
C     4.0338160    1.8407120   -0.4827010  
O     5.2698760    2.4366060   -0.5152270  
C     3.7960160    0.4956650   -0.7662820  
H     2.4194580   -2.1894690   -1.1732060  
H     0.8459410    2.9464200    0.1157010  
H     4.2051280    4.1279260    0.0648920  
H     5.9674750    1.7591740   -0.5379620  
H    -0.2297980   -1.8991250   -0.8329070  
C    -1.0669650    0.5954050   -0.2150670  
C    -2.2215610   -0.1635670   -0.2281230  
C    -3.2758430    0.7609430    0.0510770  
C    -2.5775900    2.0790350    0.2194760  
N    -1.2851410    1.9659310    0.0636200  
C    -3.2871310    3.2929610    0.5001440  
C    -4.6318970    3.1977860    0.6166430  
O    -5.4395590    4.2268560    0.8776960  
C    -5.3763950    1.8723030    0.4905750  
O    -6.5839340    1.9270710    0.7208870  
C    -4.6399000    0.6424830    0.1598540  
H    -2.3339690   -1.2132180   -0.4496130  
H    -2.7554270    4.2315810    0.6070520  
H    -6.3398080    3.8250910    0.9383430  
C    -4.1591340   -3.1987430    2.3143340  
C    -5.1890100   -3.8762850    1.7162900  
C    -5.7814300   -2.9839210    0.7599430  
C    -5.0573480   -1.7647950    0.8246540  
N    -4.0826810   -1.9219440    1.7880220  
C    -5.3761370   -0.6309000    0.0427200  
C    -6.4467570   -0.7783320   -0.8438370  
O    -6.7753050    0.2436670   -1.6827800  
C    -7.1751640   -1.9923080   -0.9218870  
O    -8.1973620   -1.9649380   -1.8540540  
C    -6.8638280   -3.0848440   -0.1354200  
H    -5.4960680   -4.8899400    1.9344220  
H    -3.3691190   -1.2411020    1.9983670  
H    -7.5727120   -0.0292580   -2.1688430  
H    -8.6896880   -2.7979850   -1.8167470  
H    -7.4426100   -4.0032140   -0.2135000  
H    -3.4663330   -3.5156640    3.0811240  
