62


C    -5.7779340    1.7891520   -1.5301540  
C    -5.2491490    0.8435370   -0.6727040  
C    -6.3772500    0.1162940   -0.1321750  
C    -7.5499960    0.6729980   -0.7012410  
N    -7.1537800    1.6910300   -1.5467530  
C    -8.8376430    0.2188690   -0.3870540  
C    -8.9417640   -0.8210000    0.5222540  
O   -10.1699780   -1.3101980    0.8626960  
C    -7.7774940   -1.3881360    1.1063730  
O    -8.0442660   -2.4153300    1.9946150  
C    -6.5105020   -0.9344960    0.7966360  
H    -7.7674550    2.2283370   -2.1386550  
H    -9.7357480    0.6428570   -0.8246760  
H   -10.0222260   -2.0405500    1.4881090  
H    -7.2090530   -2.8118170    2.2831670  
H    -5.6329220   -1.3967550    1.2388270  
H    -5.2679330    2.4945670   -2.1717330  
C    -2.2473250    3.8697400    0.3671440  
C    -1.1552000    3.0453880    0.4657730  
C    -1.6090370    1.7076080    0.2052890  
C    -2.9985640    1.7894980   -0.0617320  
N    -3.3566960    3.1182430    0.0398050  
C    -3.8163960    0.6809820   -0.3710490  
C    -3.1590940   -0.5504060   -0.3849820  
O    -3.8538170   -1.6922250   -0.6731730  
C    -1.7720410   -0.6623070   -0.1069710  
O    -1.3262470   -1.9730280   -0.1247150  
C    -0.9685800    0.4403720    0.1796440  
H    -0.1433790    3.3600150    0.6792380  
H    -4.3081680    3.4474460   -0.0224650  
H    -3.2015250   -2.4148980   -0.6979930  
H    -0.3571790   -1.9994470   -0.1548760  
H    -2.3255730    4.9404460    0.4932540  
C     1.1226750    0.8095880    1.5685700  
C     0.4659980    0.2979960    0.4855950  
C     1.4788140   -0.3955930   -0.3066460  
C     2.7588350   -0.2605600    0.4252980  
N     2.4672140    0.4534110    1.5726720  
C     3.9695470   -0.7416230    0.0061180  
C     3.9754590   -1.4636520   -1.2839820  
O     4.9808060   -1.9723180   -1.7505430  
C     2.6295020   -1.5970180   -2.0883480  
O     2.6562330   -2.1553600   -3.1729270  
C     1.4105460   -1.0382320   -1.5077360  
H     0.4950740   -1.1081070   -2.0873450  
H     0.7165200    1.3977510    2.3806330  
H     3.1768540    0.8767510    2.1525370  
C     5.3243160   -0.8986190    2.1300140  
C     5.1988240   -0.6155430    0.7978330  
C     6.5212620   -0.1595320    0.3529050  
C     7.4010510   -0.2042780    1.5458820  
N     6.6084980   -0.6499820    2.5886200  
C     8.7134970    0.1399210    1.5570910  
C     9.3159120    0.6095970    0.3135700  
O    10.4865730    0.9456950    0.2230800  
C     8.3976950    0.6930170   -0.9588960  
O     8.8697020    1.1106200   -2.0031030  
C     6.9944160    0.2692030   -0.8433620  
H     9.3360200    0.0911430    2.4452860  
H     6.3887690    0.2976910   -1.7415420  
H     4.5781690   -1.2950030    2.8069310  
H     6.9487840   -0.8787920    3.5097320  
