64


C    -1.3076090   -0.8501390   -1.8319210  
C    -2.6453080   -0.7909020   -1.5610280  
C    -2.8251120    0.1297060   -0.4695120  
C    -1.5445860    0.6136560   -0.1078530  
N    -0.6311460   -0.0007800   -0.9574360  
C    -1.3276060    1.5440050    0.9125950  
C    -2.4469320    1.9958800    1.5937920  
O    -2.3106610    2.8941000    2.6107060  
C    -3.7443670    1.5317070    1.2498620  
O    -4.7522760    2.0645520    2.0253460  
C    -3.9651340    0.6067720    0.2276710  
H    -3.4228520   -1.3425930   -2.0693250  
H    -0.3396480    1.8996920    1.1827420  
H    -3.1977370    3.0387630    2.9840730  
H    -5.5765680    1.5836610    1.8337180  
H    -0.7480580   -1.4159610   -2.5623530  
C     1.4045290    1.1577490   -1.6821860  
C     2.7423950    1.0330400   -1.4425260  
C     2.9237400   -0.0497290   -0.5120460  
C     1.6373600   -0.5659320   -0.2220930  
N     0.7232980    0.1959070   -0.9396440  
C     1.4038980   -1.6588000    0.6148040  
C     2.5211410   -2.2697930    1.1603730  
O     2.3823810   -3.3514320    1.9736500  
C     3.8302040   -1.7945780    0.8819330  
O     4.8254000   -2.4985820    1.5286860  
C     4.0620040   -0.6709640    0.0766470  
H     3.5141790    1.6577760   -1.8649110  
H     0.4090790   -2.0343740    0.8259610  
H     3.2904500   -3.6099570    2.2217610  
H     5.5167270   -2.7239340    0.8711650  
H     0.8488520    1.8435200   -2.3046650  
C    -6.0130720   -3.4100700    0.4896340  
C    -5.0959810   -2.3931270    0.5438640  
C    -5.7550410   -1.2056130    0.0775160  
C    -7.0892820   -1.5704570   -0.2456870  
N    -7.2167220   -2.9194290    0.0153370  
C    -8.0350770   -0.6551140   -0.7248760  
C    -7.6238400    0.6578480   -0.8854190  
O    -8.4961420    1.5939950   -1.3622270  
C    -6.2970830    1.0470440   -0.5639000  
O    -6.0370080    2.3837720   -0.7884730  
C    -5.3474440    0.1448810   -0.0811650  
H    -4.0701530   -2.4760420    0.8723230  
H    -8.0556270   -3.4613030   -0.1189990  
H    -9.0534980   -0.9340920   -0.9757550  
H    -8.0019980    2.4287820   -1.4394560  
H    -5.0806130    2.5335630   -0.6905460  
H    -5.9121020   -4.4541230    0.7506640  
C     5.7843280    3.3822860    0.4848320  
C     7.0732480    3.1854570    0.1317670  
C     7.1702600    1.7597170   -0.1721880  
C     5.7795800    1.2425060    0.0405420  
N     4.9848730    2.1914990    0.4318690  
C     5.4339760   -0.1711440   -0.1482540  
C     6.4863610   -0.9725340   -0.4785760  
O     6.3698380   -2.3190570   -0.6619680  
C     7.8774770   -0.4884550   -0.6927500  
O     8.7317190   -1.3192970   -1.0125560  
C     8.1800400    0.9445930   -0.5257120  
H     7.8786390    3.9058450    0.0952130  
H     7.2779080   -2.6152250   -0.9068560  
H     9.2067700    1.2606090   -0.6833020  
H     5.3057310    4.3036450    0.7935030  
