62


C    -1.1712480    5.2332950   -1.7187960  
C    -0.1956760    6.1317880   -1.3825230  
C     0.8527420    5.3915260   -0.7393870  
C     0.4422250    4.0342970   -0.6985270  
N    -0.8021350    3.9701030   -1.2878540  
C     1.2455700    2.9976940   -0.1555640  
C     2.5144090    3.3937270    0.3004210  
O     3.3771510    2.4635120    0.8097470  
C     2.9278580    4.7460530    0.2728010  
O     4.1923820    4.9419510    0.7910920  
C     2.1143350    5.7457290   -0.2255430  
H    -0.2141850    7.1958650   -1.5726010  
H    -1.2542150    3.1119360   -1.5649720  
H     4.1956620    2.9254050    1.0658170  
H     4.4426590    5.8739540    0.7091220  
H     2.4528910    6.7794530   -0.2357240  
H    -2.1144920    5.3813780   -2.2250640  
C     0.7811120    1.6219140   -0.0756830  
C    -0.5062770    1.1227060   -0.0706980  
C    -0.4419540   -0.3063040   -0.0170750  
C     0.9899970   -0.6434440    0.0038870  
N     1.6672210    0.5466880   -0.0143300  
C     1.5220080   -1.9180120   -0.0055840  
C     0.5539240   -3.0140450   -0.0097750  
O     0.8556610   -4.1865970    0.1453800  
C    -0.9679650   -2.6789710   -0.1697600  
O    -1.7133760   -3.6206210   -0.4169710  
C    -1.4354640   -1.2822160   -0.0157540  
H    -1.4070840    1.7112590   -0.0709850  
H     2.6667720    0.6579230    0.0861240  
C     5.0923300   -0.7238880    2.4765670  
C     3.8181700   -0.7982740    2.0128670  
C     3.8802890   -1.7057650    0.8724620  
C     5.3171520   -2.0941980    0.8071530  
N     6.0203140   -1.5165660    1.7457150  
C     5.8122420   -3.0317510   -0.1674110  
C     4.9249080   -3.5584080   -1.0409270  
O     5.2457020   -4.4362990   -2.0069080  
C     3.4761380   -3.1528020   -1.0424850  
O     2.7893520   -3.5512590   -1.9769490  
C     2.9511010   -2.2250950    0.0182240  
H     2.9392250   -0.3121460    2.4109390  
H     6.8638900   -3.2959820   -0.1805360  
H     4.4138550   -4.5840950   -2.5082660  
H     5.4550520   -0.1561730    3.3259850  
C    -2.8465670   -1.0050080    0.0890450  
C    -3.5253900    0.1320190    0.5467880  
C    -4.9143820   -0.1413650    0.4935590  
C    -5.0571500   -1.4708400   -0.0090750  
N    -3.8010420   -1.9592060   -0.2427190  
C    -6.3070890   -2.0756020   -0.1924240  
C    -7.4287000   -1.3339670    0.1401280  
O    -8.6687730   -1.8710930   -0.0139190  
C    -7.3055610   -0.0045790    0.6476990  
O    -8.5197980    0.5902490    0.9266730  
C    -6.0772800    0.5929220    0.8258460  
H    -3.0683120    1.0223180    0.9510520  
H    -3.5294780   -2.8955580   -0.5189470  
H    -6.4217990   -3.0850680   -0.5723870  
H    -9.3138230   -1.2057620    0.2831740  
H    -8.3718560    1.4677050    1.3093890  
H    -6.0065300    1.6069160    1.2142970  
