60


C    -2.8720560   -1.4231660    0.0192110  
C    -3.7799090   -0.4217120   -0.3557970  
C    -5.0854900   -0.9597360   -0.2438270  
C    -4.9433340   -2.3068870    0.2085530  
N    -3.6048910   -2.5518600    0.3581100  
C    -6.0409910   -3.1469780    0.4291330  
C    -7.3006720   -2.6242210    0.1854700  
O    -8.4023430   -3.3933450    0.3795710  
C    -7.4630730   -1.2792190   -0.2717210  
O    -8.7811420   -0.9244910   -0.4631270  
C    -6.3837100   -0.4516950   -0.4865600  
H    -3.5338920    0.5532250   -0.7510070  
H    -3.1480530   -3.4258240    0.5899670  
H    -5.9395600   -4.1708210    0.7722720  
H    -9.1811450   -2.8561980    0.1504700  
H    -8.8327300   -0.0142790   -0.7908470  
H    -6.5290380    0.5685460   -0.8351050  
C     0.0362430    1.8627330   -0.0079730  
C     1.1941620    1.0974010   -0.0761780  
C     0.8306370   -0.2724460   -0.0276960  
C    -0.6325060   -0.2995130    0.0276370  
N    -1.0558860    1.0099080    0.0378970  
C    -1.4312070   -1.4291660    0.0536710  
C    -0.6839370   -2.6981770    0.1424620  
O    -1.2083530   -3.7788110    0.3795340  
C     0.8682590   -2.7064730   -0.0852630  
O     1.3666600   -3.8162650   -0.2665220  
C     1.6079630   -1.4477850   -0.0497070  
H     2.1750400    1.5221640   -0.1844480  
H    -1.9960860    1.3137570    0.2430100  
C     3.0510920    5.0766830   -0.1365570  
C     2.2727740    6.1806120   -0.0921780  
C     0.9045600    5.6828650   -0.0257520  
C     1.0531250    4.1936370   -0.0419270  
N     2.3048300    3.8528310   -0.1038360  
C    -0.1115170    3.3010460    0.0099160  
C    -1.3289590    3.9342260    0.0797130  
O    -2.5104490    3.2870700    0.1390930  
C    -1.4920520    5.4185970    0.1017100  
O    -2.6458190    5.8533150    0.1697760  
C    -0.3035760    6.2771600    0.0429790  
H     2.5780080    7.2175090   -0.1019030  
H    -3.1851230    4.0074680    0.1913250  
H    -0.4604690    7.3512830    0.0601760  
H     4.1307290    5.0155590   -0.1916020  
C     3.0484610   -1.4636160   -0.0363070  
C     3.9646030   -0.4605970    0.2696680  
C     5.2777600   -1.0105520    0.1796320  
C     5.1063050   -2.4344510   -0.1999250  
N     3.7529430   -2.6365360   -0.3189980  
C     6.1332440   -3.3054770   -0.3772810  
C     7.4978050   -2.8229160   -0.1881520  
O     8.4815740   -3.5353350   -0.3270180  
C     7.7043890   -1.3168090    0.2137080  
O     8.8435020   -0.8973480    0.3739000  
C     6.5226620   -0.4779630    0.3791380  
H     3.7361260    0.5432400    0.5872440  
H     5.9896890   -4.3458490   -0.6519630  
H     6.6753390    0.5601560    0.6590500  
H     3.2668250   -3.5110870   -0.4793010  
