64


C    -2.2584030   -2.1616640    2.9660840  
C    -2.7135230   -3.3857500    2.5500890  
C    -3.5386110   -3.1560410    1.3993730  
C    -3.5409910   -1.7542900    1.1604810  
N    -2.7679290   -1.1767420    2.1453510  
C    -4.2708830   -1.1392580    0.1147110  
C    -5.0123370   -2.0189850   -0.6739570  
O    -5.7859930   -1.5260410   -1.7122280  
C    -5.0247840   -3.4160410   -0.4554010  
O    -5.8244880   -4.1090250   -1.3492460  
C    -4.2981950   -3.9972240    0.5642960  
H    -2.4965990   -4.3386530    3.0127220  
H    -2.5043060   -0.2030590    2.1613330  
H    -6.1979970   -2.2952680   -2.1467110  
H    -5.7456580   -5.0599590   -1.1843700  
H    -4.3247570   -5.0733940    0.7219500  
H    -1.6100670   -1.9025840    3.7912760  
C    -0.9362150    1.9108080   -0.1432670  
C    -1.6861230    0.7333100   -0.0801970  
C    -3.0611080    1.0894670   -0.1066970  
C    -3.1140090    2.5144230   -0.2019330  
N    -1.8265560    2.9783590   -0.2101440  
C    -4.3126590    3.2284230   -0.2954070  
C    -5.4769260    2.4799000   -0.3195780  
O    -6.6818620    3.0900480   -0.4336690  
C    -5.4578740    1.0531150   -0.2226470  
O    -6.7155530    0.4928070   -0.2344380  
C    -4.2760320    0.3321340   -0.0860300  
H    -1.2563170   -0.2545090   -0.0494810  
H    -1.5296140    3.9404740   -0.2891570  
H    -4.3545900    4.3094770   -0.3733010  
H    -7.3393000    2.3666510   -0.4532650  
H    -6.6876510   -0.2918020   -0.8265600  
C     2.3461710   -1.0012720    0.0316490  
C     3.4532190   -0.2056550    0.0185880  
C     2.8986110    1.1649380   -0.0639790  
C     1.4221070    0.9753480   -0.0754360  
N     1.1196540   -0.2906050   -0.0152340  
C     0.4927800    2.1104080   -0.1533030  
C     1.0918110    3.3479520   -0.2463470  
O     0.3879060    4.5131110   -0.3281630  
C     2.5426040    3.5556810   -0.2707940  
O     2.9727620    4.7165480   -0.3613080  
C     3.4463370    2.3897500   -0.1764210  
H     1.0829040    5.2085100   -0.3898210  
H     4.5139840    2.5846410   -0.1887700  
H     2.3164700   -2.0824220    0.0828490  
C     5.6430750   -3.3290670   -2.3386280  
C     4.6783850   -2.5064820   -1.8162600  
C     5.3170300   -1.6681260   -0.8416620  
C     6.6903520   -2.0312320   -0.8238520  
N     6.8569290   -3.0487140   -1.7409570  
C     7.6346380   -1.4047840   -0.0040330  
C     7.1802830   -0.3873720    0.8213840  
O     8.0514220    0.2432850    1.6612270  
C     5.8174080   -0.0022760    0.8175280  
O     5.5320940    1.0152540    1.7141420  
C     4.8639700   -0.6128230   -0.0010370  
H     3.6368090   -2.4934550   -2.1022490  
H     7.7311430   -3.5034970   -1.9518940  
H     8.6823510   -1.6867910    0.0159500  
H     7.5315010    0.8796090    2.1827870  
H     4.5787260    1.0277180    1.8920080  
H     5.5673400   -4.0995730   -3.0928320  
