60


C     1.0569360   -2.9931330   -1.4479390  
C     1.9122400   -2.2217650   -0.6721800  
C     2.8931140   -3.1430440   -0.1257690  
C     2.5610210   -4.4362900   -0.5996690  
N     1.4439630   -4.3084630   -1.4055680  
C     3.2774720   -5.5884830   -0.2540790  
C     4.3625820   -5.4312140    0.5928750  
O     5.1071970   -6.5130070    0.9585930  
C     4.7114970   -4.1441780    1.0818570  
O     5.8170670   -4.1452140    1.9110440  
C     3.9968030   -3.0130290    0.7406660  
H     1.0076290   -5.0582090   -1.9193410  
H     3.0192250   -6.5757820   -0.6230640  
H     5.8288100   -6.1840900    1.5227030  
H     6.0807240   -3.2309120    2.0941220  
H     4.3054410   -2.0383840    1.1024140  
H     0.2360200   -2.6836420   -2.0793400  
C    -1.6689410    0.2465140   -0.2237580  
C    -1.0806330    1.4928100   -0.1767880  
C     0.3376360    1.3120800   -0.2465260  
C     0.5610380   -0.1460930   -0.3638710  
N    -0.6894900   -0.7262170   -0.3673210  
C     1.7761880   -0.7797630   -0.4684160  
C     2.9479220    0.1131760   -0.4279140  
O     4.0988480   -0.2827170   -0.5232340  
C     2.7412020    1.6669210   -0.2575520  
O     3.7422720    2.3456250   -0.0960850  
C     1.3764360    2.2217710   -0.2425940  
H    -1.5947200    2.4335950   -0.0649340  
H    -0.8845520   -1.7148380   -0.2947300  
C    -3.0481110   -0.1463180   -0.1496860  
C    -4.1749140    0.6209360   -0.0124700  
C    -5.2738450   -0.3103490    0.0099130  
C    -4.6242320   -1.6586340   -0.1280840  
N    -3.3306180   -1.5566750   -0.2208850  
C    -5.3991090   -2.8710870   -0.1474960  
C    -6.7437760   -2.7560400   -0.0372960  
O    -7.5909400   -3.7907020   -0.0401080  
C    -7.4289050   -1.4108960    0.1027940  
O    -8.6562400   -1.4191870    0.1961950  
C    -6.6198170   -0.1903210    0.1211050  
H    -4.2381150    1.6969500    0.0669570  
H    -4.9080590   -3.8326390   -0.2460780  
H    -8.4866030   -3.3932500    0.0550840  
H    -7.1434310    0.7549270    0.2239080  
C    -0.7521560    4.8165610    2.6483520  
C    -0.4107870    6.0527790    2.2202830  
C     0.4165870    5.8294810    1.0395050  
C     0.4656260    4.3347160    0.9011820  
N    -0.2210480    3.7565520    1.8438170  
C     1.2206730    3.6818290   -0.1612170  
C     1.8552280    4.5175920   -1.0393320  
O     2.5404600    4.0833610   -2.1041650  
C     1.8114190    6.0133410   -0.9254150  
O     2.4081710    6.6698940   -1.7785170  
C     1.0593870    6.6385160    0.1776670  
H    -0.6743220    7.0096550    2.6489850  
H     2.9012670    4.8912190   -2.5323100  
H     1.0620800    7.7229980    0.2315560  
H    -1.3603890    4.5513030    3.5050930  
