60


C     6.1357320   -0.2783250    0.8520910  
C     4.8604580   -0.1989790    0.3163100  
C     4.4766340   -1.5544860   -0.0303670  
C     5.5610210   -2.3927030    0.3246670  
N     6.5513940   -1.5818330    0.8567990  
C     5.5544680   -3.7770710    0.1213410  
C     4.4244410   -4.3296370   -0.4609750  
O     4.3611330   -5.6721530   -0.6826800  
C     3.3309400   -3.5045300   -0.8382560  
O     2.2871520   -4.1981290   -1.4139510  
C     3.3444170   -2.1365420   -0.6348800  
H     7.4344440   -1.9062060    1.2206180  
H     6.3884700   -4.4170910    0.3900660  
H     3.5117780   -5.8533530   -1.1216440  
H     1.6098060   -3.5773650   -1.7219310  
H     2.5028630   -1.5272840   -0.9523870  
H     6.7581890    0.5067280    1.2567030  
C     4.0993590    1.0155560    0.1627160  
C     4.5189340    2.3228010    0.0906130  
C     3.3608350    3.1620550    0.0063780  
C     2.1948300    2.2422910    0.0052480  
N     2.6997810    0.9559750    0.0527210  
C     0.8854290    2.6380190   -0.0634290  
C     0.6510680    4.1026890    0.0319710  
O    -0.4506790    4.5793220    0.2441480  
C     1.8713770    5.0816430   -0.0972050  
O     1.6416290    6.2810120   -0.1845270  
C     3.2073460    4.5160770   -0.0814980  
H     5.5457640    2.6585210    0.0561350  
H     4.0504800    5.1985460   -0.1289640  
H     2.1435500    0.2603620    0.5582470  
C    -0.2247170   -1.1353150    2.0172530  
C    -1.5152120   -1.2889690    1.6326170  
C    -1.7696720   -0.1987150    0.7004740  
C    -0.4821110    0.5628490    0.6589580  
N     0.4129070   -0.0127680    1.4249870  
C    -0.2903310    1.7513980   -0.1530600  
C    -1.3249580    2.0328600   -1.0081740  
O    -1.2782180    3.0078890   -1.9169360  
C    -2.6370330    1.3013570   -0.9896630  
O    -3.5381360    1.7474460   -1.6903130  
C    -2.8268620    0.1168200   -0.0926540  
H    -2.2006830   -2.0782620    1.9065000  
H    -2.1754930    3.0524870   -2.3155700  
H     0.3508480   -1.7608680    2.6891770  
C    -5.7274710   -0.8214260    3.1029020  
C    -6.6908200   -1.4207600    2.3595780  
C    -6.2249100   -1.4409070    0.9881140  
C    -4.8884240   -0.7946190    0.9965540  
N    -4.6466070   -0.4483350    2.3054290  
C    -4.1198730   -0.5727870   -0.1168680  
C    -4.6342000   -1.1004240   -1.3983900  
O    -3.9694420   -1.1034490   -2.4196250  
C    -6.0641780   -1.7459940   -1.4277250  
O    -6.5213020   -2.1095980   -2.4986080  
C    -6.7868200   -1.8947290   -0.1635360  
H    -7.6335310   -1.8073430    2.7178450  
H    -7.7701510   -2.3538270   -0.1953480  
H    -5.7038750   -0.6152970    4.1646380  
H    -3.8100600    0.0132700    2.6296610  
