62


C    -3.7076170    1.0287790   -2.0503230  
C    -5.0050830    1.4488860   -2.1232760  
C    -5.6738050    0.9694180   -0.9450420  
C    -4.7191910    0.2449790   -0.1879770  
N    -3.5074890    0.2927370   -0.8799380  
C    -5.0247930   -0.3332410    1.0492450  
C    -6.3211960   -0.1937610    1.5191610  
O    -6.6721730   -0.7455360    2.7182490  
C    -7.2924100    0.5189570    0.7686760  
O    -8.5372660    0.5739010    1.3691460  
C    -6.9845760    1.0990420   -0.4480450  
H    -5.4429360    2.0186450   -2.9319850  
H    -4.3054010   -0.8978230    1.6294320  
H    -7.6189380   -0.5669070    2.8500060  
H    -9.1658030    0.9972100    0.7661580  
H    -7.7410980    1.6505720   -1.0032790  
H    -2.8915940    1.1451670   -2.7486680  
C     0.4909880    2.0725780   -0.5586950  
C    -0.8572300    1.8562750   -0.7097140  
C    -1.1174960    0.4671200   -0.4538110  
C     0.1797700   -0.1419150   -0.1210630  
N     1.1117320    0.8902580   -0.1505990  
C     0.4186440   -1.4619300    0.1606850  
C    -0.7761370   -2.3282720    0.1301550  
O    -0.7486260   -3.5183570    0.3969460  
C    -2.1819580   -1.7146130   -0.2475030  
O    -3.1241960   -2.4822010   -0.3555380  
C    -2.2780000   -0.2708340   -0.4873460  
H    -1.6030570    2.6090920   -0.9180120  
H     2.0967600    0.6949370   -0.2767700  
C     2.6692990   -1.3143720    1.3034930  
C     1.7412490   -1.9806060    0.5157860  
C     2.3726940   -3.2271770    0.1236590  
C     3.6690920   -3.2367850    0.6958680  
N     3.8154070   -2.0630490    1.4117020  
C     4.5823090   -4.2820280    0.5073750  
C     4.1735610   -5.3487170   -0.2757570  
O     5.0116540   -6.4027430   -0.4873930  
C     2.8779550   -5.3582120   -0.8594970  
O     2.6140380   -6.4888930   -1.6094070  
C     1.9855480   -4.3210090   -0.6761580  
H     4.6186250   -1.8154770    1.9689540  
H     5.5724390   -4.2862560    0.9513660  
H     4.5226550   -7.0519790   -1.0227100  
H     1.6703960   -6.5153530   -1.8280660  
H     0.9917270   -4.3694410   -1.1082880  
H     2.5603260   -0.3951200    1.8616260  
C     0.8989920    4.3315610   -1.5616520  
C     1.2543000    3.2876100   -0.7466500  
C     2.5298520    3.6587290   -0.1346350  
C     2.8735480    4.9974130   -0.6749710  
N     1.8326570    5.3445420   -1.5211710  
C     3.9920470    5.6949900   -0.3611480  
C     4.9393730    5.1006740    0.5822840  
O     5.9764850    5.6487930    0.9168640  
C     4.5874790    3.6954290    1.1883010  
O     5.3557800    3.1797880    1.9835360  
C     3.3388050    3.0475730    0.7695990  
H     4.2192570    6.6757000   -0.7674750  
H     3.1043530    2.0910490    1.2230310  
H     0.0284420    4.4189710   -2.1980420  
H     1.7960520    6.1883180   -2.0726120  
