64


C     6.9929770    0.2366510   -2.2903800  
C     7.5356210   -0.9405170   -1.8476100  
C     6.5762470   -1.5440070   -0.9660940  
C     5.4589910   -0.6684830   -0.9188390  
N     5.7329100    0.4002910   -1.7428920  
C     4.3174310   -0.9501210   -0.1457320  
C     4.3108910   -2.1409350    0.5804280  
O     3.2287690   -2.4682540    1.3554050  
C     5.4141400   -3.0271750    0.5210800  
O     5.2417030   -4.1656740    1.2860750  
C     6.5381680   -2.7458990   -0.2331540  
H     8.5043370   -1.3363030   -2.1189050  
H     5.1525490    1.2192730   -1.8419190  
H     3.4532480   -3.3044160    1.8019260  
H     6.0718000   -4.6634730    1.3221400  
H     7.3701060   -3.4459630   -0.2632710  
H     7.3968650    0.9832600   -2.9591940  
C     1.8797840   -0.4983890   -0.3448010  
C     0.9728330    0.4894920   -0.1119100  
C     1.7457950    1.6571680    0.3089420  
C     3.1698300    1.2388910    0.3157930  
N     3.1958490   -0.0834640   -0.1128120  
C     4.2024380    2.0369360    0.6988440  
C     3.9069110    3.4038330    1.1159550  
O     4.7692860    4.1929470    1.4737720  
C     2.4073610    3.8713490    1.1002840  
O     2.1399420    5.0145300    1.4361350  
C     1.3813950    2.9084060    0.6859870  
H     5.2321930    1.6994100    0.7393890  
H     0.3494950    3.2387660    0.6813610  
H     1.7078140   -1.5092500   -0.6863470  
C    -1.5497910   -2.6565460    1.6077810  
C    -2.7653840   -2.2008920    1.1679980  
C    -2.5191600   -0.9966430    0.4266610  
C    -1.1180000   -0.7766200    0.4460260  
N    -0.5514030   -1.8081760    1.1670090  
C    -0.4879930    0.3259780   -0.1749540  
C    -1.3370470    1.2175160   -0.8299120  
O    -0.8197490    2.3112780   -1.4654520  
C    -2.7396730    1.0113460   -0.8644160  
O    -3.4248350    1.9933650   -1.5499050  
C    -3.3599450   -0.0811210   -0.2579590  
H    -3.7263940   -2.6584790    1.3523090  
H     0.4290310   -1.8790530    1.3989840  
H    -1.5747870    2.8191510   -1.8126350  
H    -4.3782940    1.8669530   -1.4005320  
H    -1.3050870   -3.5264910    2.2009100  
C    -6.6041330   -0.0545360    2.8843570  
C    -5.3970810   -0.0075640    2.2370320  
C    -5.6608590   -0.1992910    0.8386370  
C    -7.0657160   -0.3556400    0.6982800  
N    -7.6135100   -0.2635350    1.9613740  
C    -7.6913980   -0.5513970   -0.5395210  
C    -6.8802140   -0.5942310   -1.6615130  
O    -7.4296530   -0.7973240   -2.8949570  
C    -5.4745380   -0.4336450   -1.5467440  
O    -4.8029350   -0.5118470   -2.7503200  
C    -4.8402210   -0.2330770   -0.3193280  
H    -4.4310240    0.1395420    2.6975730  
H    -8.5955570   -0.3336080    2.1761200  
H    -8.7643070   -0.6752950   -0.6465600  
H    -6.6936760   -0.8372750   -3.5303480  
H    -3.8479680   -0.5531890   -2.5687670  
H    -6.8354380    0.0434360    3.9356880  
