62


C    -0.1964300   -1.4901210    1.6310500  
C    -1.4884990   -1.7173180    1.2315100  
C    -1.9137680   -0.5440550    0.5264800  
C    -0.8304310    0.3772100    0.5571200  
N     0.1948820   -0.2204330    1.2616860  
C    -0.8951380    1.6694650   -0.0258250  
C    -2.0603940    1.9262970   -0.7712420  
O    -2.1779410    3.0753840   -1.4883130  
C    -3.1362490    1.0056390   -0.8224370  
O    -4.2105060    1.4529180   -1.5674150  
C    -3.1085560   -0.2217680   -0.1662150  
H    -2.0741850   -2.6069760    1.4120290  
H     1.1611200    0.0591670    1.0975680  
H    -3.0841670    3.0919230   -1.8455240  
H    -4.9611580    0.8519670   -1.4191950  
H     0.4930190   -2.1373270    2.1549660  
C     3.5590360    1.6063570   -0.1547290  
C     3.8320760    2.9497080   -0.1821800  
C     2.5583780    3.6115470   -0.0368230  
C     1.5551110    2.4972410    0.0123240  
N     2.1541360    1.3432640   -0.0352600  
C     0.1214510    2.7342790    0.1288240  
C    -0.2167620    4.0352360    0.4121790  
O    -1.4579390    4.4353590    0.7099470  
C     0.7688400    5.1650210    0.4120690  
O     0.3425300    6.2974010    0.6552110  
C     2.1880210    4.8970740    0.1474880  
H     4.8001680    3.4286390   -0.2310200  
H    -1.3879630    5.4085110    0.8393910  
H     2.8704140    5.7413610    0.1562240  
C     4.4828010    0.5023720   -0.1910680  
C     5.8113180    0.5200590   -0.5367440  
C     6.2706200   -0.8389660   -0.3918410  
C     5.0564970   -1.5892610    0.0709950  
N     4.0223100   -0.8105260    0.1852310  
C     5.1054350   -3.0038280    0.3417320  
C     6.2863520   -3.6392440    0.1574010  
O     6.4792130   -4.9487750    0.3657770  
C     7.5251960   -2.9101390   -0.3119320  
O     8.5518230   -3.5757260   -0.4480440  
C     7.4555710   -1.4683250   -0.5779890  
H     6.3962370    1.3643780   -0.8743250  
H     4.2149690   -3.5248420    0.6750620  
H     7.4250890   -5.1094630    0.1487590  
H     8.3660470   -0.9782430   -0.9089660  
C    -5.8888690   -1.8652040    2.9849970  
C    -4.8863790   -1.1973850    2.3314830  
C    -5.0012180   -1.5237730    0.9380990  
C    -6.1094190   -2.4023830    0.8065760  
N    -6.6305110   -2.5918070    2.0701000  
C    -6.5285020   -2.9223800   -0.4246370  
C    -5.8093480   -2.5502960   -1.5486100  
O    -6.1574520   -3.0381350   -2.7755710  
C    -4.7035140   -1.6666630   -1.4431400  
O    -4.0842250   -1.4015800   -2.6486180  
C    -4.2807770   -1.1366760   -0.2224170  
H    -4.1457040   -0.5546510    2.7845300  
H    -7.4242970   -3.1718440    2.2910750  
H    -7.3710920   -3.5991050   -0.5248030  
H    -5.5012940   -2.7009110   -3.4103780  
H    -3.2400470   -0.9512130   -2.4721940  
H    -6.1416110   -1.8879370    4.0357170  
