64


C    -1.0020510   -0.3030220    1.5735570  
C    -2.3311000   -0.4669930    1.2933700  
C    -2.6807650    0.5060210    0.2967730  
C    -1.5043490    1.2379650    0.0008530  
N    -0.4808620    0.7358190    0.8012320  
C    -1.4541790    2.2391500   -0.9747860  
C    -2.6292390    2.5158790   -1.6544210  
O    -2.6500840    3.4962660   -2.6027380  
C    -3.8236300    1.8056900   -1.3727420  
O    -4.9042110    2.2207170   -2.1270980  
C    -3.8823070    0.7983820   -0.4049660  
H    -2.9883380   -1.1949430    1.7459830  
H    -0.5548720    2.8009160   -1.1959600  
H    -3.5692790    3.5676790   -2.9150280  
H    -5.7184360    1.8402170   -1.7493830  
H    -0.3701670   -0.8008130    2.2959890  
C     2.9278610   -1.7007020   -0.2736760  
C     3.9188180   -0.7549040   -0.0677000  
C     3.2485370    0.4554890    0.3674590  
C     1.8673490    0.1588590    0.4063750  
N     1.7058860   -1.1551500    0.0102640  
C     0.8861120    1.1004970    0.7646880  
C     1.3253410    2.3845890    1.0822580  
O     0.4309330    3.3376910    1.4485810  
C     2.7085810    2.7040250    1.0102160  
O     2.9777400    4.0169850    1.3297230  
C     3.6670720    1.7687130    0.6646590  
H     0.8160690   -1.6304050   -0.0397090  
H     0.9273940    4.1622200    1.5949700  
H     3.9226220    4.1988990    1.2170260  
H     4.7122460    2.0578420    0.5920600  
H     3.0215030   -2.7350490   -0.5714270  
C    -5.1359290    0.1025590   -0.1112010  
C    -5.6736260   -0.3178680    1.0825350  
C    -6.9475220   -0.9228400    0.8110860  
C    -7.1519530   -0.8479290   -0.5877250  
N    -6.0695600   -0.1627880   -1.1372420  
C    -8.2852070   -1.3707090   -1.2159200  
C    -9.2416610   -1.9748550   -0.4111210  
O   -10.3652790   -2.5056050   -0.9739080  
C    -9.0646300   -2.0399440    0.9956200  
O   -10.1058840   -2.6590090    1.6598400  
C    -7.9391600   -1.5221360    1.6118430  
H    -5.2308620   -0.1547480    2.0553620  
H    -5.7572060   -0.3403500   -2.0843390  
H    -8.4436420   -1.3186400   -2.2882990  
H   -10.9053960   -2.8697270   -0.2514340  
H    -9.9232320   -2.6690950    2.6109620  
H    -7.8237920   -1.5871200    2.6919720  
C     5.3334590   -0.9788110   -0.2459870  
C     5.9999990   -1.8514390   -1.0688140  
C     7.4103790   -1.7145600   -0.8292940  
C     7.5462310   -0.6772700    0.2235590  
N     6.2629110   -0.2218680    0.4924520  
C     8.7228150   -0.2953430    0.7758200  
C     9.9539950   -0.9130710    0.2842530  
O    11.0579600   -0.6245750    0.7205470  
C     9.8394200   -1.9826710   -0.8632800  
O    10.8641700   -2.4981780   -1.2885740  
C     8.5100640   -2.3214470   -1.3605750  
H     5.5416730   -2.4867270   -1.8134050  
H     8.8028980    0.4572220    1.5547440  
H     8.4416220   -3.0751920   -2.1391920  
H     6.0154460    0.2035670    1.3748970  
