64


C     5.7779470   -0.4308160   -2.8338700  
C     5.2057200   -0.4967900   -1.5851660  
C     6.2699620   -0.6352420   -0.6248940  
C     7.4782460   -0.6453640   -1.3656840  
N     7.1467270   -0.5301320   -2.7026000  
C     8.7334640   -0.7677540   -0.7555290  
C     8.7644950   -0.8823500    0.6248710  
O     9.9597620   -0.9993040    1.2704280  
C     7.5596680   -0.8791340    1.3808170  
O     7.7587750   -1.0077400    2.7412070  
C     6.3225350   -0.7597990    0.7777800  
H     7.8050300   -0.5060140   -3.4653550  
H     9.6629270   -0.7731750   -1.3156120  
H     9.7691860   -1.0550820    2.2228350  
H     6.9094830   -0.9370130    3.2017240  
H     5.4119700   -0.7593230    1.3719230  
H     5.3097090   -0.3176080   -3.8007800  
C     2.8921800   -1.3962400   -1.7917090  
C     1.6352980   -1.0693990   -1.3578520  
C     1.7641740    0.1142350   -0.5574710  
C     3.1400620    0.4649190   -0.5534830  
N     3.8192170   -0.4772260   -1.3154210  
C     3.6355910    1.5974270    0.1046100  
C     2.7247900    2.3841590    0.7913550  
O     3.1534070    3.4872070    1.4721650  
C     1.3445600    2.0552240    0.8021730  
O     0.5676400    2.9291530    1.5382360  
C     0.8369520    0.9372130    0.1344100  
H     0.7261590   -1.6127960   -1.5709300  
H     4.6865880    1.8630570    0.0984200  
H     2.3765950    3.8699290    1.9158410  
H    -0.3096380    2.5338740    1.6754160  
H     3.2328090   -2.2243990   -2.3966280  
C    -1.5562030   -2.5053120    1.7821340  
C    -0.5422550   -1.6658840    1.4080300  
C    -1.1455920   -0.5613150    0.7178560  
C    -2.5442550   -0.7977530    0.6932030  
N    -2.7633900   -1.9952120    1.3368320  
C    -3.4808610    0.1040210    0.1251570  
C    -2.9315710    1.2928280   -0.3793310  
O    -3.7375930    2.2443330   -0.9443270  
C    -1.5394860    1.5396200   -0.3611830  
O    -1.1891190    2.7409810   -0.9378130  
C    -0.6187790    0.6349400    0.1686670  
H     0.5122130   -1.8095510    1.5914940  
H    -3.6742260   -2.3312780    1.6101340  
H    -3.1528890    2.9466580   -1.2846080  
H    -0.2207180    2.7724110   -1.0337660  
H    -1.5263340   -3.4403860    2.3231750  
C    -4.9049470   -0.1953860    0.0659350  
C    -5.5454180   -1.4159680    0.0944800  
C    -6.9613190   -1.1832450    0.0047900  
C    -7.1272650    0.2895250   -0.0796520  
N    -5.8588950    0.8230590   -0.0146120  
C    -8.3241840    0.9196600   -0.1953690  
C    -9.5359980    0.1070530   -0.2360520  
O   -10.6558210    0.5861750   -0.3392680  
C    -9.3846260   -1.4564610   -0.1403950  
O   -10.3923080   -2.1490550   -0.1682920  
C    -8.0403430   -2.0156440   -0.0211180  
H    -5.0720670   -2.3862410    0.0771740  
H    -8.4263800    1.9987340   -0.2580160  
H    -7.9485570   -3.0960640    0.0397110  
H    -5.6106660    1.7810280   -0.2152970  
