62


C     4.1528000   -1.1137680   -2.7251640  
C     5.3336170   -1.7569770   -2.9686810  
C     6.0898450   -1.7366780   -1.7469990  
C     5.3040150   -1.0583450   -0.7818120  
N     4.1136040   -0.6788750   -1.3997230  
C     5.7222840   -0.8727390    0.5415420  
C     6.9675010   -1.3710160    0.8933030  
O     7.4257320   -1.2163440    2.1701730  
C     7.7733310   -2.0456930   -0.0614610  
O     8.9845530   -2.4850360    0.4408510  
C     7.3513520   -2.2339020   -1.3646760  
H     5.6362580   -2.1892610   -3.9127540  
H     5.1213230   -0.3566280    1.2819400  
H     8.3175050   -1.6032250    2.2037600  
H     9.5097020   -2.8706690   -0.2757090  
H     7.9833100   -2.7607190   -2.0772150  
H     3.3206150   -0.8942320   -3.3788100  
C     1.7860810   -0.4708070   -0.6112940  
C     3.0452140    0.0095710   -0.7994480  
C     3.0611830    1.3856020   -0.3264110  
C     1.6886340    1.6599160    0.1552860  
N     0.9484800    0.4919520   -0.0467710  
C     1.3007900    2.8340020    0.7094190  
C     2.2846940    3.9103880    0.8168150  
O     2.0276130    4.9963420    1.3128170  
C     3.7373590    3.6477790    0.2749800  
O     4.5646520    4.5428340    0.3389000  
C     4.0405540    2.3241850   -0.2792100  
H     0.2944320    3.0227780    1.0652510  
H     5.0502190    2.1338140   -0.6283160  
H     1.3911950   -1.4475600   -0.8558530  
C    -1.1352120   -2.4119920    2.4806800  
C    -0.1867250   -1.6543760    1.8582880  
C    -0.8805840   -0.6715550    1.0654420  
C    -2.3198650   -0.9026680    1.2802670  
N    -2.4042410   -1.9600630    2.1782710  
C    -3.3528010   -0.2026040    0.7107320  
C    -2.9401340    0.8678540   -0.2273420  
O    -3.7321870    1.6034110   -0.7894540  
C    -1.4082130    1.1018760   -0.5261900  
O    -1.1087150    1.9109520   -1.3891140  
C    -0.4283340    0.3135430    0.2205750  
H     0.8831550   -1.7617440    1.9562050  
H    -1.0052970   -3.2522680    3.1501550  
H    -3.2676480   -2.4498160    2.3640350  
C    -5.2328190   -0.7506930    2.3008380  
C    -4.7582030   -0.4395750    1.0326990  
C    -5.9199370   -0.4291570    0.1615560  
C    -7.0427440   -0.7515670    0.9624290  
N    -6.5907250   -0.9370370    2.2572570  
C    -8.3428430   -0.8608600    0.4540870  
C    -8.5149790   -0.6342870   -0.9014330  
O    -9.7564770   -0.7137660   -1.4545190  
C    -7.4012850   -0.3125540   -1.7242840  
O    -7.7312220   -0.1130260   -3.0497080  
C    -6.1211150   -0.2142190   -1.2166970  
H    -7.1796780   -1.0978770    3.0599530  
H    -9.1996600   -1.1039970    1.0738610  
H    -9.6661610   -0.4867770   -2.3967330  
H    -6.9711980    0.2616920   -3.5198800  
H    -5.2956830    0.0625150   -1.8635900  
H    -4.7045680   -0.7729100    3.2438900  
