62


C    -2.3662300    1.4292030    1.7319530  
C    -3.4758070    2.2240810    1.7745650  
C    -3.2729760    3.2932490    0.8345700  
C    -1.9980080    3.0961920    0.2470610  
N    -1.4470410    1.9442340    0.8164550  
C    -1.4953870    3.9363270   -0.7522030  
C    -2.2846370    5.0059240   -1.1490610  
O    -1.8333370    5.8580970   -2.1173510  
C    -3.5555120    5.2264990   -0.5613560  
O    -4.2219730    6.3313680   -1.0594670  
C    -4.0553580    4.3855550    0.4172410  
H    -4.3335170    2.0795080    2.4181460  
H    -0.5236290    3.7951100   -1.2074720  
H    -2.5147910    6.5413890   -2.2376360  
H    -5.0522610    6.4511940   -0.5756150  
H    -5.0387760    4.5652950    0.8479440  
H    -2.1239340    0.5327610    2.2808100  
C    -0.5861890   -2.1688330   -0.1716620  
C     0.7763010   -2.1002940   -0.3827480  
C     1.1519510   -0.7375800   -0.1687680  
C    -0.1341230   -0.0618990    0.1893280  
N    -1.1353110   -0.8872840    0.1780120  
C    -0.2063750    1.3541310    0.5115950  
C     0.9722120    2.0341730    0.4986390  
O     1.0905850    3.3322260    0.8058620  
C     2.2778670    1.3866610    0.1090070  
O     3.2596630    2.1367150    0.1068480  
C     2.3390350   -0.0447820   -0.2302650  
H     1.4388620   -2.9147100   -0.6382000  
H     2.0476970    3.5317990    0.6769500  
C    -1.1444430   -4.6060060   -0.4820720  
C    -1.4883290   -3.2775560   -0.2360480  
C    -2.9322250   -3.2608500   -0.0618190  
C    -3.3842590   -4.5911330   -0.2143820  
N    -2.2666980   -5.3787100   -0.4684390  
C    -4.7299810   -4.9596940   -0.1162330  
C    -5.6446950   -3.9491850    0.1431800  
O    -6.9705410   -4.2430720    0.2495890  
C    -5.2088740   -2.6064420    0.2979770  
O    -6.2282650   -1.7130740    0.5517990  
C    -3.8762590   -2.2514420    0.1996050  
H    -2.2820580   -6.3778770   -0.6095310  
H    -5.0750200   -5.9815740   -0.2348260  
H    -7.4373860   -3.4072210    0.4241280  
H    -5.8598040   -0.8183570    0.6161430  
H    -3.5532380   -1.2227330    0.3218570  
H    -0.1721740   -5.0444090   -0.6561580  
C     3.7035960   -1.4951550   -1.7475330  
C     3.5970200   -0.6361370   -0.6871290  
C     4.9519210   -0.5017470   -0.1372000  
C     5.8281870   -1.3571130   -0.9767900  
N     5.0045470   -1.9292390   -1.9282480  
C     7.1642310   -1.5162050   -0.8007220  
C     7.8046970   -0.8166170    0.3073900  
O     8.9994640   -0.8966900    0.5491630  
C     6.8960720    0.0702510    1.2321280  
O     7.4019260    0.6472440    2.1810440  
C     5.4636730    0.1738710    0.9221900  
H     7.7781370   -2.1468970   -1.4365380  
H     4.8647770    0.8187200    1.5533230  
H     2.9229570   -1.8250930   -2.4196800  
H     5.3229600   -2.5071020   -2.6906340  
