62


C    -3.3338020    0.4571540   -1.8950290  
C    -4.6580610    0.7760870   -1.8039340  
C    -5.1856470    0.0896720   -0.6563930  
C    -4.1218660   -0.6515580   -0.0855080  
N    -2.9810700   -0.4096860   -0.8543050  
C    -4.2754720   -1.4193590    1.0739410  
C    -5.5328090   -1.4516400    1.6568500  
O    -5.7388840   -2.1909420    2.7851580  
C    -6.6127670   -0.7214500    1.0942560  
O    -7.7994270   -0.8509070    1.7913280  
C    -6.4536220    0.0440520   -0.0458680  
H    -5.2039020    1.4125880   -2.4872840  
H    -3.4714220   -2.0022400    1.5067770  
H    -6.6827110   -2.1177650    3.0084590  
H    -8.5119560   -0.4185130    1.2980140  
H    -7.2918990    0.6036000   -0.4563950  
H    -2.5970740    0.7218380   -2.6398060  
C     0.7654760    1.6913690   -0.2836140  
C     1.5847120    0.5951640   -0.2289110  
C     0.7888350   -0.5951610   -0.3699310  
C    -0.5977300   -0.1289420   -0.5244980  
N    -0.5693510    1.2699860   -0.5440990  
C    -1.6905550   -0.9317130   -0.6457120  
C    -1.4542890   -2.3906460   -0.6710050  
O    -2.3455940   -3.2004360   -0.8411740  
C     0.0183200   -2.9069130   -0.4809310  
O     0.1825650   -4.1080540   -0.3548970  
C     1.1189490   -1.9287490   -0.3846140  
H     2.6609700    0.6245330   -0.1608780  
H    -1.3480240    1.7686390   -0.1223480  
C     3.9181330    3.9531570    1.9729400  
C     3.1191040    2.9578170    1.4670450  
C     2.1698880    3.5816010    0.5912290  
C     2.4426960    4.9740200    0.6166770  
N     3.5155500    5.1684220    1.4612990  
C     1.6971770    5.9139980   -0.1027100  
C     0.6443200    5.4435890   -0.8708170  
O    -0.1014340    6.3166740   -1.6032860  
C     0.3374430    4.0604610   -0.9161130  
O    -0.7196540    3.7687790   -1.7469250  
C     1.0788980    3.1077650   -0.1972380  
H     3.1990370    1.9079950    1.7068920  
H     3.9305160    6.0611280    1.6779150  
H     1.9148360    6.9770380   -0.0863270  
H    -0.7548070    5.7923540   -2.0989700  
H    -0.7816790    2.8042570   -1.8774980  
H     4.7492350    3.8947680    2.6613640  
C     4.2729430   -1.5400310    2.7481540  
C     3.1237660   -1.4424330    2.0303160  
C     3.3180650   -2.1832650    0.7988700  
C     4.6931930   -2.7340420    0.8664370  
N     5.2250240   -2.2850690    2.0613470  
C     5.2600500   -3.5365710   -0.0712350  
C     4.4703270   -3.8860540   -1.2429460  
O     4.8736450   -4.6232770   -2.1294250  
C     3.0320610   -3.2672830   -1.3763020  
O     2.4182770   -3.4384680   -2.4133590  
C     2.4931410   -2.4389650   -0.2630950  
H     2.2248140   -0.9254570    2.3294510  
H     6.2620500   -3.9449010    0.0176260  
H     4.5091200   -1.1339070    3.7229260  
H     6.1206090   -2.5652480    2.4291650  
