64


C    -5.9670190   -2.6892630   -1.9970700  
C    -7.0251990   -1.9241270   -2.4158980  
C    -6.8728740   -0.6319530   -1.8114720  
C    -5.6828440   -0.6733620   -1.0349040  
N    -5.1610160   -1.9430080   -1.1628140  
C    -5.2103740    0.4143740   -0.2628160  
C    -6.0206050    1.5481420   -0.2954260  
O    -5.6761240    2.6600390    0.4560030  
C    -7.2071000    1.6150320   -1.0628730  
O    -7.8598830    2.8334410   -0.9683310  
C    -7.6403990    0.5487620   -1.8256440  
H    -7.8251530   -2.2449620   -3.0688380  
H    -4.2981340   -2.2502280   -0.7396940  
H    -6.3666520    3.3297580    0.2992370  
H    -8.6876090    2.7961940   -1.4695140  
H    -8.5574430    0.6184530   -2.4070150  
H    -5.7173480   -3.7166910   -2.2219270  
C    -1.0508320   -0.9110230   -1.3107120  
C    -2.3618350   -0.5245430   -1.3584700  
C    -2.7596720   -0.1829490   -0.0167880  
C    -1.6245560   -0.3785960    0.8096280  
N    -0.5830570   -0.8319950    0.0024880  
C    -1.6124720   -0.0692690    2.1735130  
C    -2.7777740    0.4603210    2.7013820  
O    -2.8390070    0.8080950    4.0153290  
C    -3.9368510    0.6550640    1.8997450  
O    -5.0146030    1.1608060    2.5944370  
C    -3.9692450    0.3146170    0.5469370  
H    -2.9758120   -0.4844410   -2.2467810  
H    -0.7472870   -0.2229970    2.8071760  
H    -3.7386580    1.1631610    4.1488330  
H    -5.4274860    1.8563500    2.0378590  
H    -0.3991170   -1.2832720   -2.0889630  
C     3.0974740    1.0036460   -1.2926500  
C     4.0029610    0.2482690   -0.6049750  
C     3.2218880   -0.7096940    0.1793660  
C     1.8015770   -0.4348010   -0.1264860  
N     1.7903160    0.6068900   -1.0243240  
C     0.7409470   -1.1122560    0.4047620  
C     1.0283810   -2.1978600    1.3529780  
O     0.1631170   -2.8948530    1.8545260  
C     2.5370590   -2.4634940    1.7263650  
O     2.7829260   -3.3213260    2.5587240  
C     3.5789300   -1.6724820    1.0674740  
H     4.6126970   -1.8924050    1.3070100  
H     3.2831990    1.8062970   -1.9945550  
H     0.9517140    1.0094380   -1.4151460  
C     6.5116690    3.8010930    0.1367950  
C     7.7325030    3.2203190   -0.0839510  
C     7.4925040    1.8427380   -0.4116060  
C     6.0877740    1.6480340   -0.3802530  
N     5.5138950    2.8621710   -0.0594000  
C     5.4684140    0.4042780   -0.6302650  
C     6.3267200   -0.6594990   -0.9148210  
O     5.8089830   -1.8946440   -1.1849680  
C     7.7337760   -0.4811830   -0.9501470  
O     8.4270010   -1.6381410   -1.2558790  
C     8.3232370    0.7452270   -0.7110370  
H     8.6923170    3.7146410   -0.0227560  
H     4.5378400    2.9902580    0.1584290  
H     6.5611560   -2.4898180   -1.3502120  
H     9.3783220   -1.4569620   -1.2510350  
H     9.4053820    0.8537200   -0.7464410  
H     6.2608510    4.8164100    0.4098810  
