64


C     0.1714940   -1.2515990   -0.0261550  
C     0.3021540   -2.6006990    0.2420750  
C     1.7052750   -2.9057400    0.2761830  
C     2.3956570   -1.6933060    0.0259250  
N     1.4484320   -0.7081420   -0.1423150  
C     3.7980630   -1.5618660    0.0021000  
C     4.5211840   -2.7344550    0.2238200  
O     5.8827030   -2.7052340    0.2477110  
C     3.8511220   -3.9645870    0.4648720  
O     4.7133760   -5.0269410    0.6763800  
C     2.4717410   -4.0666980    0.5034050  
H    -0.5126550   -3.2814070    0.4490960  
H     1.6411750    0.1910810   -0.5567370  
H     6.1840240   -3.6180650    0.3974080  
H     4.1989790   -5.8374430    0.8037990  
H     1.9975240   -5.0254180    0.7046390  
C    -2.2518470   -0.6656070   -0.5383280  
C    -0.9742060   -0.3644920   -0.1306110  
C    -0.9648920    1.0543390    0.1673040  
C    -2.2623850    1.5527910   -0.0857820  
N    -3.0479320    0.4784000   -0.5115610  
C    -2.6014510    2.8967950    0.1200840  
C    -1.6066060    3.7511680    0.5762690  
O    -1.8837280    5.0722820    0.7767750  
C    -0.2998630    3.2647310    0.8425370  
O     0.5888000    4.2120590    1.3012430  
C     0.0194700    1.9334390    0.6578370  
H    -3.5983310    3.2859050   -0.0541670  
H    -1.0624560    5.4892210    1.0913250  
H     1.4780120    3.8169480    1.3672240  
H     1.0102510    1.5826490    0.9237700  
H    -2.6621270   -1.5986100   -0.8958390  
C     3.3848460    2.1473110    2.3429770  
C     4.1151870    2.9795910    1.5257030  
C     4.6182960    2.1749640    0.4447710  
C     4.1414000    0.8559010    0.6525410  
N     3.3963990    0.8700070    1.8168580  
C     4.4161770   -0.2279100   -0.2132760  
C     5.2338710    0.0632640   -1.3050040  
O     5.5280890   -0.9072250   -2.2113500  
C     5.7426320    1.3755380   -1.5140480  
O     6.5324780    1.4845090   -2.6437560  
C     5.4419730    2.4269430   -0.6709170  
H     4.3199250    4.0268320    1.7054560  
H     2.9410640    0.0613580    2.2126510  
H     6.1167880   -0.5103560   -2.8764720  
H     6.8558590    2.3936580   -2.7259320  
H     5.8364990    3.4221270   -0.8660540  
H     2.8822050    2.3510750    3.2784870  
C    -4.9735780    1.4044100   -1.7603840  
C    -4.3957980    0.5253600   -0.8935900  
C    -5.4472620   -0.3549400   -0.4000250  
C    -6.6942060    0.0928250   -1.0675640  
N    -6.3403950    1.1649830   -1.8618570  
C    -7.9091150   -0.4837650   -0.8814120  
C    -8.0104460   -1.6104700    0.0412800  
O    -9.0588080   -2.1945620    0.2686200  
C    -6.7023930   -2.0858960    0.7745840  
O    -6.7674270   -3.0196000    1.5573470  
C    -5.4454610   -1.3851300    0.4838720  
H    -8.8118780   -0.1467380   -1.3815840  
H    -4.5483080   -1.7185060    0.9954290  
H    -4.5114890    2.2027290   -2.3240900  
H    -6.9806400    1.7006610   -2.4262900  
