62


C     3.1978200   -2.3374050   -1.1180500  
C     4.1093530   -3.3275820   -1.2939960  
C     5.3704600   -2.8585480   -0.7742800  
C     5.1671510   -1.5482360   -0.2819740  
N     3.8035210   -1.2290750   -0.5016650  
C     6.2000690   -0.8033650    0.2926830  
C     7.4546280   -1.3981970    0.3681790  
O     8.4902080   -0.7054430    0.9222660  
C     7.6713440   -2.7086490   -0.1201950  
O     8.9660730   -3.1607180    0.0251510  
C     6.6427600   -3.4425370   -0.6895410  
H     3.9145690   -4.2923490   -1.7428860  
H     6.0437640    0.1970290    0.6691610  
H     9.2755110   -1.2781090    0.8873330  
H     9.0393020   -4.0599460   -0.3274290  
H     6.8212970   -4.4491420   -1.0618960  
H     2.1499870   -2.3040280   -1.3693910  
C     3.1290550   -0.0757550   -0.2005470  
C     1.7984320    0.2153270   -0.4456050  
C     1.6027690    1.5230930    0.0685640  
C     2.9573460    1.9184240    0.6065140  
N     3.8393030    0.9718430    0.4378500  
C     3.1999500    3.1941390    1.2084610  
C     2.1479810    4.0437960    1.2767020  
O     2.1989500    5.2620350    1.8131260  
C     0.7619500    3.6853590    0.7490750  
O    -0.1026970    4.5476020    0.9262530  
C     0.5353610    2.3903870    0.1128490  
H     1.0468170   -0.4152930   -0.8911450  
H     4.1833970    3.4489820    1.5865230  
H     1.2777860    5.6092410    1.7206080  
C    -2.3162650   -0.8222620    1.0651890  
C    -3.3802950   -0.5501400    0.2567980  
C    -2.9595600    0.6701890   -0.4730250  
C    -1.5850810    0.9564580    0.0383280  
N    -1.2250570    0.0781160    0.9315690  
C    -0.8091710    2.0971550   -0.4212680  
C    -1.4190140    2.9103770   -1.3333040  
O    -0.8280440    3.9831000   -1.8812700  
C    -2.8060630    2.6625700   -1.8386120  
O    -3.2659210    3.4488790   -2.6667320  
C    -3.5631980    1.4896370   -1.3539960  
H    -1.5023700    4.3742660   -2.4795790  
H    -4.5634910    1.3426340   -1.7475990  
H    -2.2280260   -1.6385210    1.7717050  
C    -6.1438380   -2.0111020    3.4738440  
C    -5.0900940   -1.4605180    2.7905940  
C    -5.3635300   -1.6168810    1.3902390  
C    -6.6196970   -2.2730740    1.2875440  
N    -7.0664460   -2.5054570    2.5721180  
C    -7.2263400   -2.5736310    0.0638510  
C    -6.5455960   -2.2056020   -1.0871320  
O    -7.0767310   -2.4958890   -2.3099780  
C    -5.2953380   -1.5457700   -1.0112920  
O    -4.7440740   -1.2646220   -2.2527540  
C    -4.6803140   -1.2303370    0.2029730  
H    -4.2268730   -0.9883280    3.2363250  
H    -7.9375940   -2.9514400    2.8126340  
H    -8.1820530   -3.0815580   -0.0149980  
H    -6.4285550   -2.2063760   -2.9758060  
H    -3.7867410   -1.1439730   -2.1561430  
H    -6.3162880   -2.0945470    4.5375610  
