62


C     4.2812650   -0.1194100   -2.8334150  
C     3.6737940   -0.0167840   -1.5997620  
C     4.6090210   -0.5616670   -0.6382600  
C     5.7562510   -0.9751610   -1.3614920  
N     5.5225850   -0.7000240   -2.6954910  
C     6.8692250   -1.5636330   -0.7480640  
C     6.8230350   -1.7408910    0.6255100  
O     7.8822610   -2.3007210    1.2753980  
C     5.6766210   -1.3459340    1.3669790  
O     5.7754290   -1.6023400    2.7205610  
C     4.5775970   -0.7713440    0.7562100  
H     6.1855750   -0.8370210   -3.4423880  
H     7.7502000   -1.8749730   -1.2999720  
H     7.6665470   -2.3094050    2.2242060  
H     5.0420670   -1.1759960    3.1884480  
H     3.7099490   -0.4869010    1.3466210  
H     3.9250970    0.2057160   -3.8008620  
C     1.1955650    0.2073990   -2.0487910  
C     2.3309820    0.5080130   -1.3560100  
C     1.9398240    1.5114990   -0.3645850  
C     0.4840220    1.7372570   -0.5341290  
N     0.1037730    0.9413310   -1.5839610  
C    -0.3014690    2.5876520    0.2173800  
C     0.4360730    3.4293100    1.1551610  
O    -0.0596890    4.3819430    1.7620650  
C     1.9650130    3.1600360    1.4128700  
O     2.5163110    3.7769630    2.3092880  
C     2.6586920    2.1967950    0.5617160  
H     3.7217790    2.0471760    0.7148480  
H     1.0700300   -0.4841200   -2.8717320  
H    -0.8578610    0.8118070   -1.8631600  
C    -3.4418820   -0.6411160   -0.0096380  
C    -2.2572730    0.0829100    0.1634770  
C    -2.5534970    1.4642130   -0.0311150  
C    -3.9486710    1.5410010   -0.3108620  
N    -4.4455230    0.2621340   -0.3113120  
C    -4.6190770    2.7537740   -0.4966670  
C    -3.8653810    3.9083340   -0.3633610  
O    -4.4483380    5.1242740   -0.5004990  
C    -2.4651320    3.8661100   -0.0850480  
O    -1.8889840    5.1063110   -0.0156470  
C    -1.7713900    2.6614740    0.0431670  
H    -1.3227520   -0.3116830    0.5334060  
H    -5.4122760   -0.0340290   -0.3815810  
H    -5.6826270    2.8157600   -0.7000470  
H    -3.7434910    5.7779160   -0.3235230  
H    -1.2230310    5.0791060    0.7157850  
C    -0.7491200   -4.1275480    0.0036820  
C    -1.6621630   -5.1076680    0.2244550  
C    -2.9632200   -4.4780870    0.2983060  
C    -2.7306330   -3.0333740    0.1179360  
N    -1.3637390   -2.8780650   -0.0213540  
C    -3.7081670   -2.0607820    0.0986170  
C    -5.0967220   -2.5681540    0.1749660  
O    -6.0818970   -1.8554900    0.0235780  
C    -5.3544020   -4.0984120    0.4535920  
O    -6.5112400   -4.4581910    0.6143280  
C    -4.2130130   -4.9938840    0.4860630  
H    -1.4609560   -6.1641750    0.3260950  
H    -4.3953260   -6.0509830    0.6496310  
H     0.3228640   -4.1994040   -0.1247260  
H    -0.9408700   -2.0399910   -0.3921330  
