62


C     5.3897850    1.9442180    0.1530630  
C     4.9076700    0.6433650    0.1868340  
C     6.0336000   -0.2073160   -0.1656310  
C     7.1374150    0.6462170   -0.4131480  
N     6.7119170    1.9471240   -0.2032220  
C     8.3964040    0.1819500   -0.8113050  
C     8.5495670   -1.1863840   -0.9653110  
O     9.7546510   -1.7026240   -1.3405210  
C     7.4561530   -2.0602290   -0.7289420  
O     7.7584550   -3.3958290   -0.9203880  
C     6.2154470   -1.5934390   -0.3407010  
H     7.3015650    2.7642800   -0.2393830  
H     9.2370280    0.8433950   -0.9944130  
H     9.6563880   -2.6706910   -1.3563990  
H     7.0286610   -3.9391690   -0.5872350  
H     5.4083290   -2.2877280   -0.1353110  
H     4.8843790    2.8633990    0.4112130  
C     1.0630560    2.6009760   -0.8186570  
C     2.3608790    2.2190340   -0.7725940  
C     2.4527400    1.0729810    0.1102110  
C     1.0744570    0.8128240    0.5756870  
N     0.2644020    1.7709240   -0.0147810  
C     0.7109140   -0.1930830    1.4270810  
C     1.7379710   -1.1060890    1.8726200  
O     1.5303310   -2.0669770    2.6036980  
C     3.2146850   -0.8709370    1.3719940  
O     4.0596720   -1.6773130    1.7223630  
C     3.5245640    0.3064590    0.5128280  
H     3.1744900    2.6661800   -1.3222870  
H    -0.2987090   -0.3194890    1.8005040  
H     0.5919610    3.4036530   -1.3668130  
C    -2.9008240   -1.1544160   -0.7654160  
C    -3.9825400   -0.3470580   -0.4574150  
C    -3.4263860    0.9428650   -0.0928060  
C    -2.0181280    0.8278390   -0.1938460  
N    -1.7287510   -0.4476900   -0.6294540  
C    -1.1441230    1.8890670    0.1160920  
C    -1.7207390    3.0913820    0.5203590  
O    -0.9287380    4.1606720    0.8125470  
C    -3.1306710    3.2179030    0.6046620  
O    -3.5409340    4.4737270    1.0044200  
C    -3.9819900    2.1709760    0.3144080  
H    -0.7998310   -0.8364390   -0.6953260  
H    -1.5229500    4.8944920    1.0514980  
H    -4.5069810    4.5306460    0.9533810  
H    -5.0569260    2.3065370    0.3541720  
H    -2.8864710   -2.1690920   -1.1381330  
C    -5.8344970   -4.0713900    0.9038470  
C    -7.1220510   -3.8475540    0.5320190  
C    -7.1729530   -2.5375370   -0.0801730  
C    -5.7890110   -2.0128140   -0.0431340  
N    -5.0177800   -3.0107820    0.5308560  
C    -5.3843950   -0.7795850   -0.4843470  
C    -6.4548130    0.0825510   -1.0265340  
O    -6.2565550    1.2181780   -1.4304380  
C    -7.9320160   -0.4696450   -1.0994000  
O    -8.7949590    0.2653940   -1.5565400  
C    -8.1996130   -1.8112720   -0.6037880  
H    -7.9565270   -4.5200910    0.6675780  
H    -9.2193860   -2.1801560   -0.6499080  
H    -5.4039100   -4.9285470    1.4049030  
H    -4.0783440   -2.8511880    0.8657140  
