62


C    -4.9686230   -2.6930330    0.9438040  
C    -6.3009810   -2.9847950    1.0154510  
C    -7.0159710   -1.8422630    0.5177760  
C    -6.0463520   -0.8744090    0.1498340  
N    -4.7888060   -1.4088570    0.4255680  
C    -6.3923700    0.3591320   -0.4263300  
C    -7.7447010    0.6289440   -0.5984970  
O    -8.1307740    1.8110690   -1.1536480  
C    -8.7267910   -0.3198680   -0.2133160  
O   -10.0223780    0.0952360   -0.4448900  
C    -8.3780600   -1.5450520    0.3276070  
H    -6.7280800   -3.9061220    1.3871010  
H    -5.6581340    1.0708990   -0.7897760  
H    -9.1021780    1.8032420   -1.2084940  
H   -10.6402670   -0.6097200   -0.2008550  
H    -9.1478520   -2.2655490    0.5968330  
H    -4.1049470   -3.2680290    1.2436680  
C    -1.0744510   -2.5911100   -1.6631750  
C    -2.3535680   -2.5620410   -1.1727720  
C    -2.4710430   -1.3622380   -0.3953020  
C    -1.2223880   -0.7003870   -0.4430660  
N    -0.3894410   -1.4783060   -1.2132880  
C    -0.9752220    0.5778260    0.1322480  
C    -2.0843720    1.1647210    0.7868980  
O    -1.9627560    2.3388260    1.4340270  
C    -3.3333870    0.4953590    0.8789890  
O    -4.2541790    1.1613450    1.6569830  
C    -3.5416200   -0.7547140    0.3023240  
H    -3.1246380   -3.2972060   -1.3510250  
H     0.5227370   -1.1801810   -1.5250320  
H    -2.8403870    2.5428020    1.8104830  
H    -5.1617170    0.9018310    1.4172650  
H    -0.5842670   -3.3190320   -2.2935920  
C     0.3169000    1.2140460    0.0422000  
C     1.5591590    0.5923310   -0.0556010  
C     2.5205750    1.6377450   -0.1445300  
C     1.6900310    2.8904380   -0.1074150  
N     0.4168100    2.6346650    0.0080790  
C     2.2799750    4.1941780   -0.1756440  
C     3.6310440    4.2605660   -0.2368000  
O     4.3214050    5.4018660   -0.3050050  
C     4.5147550    3.0255540   -0.2716710  
O     5.7140370    3.2424100   -0.4282250  
C     3.9024930    1.6799700   -0.1870910  
H     1.7703860   -0.4588880    0.0723990  
H     1.6539580    5.0792400   -0.1637700  
H     5.2646680    5.1202350   -0.3740800  
C     4.7473790    0.5038420   -0.1759650  
C     4.4723740   -0.7436090   -0.6827600  
C     5.6262140   -1.5547840   -0.3897170  
C     6.5456490   -0.6267210    0.3461870  
N     6.0413180    0.5645240    0.4625190  
C     7.8239870   -1.0725140    0.8416900  
C     8.1786160   -2.3558510    0.5996140  
O     9.3369770   -2.9076840    0.9905800  
C     7.2790910   -3.3094890   -0.1538240  
O     7.6946020   -4.4581950   -0.3201540  
C     5.9784070   -2.8405040   -0.6364430  
H     3.6039490   -1.0460980   -1.2491100  
H     8.4682920   -0.3847760    1.3778180  
H     9.2973580   -3.8368010    0.6687790  
H     5.3559990   -3.5566310   -1.1643170  
