64


C     4.8238670   -0.5799100    0.4524560  
C     5.6380840   -1.3730020    1.2311460  
C     6.9911640   -1.1639030    0.8050770  
C     6.9507420   -0.2168190   -0.2517150  
N     5.6277790    0.1524520   -0.4236670  
C     8.0991420    0.2166350   -0.9230600  
C     9.3165360   -0.3097600   -0.5164960  
O    10.4682850    0.0763330   -1.1419040  
C     9.3789080   -1.2455290    0.5487720  
O    10.6621250   -1.6703060    0.8442040  
C     8.2415410   -1.6723090    1.2100560  
H     5.3037620   -1.9957890    2.0498910  
H     5.2675030    0.6011260   -1.2528520  
H     8.0719790    0.9352990   -1.7360410  
H    11.1988680   -0.4059420   -0.7179970  
H    10.6270900   -2.3301390    1.5522100  
H     8.3159650   -2.3923390    2.0229110  
C     2.4503470   -1.4189430    0.6608940  
C     3.3779070   -0.4241560    0.4438710  
C     2.6237880    0.7930710    0.2272360  
C     1.2512730    0.4534310    0.3283610  
N     1.1749970   -0.8922170    0.6160320  
C     0.2293630    1.4118410    0.1846660  
C     0.6138060    2.7320240   -0.0495130  
O    -0.3380160    3.6982610   -0.1903150  
C     1.9858410    3.0809320   -0.1161820  
O     2.1957150    4.4291260   -0.3263580  
C     2.9873470    2.1372710    0.0168260  
H     0.3242830   -1.4344760    0.6155340  
H     0.1296570    4.5387610   -0.3413610  
H     3.1464700    4.6102560   -0.3665520  
H     4.0330790    2.4333120   -0.0134420  
H     2.6058590   -2.4743390    0.8315270  
C    -2.0385550    1.6747770    1.2068850  
C    -3.2767570    1.1321840    1.1087620  
C    -3.2271950    0.1129310    0.0868150  
C    -1.8295900    0.1082870   -0.4122980  
N    -1.1438950    1.0755690    0.3086290  
C    -1.3658500   -0.6919370   -1.4122150  
C    -2.2942840   -1.6444140   -1.9908950  
O    -2.0200320   -2.3830830   -2.9245780  
C    -3.7278010   -1.7617230   -1.3535600  
O    -4.3922910   -2.7426420   -1.6842770  
C    -4.1940700   -0.7417380   -0.3971600  
H    -4.1439580    1.4057500    1.6883570  
H    -0.3680760   -0.6152180   -1.8288070  
H    -1.6759700    2.4589330    1.8555730  
C    -7.0446450    2.7243250   -0.3043400  
C    -5.9509180    1.9196500   -0.4936410  
C    -6.2997540    0.6042290   -0.0295400  
C    -7.6445190    0.6788910    0.4238060  
N    -8.0647220    1.9835430    0.2602650  
C    -8.3525590   -0.4267890    0.9041610  
C    -7.6907010   -1.6443320    0.8992910  
O    -8.3215090   -2.7692020    1.3327820  
C    -6.3498080   -1.7580080    0.4441960  
O    -5.8458540   -3.0362690    0.5301890  
C    -5.6156850   -0.6488240    0.0094440  
H    -5.0081930    2.2326120   -0.9173380  
H    -8.9941580    2.3210780    0.4543570  
H    -9.3815500   -0.3689640    1.2443480  
H    -7.6807870   -3.4936720    1.1942200  
H    -5.3567650   -3.2031300   -0.3092480  
H    -7.1833410    3.7733910   -0.5246790  
