62


C     3.6529010   -1.0211510   -2.1411070  
C     3.5269620   -0.3098310   -0.9655080  
C     4.8055320   -0.4231220   -0.2885190  
C     5.6497730   -1.2095850   -1.1141950  
N     4.9175920   -1.5593620   -2.2311530  
C     6.9639210   -1.5394100   -0.7605670  
C     7.4366210   -1.0699460    0.4545510  
O     8.7093750   -1.3591090    0.8459060  
C     6.6024860   -0.2922430    1.3032870  
O     7.2132430    0.0905700    2.4803760  
C     5.3054060    0.0314750    0.9522020  
H     5.2622850   -2.1060590   -3.0049300  
H     7.6099390   -2.1424190   -1.3903770  
H     8.8411940   -0.9593530    1.7230670  
H     6.5831130    0.5778190    3.0317350  
H     4.6838470    0.6180630    1.6241570  
H     2.9325930   -1.1610180   -2.9343920  
C    -0.8069040   -1.4960310   -0.5903290  
C     0.5513630   -1.4796170   -0.8237110  
C     1.0338430   -0.1638550   -0.5223420  
C    -0.0896290    0.5901860   -0.0961990  
N    -1.1893350   -0.2422090   -0.1157050  
C     0.0105040    1.9349220    0.3025310  
C     1.2825350    2.5060500    0.2874840  
O     1.4421610    3.8094680    0.6547200  
C     2.4119810    1.7503370   -0.1076830  
O     3.5858630    2.4756760   -0.0763930  
C     2.3270040    0.4215520   -0.5223940  
H     1.1489980   -2.3323060   -1.1124170  
H    -2.1457820    0.0821590   -0.0893340  
H     2.3823880    4.0250230    0.5186240  
H     4.2936740    1.9491970   -0.4862630  
C    -1.7901280   -3.5000630   -1.7528220  
C    -1.7788300   -2.5634400   -0.7586040  
C    -2.9137650   -2.8729190    0.1106590  
C    -3.5757900   -4.0652560   -0.4754380  
N    -2.8282470   -4.4065200   -1.5861530  
C    -4.6855140   -4.6572700    0.0334600  
C    -5.2703680   -4.1062070    1.2529230  
O    -6.2677580   -4.5699930    1.7832030  
C    -4.5662030   -2.8646090    1.9115900  
O    -5.0230660   -2.4011870    2.9438640  
C    -3.3766860   -2.3080630    1.2559910  
H    -5.1559470   -5.5277350   -0.4134260  
H    -2.8958210   -1.4586460    1.7303440  
H    -1.1196470   -3.5918560   -2.5966940  
H    -3.0771610   -5.1273640   -2.2454320  
C    -1.2406910    3.3529000    1.9447910  
C    -2.4379760    3.9765440    2.0590880  
C    -3.1697340    3.7329690    0.8349190  
C    -2.2786540    2.9046130   -0.0178600  
N    -1.1198540    2.6864120    0.7159710  
C    -2.5969450    2.4850140   -1.2725810  
C    -3.8989120    2.8538110   -1.8210230  
O    -4.2668570    2.5237010   -2.9389540  
C    -4.8640950    3.7138960   -0.9264250  
O    -5.9613230    4.0212060   -1.3654670  
C    -4.3993990    4.1176360    0.4032590  
H    -2.7832070    4.5518570    2.9057650  
H    -1.9171100    1.9202930   -1.9011880  
H    -5.0663070    4.7276210    1.0051240  
H    -0.4148990    3.3080940    2.6402930  
