62


C     3.4544700   -2.3934400   -1.0096850  
C     4.0446050   -3.4422100   -0.3607790  
C     5.1096390   -2.9037260    0.4376660  
C     5.1124440   -1.4995190    0.2331610  
N     4.0878910   -1.2002810   -0.6634950  
C     6.0144610   -0.6420180    0.8834610  
C     6.9409130   -1.2200370    1.7405800  
O     7.8382300   -0.4319320    2.3965590  
C     6.9596010   -2.6249500    1.9466450  
O     7.9397830   -3.0445440    2.8232940  
C     6.0583680   -3.4629750    1.3153770  
H     3.7601090   -4.4820070   -0.4471770  
H     5.9887230    0.4368710    0.7726690  
H     8.3820000   -1.0139560    2.9552880  
H     7.8763930   -4.0027580    2.9501670  
H     6.0844460   -4.5354920    1.4976820  
H     2.6428060   -2.3745540   -1.7225040  
C     0.3397260    1.1627950   -0.6296490  
C     1.2799980    0.1858460   -0.4161920  
C     2.4790200    0.6258020   -1.0668270  
C     2.2100250    1.8905710   -1.6493900  
N     0.8927520    2.2024670   -1.3628160  
C     3.1738620    2.6344510   -2.3385580  
C     4.4397730    2.0804200   -2.4479730  
O     5.4173290    2.7506130   -3.1124260  
C     4.7379680    0.8064380   -1.8895130  
O     6.0223200    0.3819470   -2.1229770  
C     3.7754690    0.0764570   -1.1993890  
H     1.1439670   -0.7109900    0.1706740  
H     0.3730980    2.9735280   -1.7542250  
H     2.9726040    3.6082000   -2.7717550  
H     6.2276530    2.2133380   -3.0533110  
H     6.2488350   -0.3537900   -1.5276320  
C    -1.9103500    0.1660400   -0.4467040  
C    -3.1443530    0.4450210    0.0774340  
C    -3.0488630    1.7745430    0.6770560  
C    -1.6546740    2.2255090    0.4585760  
N    -1.0090070    1.1982440   -0.2424290  
C    -1.1478590    3.4035210    0.8949860  
C    -2.0366120    4.3164670    1.6183630  
O    -1.6706650    5.4032170    2.0333480  
C    -3.5175670    3.8614690    1.8646590  
O    -4.2769770    4.6031260    2.4647170  
C    -3.9335060    2.5458760    1.3612150  
H    -0.1139330    3.6981830    0.7528790  
H    -4.9462670    2.2282250    1.5858970  
H    -1.5906120   -0.7057270   -1.0011080  
C    -4.2953900   -0.4286700    0.0097310  
C    -4.3474240   -1.7970580   -0.0535180  
C    -5.7278390   -2.1908020   -0.1561180  
C    -6.5131220   -0.9322500   -0.1513300  
N    -5.5968180    0.0982720    0.0062700  
C    -7.8599870   -0.8682780   -0.2824410  
C    -8.6045700   -2.1214660   -0.4087440  
O    -9.8188340   -2.1600580   -0.5302620  
C    -7.7969370   -3.4706210   -0.3765110  
O    -8.4076410   -4.5251060   -0.4722240  
C    -6.3427500   -3.4032240   -0.2455180  
H    -3.5012100   -2.4648050    0.0250960  
H    -8.4187610    0.0627200   -0.2857840  
H    -5.7936710   -4.3399540   -0.2415850  
H    -5.7995090    1.0540620   -0.2486620  
