60


C    -4.6489890   -0.0799800    0.1188970  
C    -5.2767430   -1.1820480    0.7074500  
C    -6.6526870   -1.1352370    0.3506300  
C    -6.8302350    0.0224420   -0.4622390  
N    -5.6093380    0.6353310   -0.5791790  
C    -8.0726610    0.3830410   -0.9989520  
C    -9.1521310   -0.4375930   -0.7159040  
O   -10.3834900   -0.1366540   -1.2123360  
C    -8.9930040   -1.6016170    0.0926320  
O   -10.1651200   -2.3077540    0.2775990  
C    -7.7703390   -1.9559280    0.6229830  
H    -4.7881120   -1.9874320    1.2378150  
H    -5.3574670    1.4326180   -1.1512980  
H    -8.2124930    1.2629910   -1.6176280  
H   -10.9970100   -0.8278860   -0.9082820  
H    -9.9906100   -3.0915840    0.8191860  
H    -7.6733870   -2.8489640    1.2373110  
C    -1.3880130   -0.9845220    2.9058700  
C    -0.3692350   -0.3318600    2.2851460  
C    -0.9110650    0.2821620    1.0901920  
C    -2.3345680   -0.0826440    1.0597480  
N    -2.5561320   -0.8932700    2.1608290  
C    -3.2647160    0.3410150    0.1336270  
C    -2.7568780    1.3318780   -0.8347150  
O    -3.4787660    1.9754660   -1.5866690  
C    -1.2098430    1.5824030   -0.9400660  
O    -0.8020570    2.1440580   -1.9409070  
C    -0.3281560    1.0824520    0.1307880  
H     0.6483280   -0.2537310    2.6372430  
H    -1.3858120   -1.5324220    3.8388820  
H    -3.4835220   -1.0499720    2.5309350  
C     3.2825980   -1.4166280    0.0682610  
C     4.2626670   -0.4542340    0.0582320  
C     3.5641240    0.8351810    0.0535150  
C     2.1169480    0.5229320    0.1078340  
N     2.0269180   -0.8562860    0.1285620  
C     1.0957080    1.4325080    0.0895770  
C     1.4900770    2.8598560    0.0430070  
O     0.6896480    3.7681240    0.1737360  
C     3.0090580    3.2073170   -0.1230730  
O     3.3290740    4.3764600   -0.2724970  
C     3.9878020    2.1212220   -0.0792790  
H     5.0326410    2.3905870   -0.1529090  
H     3.4051060   -2.4876120    0.0187510  
H     1.1578200   -1.3675540    0.1084000  
C     6.3779490   -3.8144500   -1.7858900  
C     7.6738720   -3.4970610   -1.5729730  
C     7.6407690   -2.2419210   -0.8293290  
C     6.1820660   -1.9327930   -0.6886270  
N     5.4567140   -2.8572950   -1.2479580  
C     5.6961260   -0.7316250   -0.0041380  
C     6.6692700    0.0497020    0.5593280  
O     6.4120060    1.1452550    1.3014730  
C     8.1281040   -0.2398880    0.4325850  
O     8.9172530    0.5338300    0.9790930  
C     8.5802650   -1.4340580   -0.3074210  
H     8.5575670   -4.0403400   -1.8773780  
H     7.2964030    1.4927770    1.5570320  
H     9.6506960   -1.6029080   -0.3750420  
H     5.9755080   -4.6783480   -2.3009090  
