62


C     0.6541050    0.7556750   -0.5757370  
C     1.7762610   -0.0023650   -0.3518090  
C     2.9073770    0.8687850   -0.5258640  
C     2.3983630    2.1566400   -0.8395490  
N     1.0190270    2.0625180   -0.8640850  
C     3.2200170    3.2711230   -1.0360090  
C     4.5862350    3.0741800   -0.9125470  
O     5.4397460    4.1170290   -1.0990440  
C     5.1205240    1.7936350   -0.6014550  
O     6.4938920    1.7773250   -0.5453020  
C     4.3120230    0.6744620   -0.4056540  
H     1.7892030   -1.0403220   -0.0521970  
H     0.3831210    2.7847020   -1.1673050  
H     2.8351250    4.2582920   -1.2686920  
H     6.3406220    3.7771610   -0.9525210  
H     6.7937200    0.9344210   -0.1606750  
C    -1.2121820   -0.7154160   -1.2894890  
C    -2.5399810   -0.8758090   -1.0620290  
C    -2.9505310    0.1612630   -0.1424010  
C    -1.7307610    0.9491280    0.1589640  
N    -0.6950870    0.3733350   -0.5796100  
C    -1.6842920    2.0184860    0.9928240  
C    -2.9246730    2.4510710    1.6283040  
O    -2.9909910    3.4190460    2.3685340  
C    -4.2290160    1.6275990    1.3466860  
O    -5.2460090    1.9148350    1.9524970  
C    -4.1660700    0.4891980    0.3971970  
H    -3.1736520   -1.6353490   -1.4937620  
H    -0.7759930    2.5711030    1.2062230  
H    -0.5439410   -1.2829720   -1.9228650  
C    -5.5882980   -3.7543700    0.8083960  
C    -4.7863650   -2.6625070    0.8338440  
C    -5.6109380   -1.5736580    0.3200550  
C    -6.9289120   -2.2248570    0.0371250  
N    -6.9075910   -3.4963200    0.3222700  
C    -8.0536670   -1.4792870   -0.4644380  
C    -7.8840790   -0.1548550   -0.6804710  
O    -8.8390670    0.6597900   -1.1555010  
C    -6.5628620    0.5275780   -0.4429410  
O    -6.4691760    1.7026650   -0.7806280  
C    -5.4115740   -0.2455390    0.1223550  
H    -3.7616330   -2.5941560    1.1690380  
H    -8.9960150   -1.9806610   -0.6548190  
H    -8.4155000    1.5423810   -1.2369330  
H    -5.3438210   -4.7643670    1.1160970  
C     7.1219690   -0.8096150    2.7999030  
C     6.2838570   -0.0381640    2.0353850  
C     5.7982210   -0.8729340    0.9663270  
C     6.3839410   -2.1544800    1.1471740  
N     7.1849400   -2.0825550    2.2685440  
C     6.1204480   -3.2370210    0.2998620  
C     5.2474740   -3.0178730   -0.7529900  
O     4.9580950   -4.0325340   -1.6175140  
C     4.6543870   -1.7440420   -0.9583970  
O     3.8364880   -1.6916370   -2.0671880  
C     4.9088290   -0.6573620   -0.1228000  
H     6.0183700    0.9915250    2.2293980  
H     7.7250940   -2.8453810    2.6460710  
H     6.5659400   -4.2171660    0.4351790  
H     4.3592780   -3.6695020   -2.2931410  
H     3.4695930   -0.7946350   -2.1461630  
H     7.6786550   -0.5580690    3.6914650  
