60


C    -7.4890460   -0.3726780   -1.6307180  
C    -8.1779760    0.1079300   -0.5499480  
C    -7.2073130    0.4841640    0.4389990  
C    -5.9300670    0.2017380   -0.1139930  
N    -6.1287040   -0.3107110   -1.3764650  
C    -4.7420500    0.4562770    0.5964550  
C    -4.8496540    1.0091530    1.8717480  
O    -3.7216480    1.2764200    2.5879680  
C    -6.1227870    1.3060060    2.4195650  
O    -6.0544330    1.8575310    3.6819230  
C    -7.2908040    1.0493800    1.7262660  
H    -9.2525420    0.1888790   -0.4652190  
H    -5.4054080   -0.6530780   -1.9894730  
H    -4.0060080    1.6289780    3.4503110  
H    -6.9456320    1.9558420    4.0488010  
H    -8.2556520    1.2881530    2.1678410  
H    -7.8492020   -0.7583090   -2.5737050  
C    -2.4394040    1.1030000   -0.0880640  
C    -1.2874930    0.5406190   -0.5758380  
C    -1.5726410   -0.8763080   -0.7708040  
C    -2.9762360   -1.0755060   -0.3364810  
N    -3.4588870    0.1796510    0.0432310  
C    -3.6159540   -2.2712560   -0.3308310  
C    -2.8891500   -3.4520800   -0.8037020  
O    -3.3831740   -4.5671710   -0.8276850  
C    -1.4166740   -3.2577260   -1.3099770  
O    -0.7968100   -4.2218190   -1.7301280  
C    -0.8375980   -1.9127340   -1.2537220  
H    -4.6349890   -2.3992370    0.0169690  
H     0.1761130   -1.7955010   -1.6205840  
H    -2.6143430    2.1267110    0.2111720  
C    -0.0490310    1.2437620   -0.8243700  
C     0.1706960    2.5648700   -1.1175180  
C     1.5902650    2.7765650   -1.2127150  
C     2.2164150    1.4615000   -0.9569820  
N     1.1755930    0.5558990   -0.7935250  
C     3.5594460    1.2211270   -0.8829550  
C     4.4419350    2.3857300   -1.1205150  
O     5.6584060    2.3019130   -1.1015200  
C     3.7930410    3.7858910   -1.4334870  
O     4.5385920    4.7359540   -1.6227270  
C     2.3416890    3.8863480   -1.4652420  
H    -0.5925880    3.3090840   -1.2960630  
H     1.9034770    4.8592030   -1.6646950  
H     1.3055970   -0.2994450   -0.2688680  
C     3.7459480   -1.2667300   -1.2759330  
C     4.1228250   -0.1137260   -0.6438850  
C     5.1661450   -0.4989600    0.3135670  
C     5.3407660   -1.9656550    0.1734230  
N     4.4498220   -2.3637790   -0.8053340  
C     6.2131970   -2.7165580    0.8927290  
C     7.0380750   -2.0493330    1.8937620  
O     7.8487400   -2.6374460    2.5934100  
C     6.8562180   -0.4989970    2.0774900  
O     7.5137670    0.0768350    2.9287650  
C     5.8904900    0.2028790    1.2203850  
H     6.3230770   -3.7891290    0.7650850  
H     5.8077990    1.2771550    1.3354980  
H     3.0255960   -1.3924970   -2.0740040  
H     4.3627710   -3.3041360   -1.1587080  
