62


C     3.5628070   -0.8265230   -1.8775110  
C     3.8864660   -2.1551860   -1.8726900  
C     4.7514980   -2.3777270   -0.7480540  
C     4.9215090   -1.1291610   -0.0979160  
N     4.1859510   -0.1819180   -0.8068530  
C     5.6892980   -0.9803150    1.0628250  
C     6.3071100   -2.1127830    1.5690590  
O     7.0728900   -2.0238230    2.6975890  
C     6.1556340   -3.3704790    0.9275160  
O     6.8339510   -4.4020860    1.5517610  
C     5.3908580   -3.5144390   -0.2147120  
H     3.5584520   -2.8888730   -2.5965430  
H     5.8235060   -0.0259850    1.5580790  
H     7.4186530   -2.9146970    2.8784090  
H     6.6993430   -5.2221740    1.0544940  
H     5.2829380   -4.4889840   -0.6871780  
H     2.9693710   -0.2513490   -2.5744550  
C     0.4946360    1.8327270    0.2762320  
C     1.0198730    3.0875440    0.4673570  
C     2.4294170    2.9910610    0.2172230  
C     2.6934190    1.6445890   -0.1361290  
N     1.5007050    0.9539350   -0.0969130  
C     3.9802470    1.1738060   -0.4544790  
C     5.0227520    2.0980590   -0.4096200  
O     6.2889300    1.7086020   -0.7115690  
C     4.7690390    3.4488560   -0.0457160  
O     5.9050180    4.2328640   -0.0450900  
C     3.5011530    3.9056410    0.2594770  
H     0.4569690    3.9738830    0.7246740  
H     1.4022790   -0.0455710   -0.2036220  
H     6.8622460    2.4892390   -0.6155700  
H     5.6715990    5.1469650    0.1739590  
H     3.3405120    4.9463440    0.5317770  
C    -1.5884320    1.5691320    1.6000610  
C    -2.8331850    1.0515700    1.4604170  
C    -2.9201200    0.4772190    0.1336920  
C    -1.6021570    0.7107940   -0.5011790  
N    -0.8216100    1.3812040    0.4429370  
C    -1.2634020    0.3190320   -1.7559570  
C    -2.2575910   -0.3993560   -2.5435310  
O    -2.0425790   -0.8139340   -3.6717670  
C    -3.6742140   -0.6366830   -1.9111530  
O    -4.5484200   -1.1249960   -2.6032740  
C    -3.9229190   -0.1916970   -0.5140030  
H    -3.6112780    1.0497510    2.2084070  
H    -0.2905740    0.5041460   -2.1975180  
H    -1.1316200    2.0635530    2.4465740  
C    -7.2108000    2.3794850    1.0730420  
C    -6.0446150    1.9278140    0.5433870  
C    -6.1114660    0.4804080    0.5202530  
C    -7.4376990    0.1237910    1.0826920  
N    -8.0433870    1.3205080    1.4170360  
C    -7.9214320   -1.1394880    1.2002260  
C    -7.0815800   -2.2409400    0.7511720  
O    -7.4316170   -3.4103200    0.7883200  
C    -5.6470120   -1.9023930    0.2080580  
O    -4.8848520   -2.8194320   -0.0373000  
C    -5.2418350   -0.4775740    0.0737780  
H    -5.2222320    2.5346820    0.1968900  
H    -8.9067740   -1.3683700    1.5943710  
H    -7.5368130    3.3968160    1.2451200  
H    -8.9883000    1.4088080    1.7564080  
