64


C    -4.0849870   -0.6633740   -0.1004320  
C    -4.0237760   -1.9264290   -0.6366110  
C    -5.2603300   -2.5761290   -0.3083320  
C    -6.0424880   -1.6453790    0.4255570  
N    -5.3062500   -0.4782000    0.5293370  
C    -7.3223860   -1.9432840    0.9050210  
C    -7.8255630   -3.2082660    0.6403300  
O    -9.0663510   -3.5536250    1.0910780  
C    -7.0620940   -4.1504600   -0.0986370  
O    -7.7015550   -5.3616990   -0.2847860  
C    -5.7982840   -3.8511950   -0.5732820  
H    -3.2096430   -2.3207280   -1.2281320  
H    -5.5268720    0.3113720    1.1173700  
H    -7.9220340   -1.2341040    1.4661520  
H    -9.2339730   -4.4670500    0.8018350  
H    -7.1311300   -5.9532760   -0.7972150  
H    -5.2332790   -4.5902250   -1.1379460  
C    -1.7839940    0.1556280    0.1870700  
C    -1.0957910    1.3548350    0.1455470  
C    -2.0848200    2.3720510   -0.1760250  
C    -3.3257700    1.7129790   -0.3389550  
N    -3.1220710    0.3505130   -0.0891020  
C    -4.4988210    2.3725260   -0.7265640  
C    -4.4208380    3.7414690   -0.9316760  
O    -5.5327660    4.4395230   -1.2974940  
C    -3.1889120    4.4238930   -0.7609910  
O    -3.2664300    5.7827430   -0.9928380  
C    -2.0318490    3.7608690   -0.3998490  
H    -5.4396160    1.8579520   -0.8842600  
H    -5.2724220    5.3742880   -1.3713600  
H    -2.4286830    6.2002670   -0.7420690  
H    -1.1074100    4.3090820   -0.2569290  
H    -1.4385280   -0.8265400    0.4730470  
C     2.3317450   -1.2100040   -0.9922670  
C     1.1112460   -0.6352890   -0.8756360  
C     1.2534730    0.5389740   -0.0376090  
C     2.6819690    0.6038450    0.3302210  
N     3.2985220   -0.4909110   -0.2724390  
C     3.2492570    1.5640860    1.1140750  
C     2.3985310    2.6324640    1.5925940  
O     2.7954600    3.5672330    2.2754270  
C     0.8722830    2.6061340    1.2007820  
O     0.1752350    3.5258180    1.5949520  
C     0.3380230    1.4750480    0.3921440  
H     0.2047570   -0.9671160   -1.3575170  
H     4.2948440    1.5630110    1.4000260  
H     2.6455750   -2.0792270   -1.5532800  
C     4.6498870   -0.8501430   -0.1908220  
C     5.2131850   -2.0724460    0.0815710  
C     6.6340870   -1.9091150   -0.0323760  
C     6.8756640   -0.5508360   -0.3682990  
N     5.6467560    0.0770200   -0.4577750  
C     8.1630110   -0.0320170   -0.5467510  
C     9.2300280   -0.9028240   -0.3870570  
O    10.5058790   -0.4513700   -0.5565530  
C     9.0090550   -2.2644710   -0.0470480  
O    10.1712140   -3.0010370    0.0800440  
C     7.7358490   -2.7723800    0.1316470  
H     4.6735250   -2.9662390    0.3618530  
H     5.4829040    1.0201820   -0.7750360  
H     8.3510650    1.0058510   -0.8013020  
H    11.1019950   -1.2026170   -0.3937970  
H     9.9531060   -3.9103560    0.3321980  
H     7.5920840   -3.8187150    0.3935430  
