60


C    -2.9060010   -0.8673740   -0.0452430  
C    -3.5907790    0.3397540    0.1557810  
C    -4.9759630    0.0705570    0.0982390  
C    -5.1171290   -1.3322980   -0.1388870  
N    -3.8615680   -1.8643510   -0.2196070  
C    -6.3668330   -1.9545680   -0.2500190  
C    -7.4887760   -1.1534290   -0.1200340  
O    -8.7266340   -1.7002100   -0.2181590  
C    -7.3677130    0.2530420    0.1182720  
O    -8.5841780    0.8925820    0.2199830  
C    -6.1409990    0.8655930    0.2284550  
H    -3.1345190    1.2943960    0.3643820  
H    -3.6040760   -2.8376980   -0.3170140  
H    -6.4821380   -3.0178660   -0.4300530  
H    -9.3758650   -0.9839830   -0.1029240  
H    -8.4465960    1.8400560    0.3681840  
H    -6.0695270    1.9359630    0.4087070  
C     0.8633660    1.6129660   -0.2422310  
C    -0.4657390    1.2421150   -0.2444090  
C    -0.4879050   -0.1873870   -0.1041690  
C     0.9431960   -0.5522870   -0.0113510  
N     1.7272700    0.4851550   -0.0907510  
C     1.3979860   -1.9295240    0.1262460  
C     0.4291410   -2.8824680    0.1215280  
O     0.6833500   -4.1949050    0.2541840  
C    -1.0247540   -2.5567110   -0.0113230  
O    -1.7872950   -3.5325100   -0.0558240  
C    -1.4927060   -1.1397180   -0.0627250  
H    -1.3056740    1.8874810   -0.4487300  
H    -0.1868690   -4.6411690    0.1700580  
C     4.7869920   -0.8972380    2.8721000  
C     3.5620960   -0.9146450    2.2987450  
C     3.6938980   -1.7966260    1.1438790  
C     5.1264470   -2.2324140    1.1869600  
N     5.7563160   -1.7115430    2.1999510  
C     5.6745660   -3.1396460    0.2125830  
C     4.8473290   -3.5928360   -0.7555850  
O     5.2205870   -4.4301870   -1.7378440  
C     3.4015690   -3.1763990   -0.8312690  
O     2.7489720   -3.5967540   -1.7818700  
C     2.8313820   -2.2677080    0.2096300  
H     2.6739740   -0.3786110    2.5970910  
H     6.7175510   -3.4308690    0.2670760  
H     4.4183910   -4.5499340   -2.2925380  
H     5.1014300   -0.3511530    3.7537220  
C    -0.4662530    5.6153980    1.1711130  
C    -0.3687860    4.2822370    0.9121230  
C     0.8352720    4.0740900    0.1421730  
C     1.4506440    5.4082300   -0.0143570  
N     0.5968040    6.3022490    0.6051040  
C     2.6434930    5.6606640   -0.6178600  
C     3.3857720    4.5345760   -1.1597760  
O     4.4992890    4.6378580   -1.6521290  
C     2.7046670    3.1192310   -1.1312800  
O     3.2046910    2.2354860   -1.7983790  
C     1.4326080    2.9368770   -0.3661920  
H    -1.0535470    3.5189780    1.2462590  
H     3.0819510    6.6518080   -0.6828690  
H    -1.2227490    6.1534060    1.7268030  
H     0.7857230    7.2854070    0.7225770  
