60


C    -4.6732820   -0.0754670    0.2135600  
C    -5.3933000   -1.0673260    0.8920840  
C    -6.7358240   -1.0044920    0.4566750  
C    -6.8117170    0.0484190   -0.5071380  
N    -5.5614460    0.5846650   -0.6306700  
C    -8.0057020    0.3888980   -1.1565490  
C    -9.1356890   -0.3416990   -0.8314460  
O   -10.3214100   -0.0585230   -1.4286270  
C    -9.0787320   -1.4004030    0.1303220  
O   -10.2947650   -2.0180300    0.3306170  
C    -7.9076050   -1.7363270    0.7686380  
H    -4.9763630   -1.7838550    1.5825590  
H    -5.2505400    1.2926260   -1.2827240  
H    -8.0717910    1.1864170   -1.8886400  
H   -10.9855390   -0.6735390   -1.0703920  
H   -10.2009440   -2.7216600    0.9899640  
H    -7.8839720   -2.5436500    1.4972860  
C    -1.2779170   -1.0267650    2.9950340  
C    -2.5363050   -0.9115340    2.4957190  
C    -2.3946040   -0.1671570    1.2527190  
C    -0.9451600    0.1010430    1.1679400  
N    -0.2936220   -0.4132170    2.1811840  
C    -0.3452880    0.8736810    0.0870920  
C    -1.2055080    1.3525060   -0.8547290  
O    -0.8041420    2.0606810   -1.9263100  
C    -2.6736760    1.1205620   -0.7935880  
O    -3.3509040    1.6654000   -1.6754840  
C    -3.2736190    0.2564940    0.2822730  
H    -3.4538460   -1.2438900    2.9570280  
H    -1.6246870    2.3290540   -2.3904860  
H    -0.9681380   -1.5032120    3.9175570  
C     3.3276900   -1.6330780    0.1106880  
C     2.0518020   -1.1840710    0.1370590  
C     2.0887270    0.2584990    0.1036630  
C     3.5229780    0.6299870    0.0515530  
N     4.2452680   -0.5678660    0.0861970  
C     3.9825620    1.8974550   -0.0915030  
C     3.0077270    2.9801420   -0.1457920  
O     3.3238740    4.1490920   -0.3052090  
C     1.4887360    2.6268250    0.0131870  
O     0.6908920    3.5403830    0.1200720  
C     1.0920140    1.1958070    0.0577090  
H     1.1646390   -1.7936440    0.1984780  
H     5.0304530    2.1532030   -0.1723210  
H     3.7035760   -2.6442390    0.1075550  
C     6.6237890   -3.2681640   -2.3131050  
C     7.8794520   -2.9161950   -1.9568230  
C     7.7151030   -1.8580800   -0.9638290  
C     6.2335990   -1.7013170   -0.8480880  
N     5.6037900   -2.5245840   -1.6316230  
C     5.6396570   -0.7199320    0.0515990  
C     6.4974040    0.0128950    0.8235720  
O     6.0948500    0.9119410    1.7376420  
C     7.9785350   -0.1253910    0.7102230  
O     8.6746340    0.5759950    1.4460040  
C     8.5573550   -1.1050830   -0.2330580  
H     8.8162950   -3.3145060   -2.3205650  
H     6.9239270    1.2802980    2.1180970  
H     9.6402110   -1.1715070   -0.2744630  
H     6.3153340   -4.0207860   -3.0281770  
