62


C     4.7381210    0.0566490   -2.2685070  
C     5.7380630   -0.8479430   -2.4976220  
C     6.0367920   -1.4781280   -1.2427450  
C     5.1667050   -0.9096010   -0.2758080  
N     4.3751330    0.0371800   -0.9233510  
C     5.1645320   -1.3119640    1.0693510  
C     6.0709860   -2.2936350    1.4445850  
O     6.1097770   -2.7202130    2.7394130  
C     6.9564190   -2.8639880    0.4925420  
O     7.7978020   -3.8244450    1.0199700  
C     6.9446680   -2.4744100   -0.8345590  
H     6.2142140   -1.0386470   -3.4497460  
H     4.4718200   -0.9133310    1.8028230  
H     6.7960940   -3.4071830    2.7970660  
H     8.3645310   -4.1796970    0.3194460  
H     7.6258900   -2.9339020   -1.5482340  
H     4.2480940    0.7485040   -2.9382850  
C     0.0503480    0.5094270   -1.7084720  
C     1.3487710    0.0968130   -1.7376040  
C     2.0643610    0.8828970   -0.7691570  
C     1.1416000    1.7799170   -0.1804480  
N    -0.1051070    1.5437660   -0.7777290  
C     1.4898530    2.6322690    0.8718310  
C     2.8066200    2.6074210    1.3057870  
O     3.1993860    3.4287430    2.3181430  
C     3.7640360    1.7512290    0.7034870  
O     5.0337730    1.8759440    1.2106520  
C     3.4037380    0.8857600   -0.3266330  
H     1.7609860   -0.6677610   -2.3805630  
H     0.7897900    3.3080270    1.3454190  
H     4.1408580    3.2481550    2.4873980  
H     5.5855850    1.1299800    0.9189970  
H    -0.7978540    0.2054030   -2.3032580  
C    -4.1763650   -0.0078960    0.0505340  
C    -2.8226540    0.0404640   -0.2134630  
C    -2.4928470    1.4409910   -0.3049330  
C    -3.7931610    2.1360230   -0.1054400  
N    -4.7667770    1.2975880    0.1046280  
C    -3.9061570    3.5733630   -0.1270260  
C    -2.7731600    4.2877370   -0.3045520  
O    -2.7212560    5.6292290   -0.3242160  
C    -1.4330190    3.6297950   -0.5131170  
O    -0.4745000    4.3662820   -0.7329920  
C    -1.3361700    2.1448940   -0.4863130  
H    -2.1141800   -0.7760030   -0.1889150  
H    -4.8720340    4.0429820    0.0196330  
H    -1.7821130    5.8541030   -0.5044840  
C    -3.9771010   -3.9801660   -1.7834630  
C    -5.0606080   -4.5554550   -1.2038470  
C    -5.6432510   -3.5724380   -0.3136680  
C    -4.7923920   -2.3672670   -0.4147750  
N    -3.7890290   -2.6868520   -1.2999410  
C    -5.0196080   -1.1713500    0.2302980  
C    -6.1772270   -1.1459880    1.1628750  
O    -6.3962070   -0.2314420    1.9324330  
C    -7.1284560   -2.3969800    1.2196150  
O    -8.1457870   -2.3285010    1.8901690  
C    -6.7520450   -3.5977390    0.4748160  
H    -5.4268410   -5.5573550   -1.3736590  
H    -7.3994710   -4.4660540    0.5510470  
H    -3.2867680   -4.3856480   -2.5110520  
H    -3.1503970   -2.0023030   -1.6788750  
