60


C     3.8879870   -1.1384870   -1.1924890  
C     4.5602210   -0.1850150   -0.4341880  
C     5.8021090   -0.8185370   -0.0074610  
C     5.8062730   -2.1272740   -0.5528480  
N     4.6346620   -2.2775290   -1.2758830  
C     6.8276290   -3.0558430   -0.3324320  
C     7.8827890   -2.6637930    0.4769650  
O     8.9105030   -3.5258450    0.7286610  
C     7.8942520   -1.3683190    1.0499720  
O     9.0009340   -1.1174960    1.8416800  
C     6.8791640   -0.4556780    0.8264650  
H     4.3533240   -3.1169660   -1.7584610  
H     6.8163890   -4.0538450   -0.7588010  
H     9.5385760   -3.0584450    1.3061710  
H     8.9647630   -0.2029600    2.1586910  
H     6.9278600    0.5323240    1.2688790  
H     2.9149500   -1.0706110   -1.6512830  
C     0.3892010    1.2013630   -0.3545690  
C     0.5482980    2.5123340    0.0077960  
C     1.9734180    2.7158290    0.1280760  
C     2.5773360    1.3838240   -0.1827210  
N     1.6542620    0.5141950   -0.4528730  
C     4.0302730    1.1455780   -0.1593540  
C     4.7802360    2.2636130    0.1088990  
O     6.1344150    2.2834470    0.0995320  
C     4.2021950    3.5959730    0.4183000  
O     4.9863520    4.5286840    0.6408200  
C     2.7436290    3.7802230    0.4307880  
H    -0.2308300    3.2385090    0.1728580  
H     6.3584200    3.2199530    0.3079950  
H     2.3638550    4.7689130    0.6698480  
C    -3.7732560    2.4117840    0.2642490  
C    -4.4738430    1.3043170   -0.1006790  
C    -3.4332450    0.3508240   -0.5283300  
C    -2.1434610    1.0800140   -0.3275800  
N    -2.3660250    2.2803060    0.1281940  
C    -0.8398520    0.4764220   -0.6230070  
C    -0.8920540   -0.7892590   -1.1697310  
O     0.1619510   -1.5120800   -1.5651530  
C    -2.1854900   -1.5109020   -1.4158380  
O    -2.1226940   -2.6339210   -1.9196100  
C    -3.4682080   -0.8813910   -1.0623980  
H    -0.2308980   -2.3515900   -1.9033890  
H    -4.3728380   -1.4496780   -1.2531910  
H    -4.1714700    3.3427850    0.6503570  
C    -6.8165700    2.0435580   -0.6242130  
C    -5.9192850    1.1295560   -0.1451190  
C    -6.7103170   -0.0019790    0.3402410  
C    -8.1322190    0.3425500    0.0880640  
N    -8.1222160    1.6014420   -0.4829990  
C    -9.1854790   -0.4575190    0.3888290  
C    -8.9197820   -1.7477970    1.0203440  
O    -9.8011840   -2.5376540    1.3195830  
C    -7.4250750   -2.1199240    1.3323280  
O    -7.1793970   -3.1827090    1.8786040  
C    -6.3740960   -1.1680780    0.9503720  
H   -10.2179360   -0.1840360    0.1939120  
H    -5.3490420   -1.4384970    1.1818490  
H    -6.6149710    3.0031400   -1.0818720  
H    -8.9386290    2.0848910   -0.8239520  
