62


C     5.7558550   -0.8742600   -2.7471190  
C     5.1742660   -0.7402460   -1.5080430  
C     6.2286490   -0.7577490   -0.5273490  
C     7.4411170   -0.9048030   -1.2459310  
N     7.1210700   -0.9832110   -2.5885760  
C     8.6886700   -0.9634870   -0.6110200  
C     8.7065060   -0.8731050    0.7715040  
O     9.8938210   -0.9199210    1.4404780  
C     7.4966030   -0.7317600    1.5058800  
O     7.6824920   -0.6627460    2.8723380  
C     6.2671330   -0.6751900    0.8787360  
H     7.7850230   -1.0839010   -3.3400500  
H     9.6218810   -1.0728820   -1.1539700  
H     9.6939450   -0.8307420    2.3884580  
H     6.8306440   -0.5117550    3.3083650  
H     5.3519950   -0.5676690    1.4558670  
H     5.2968810   -0.8946280   -3.7248030  
C     2.8407580   -1.6010390   -1.6037630  
C     1.5924970   -1.1813940   -1.2266640  
C     1.7441600    0.0959560   -0.5968490  
C     3.1284380    0.4086640   -0.6436760  
N     3.7883960   -0.6506850   -1.2546050  
C     3.6580820    1.6161460   -0.1807320  
C     2.7629250    2.5423690    0.3342280  
O     3.2132220    3.7395410    0.8006280  
C     1.3726110    2.2740640    0.3821170  
O     0.6310260    3.2835340    0.9577080  
C     0.8347870    1.0482970   -0.0474190  
H     0.6775500   -1.7386080   -1.3579540  
H     4.7163620    1.8463630   -0.2283700  
H     2.4166800    4.2247130    1.0884630  
H    -0.1389500    3.4654510    0.3776050  
H     3.1587470   -2.5175180   -2.0797370  
C    -1.3148190   -2.3443910    1.7369630  
C    -2.6114660   -2.0291070    1.4950590  
C    -2.5713210   -0.7608770    0.7847590  
C    -1.1129710   -0.4540170    0.6758620  
N    -0.3919270   -1.3861610    1.2288590  
C    -0.6070490    0.7755440    0.0610220  
C    -1.5807680    1.6593330   -0.3125540  
O    -1.2958150    2.8875000   -0.8438230  
C    -3.0249660    1.4021260   -0.2108000  
O    -3.7877430    2.3147760   -0.5738840  
C    -3.5252430    0.0836510    0.2884800  
H    -3.4902430   -2.5623490    1.8242780  
H    -2.1727920    3.2961810   -1.0226150  
H    -0.9253370   -3.2056010    2.2661040  
C    -4.9468870   -0.2169650    0.2223110  
C    -5.5654610   -1.4490520    0.2444790  
C    -6.9797180   -1.2370500    0.1043900  
C    -7.1665020    0.2305710   -0.0140130  
N    -5.9100260    0.7856690    0.0837220  
C    -8.3702730    0.8351960   -0.1840550  
C    -9.5655930   -0.0000820   -0.2482570  
O   -10.6901940    0.4526950   -0.3983970  
C    -9.3909760   -1.5580600   -0.1150700  
O   -10.3791360   -2.2740730   -0.1633790  
C    -8.0380830   -2.0941470    0.0601750  
H    -5.0731970   -2.4074370    0.2961950  
H    -8.4898900    1.9104290   -0.2716970  
H    -7.9280520   -3.1709720    0.1463910  
H    -5.6510090    1.7403640   -0.1276100  
