64


C    -3.0324110   -1.3692720   -0.0761960  
C    -3.8980180   -0.5581290   -0.7721100  
C    -5.2381630   -0.9954910   -0.5003170  
C    -5.1434700   -2.0969140    0.3827430  
N    -3.7876880   -2.3653690    0.5887830  
C    -6.2637820   -2.7585380    0.8893880  
C    -7.5120790   -2.3043400    0.4841930  
O    -8.6384460   -2.9120540    0.9514820  
C    -7.6264770   -1.2154660   -0.4201260  
O    -8.9299780   -0.8920540   -0.7372570  
C    -6.5122140   -0.5627650   -0.9164650  
H    -3.6020690    0.2235410   -1.4581900  
H    -3.4671760   -2.7263560    1.4805490  
H    -6.1960080   -3.6004140    1.5707620  
H    -9.4005510   -2.4547960    0.5555540  
H    -8.9411680   -0.1299610   -1.3350970  
H    -6.6236590    0.2720960   -1.6051990  
C     0.0581800    1.9090180   -0.0155900  
C    -1.1299740    1.1709780   -0.0291080  
C    -0.7908520   -0.2002490   -0.0706370  
C     0.6332770   -0.2765270   -0.0781710  
N     1.1120130    1.0041650   -0.0543150  
C     1.3587480   -1.4940460   -0.0701760  
C     0.5557230   -2.6396330    0.0071010  
O     1.1323620   -3.8795190    0.0401390  
C    -0.8631330   -2.5870050    0.0232970  
O    -1.4470670   -3.8365770    0.0602240  
C    -1.5751810   -1.3921430   -0.0323790  
H    -2.1245070    1.5778920    0.0538150  
H     2.0696330    1.2843270    0.1114430  
H     0.4057510   -4.5297590    0.0250780  
H    -2.4011270   -3.7462280   -0.1280110  
C    -2.5269460    5.5463420   -0.5743760  
C    -2.1077510    4.2534580   -0.6007750  
C    -0.7199440    4.2863980   -0.1588400  
C    -0.4670770    5.7208020    0.0831350  
N    -1.5258390    6.4568490   -0.1475300  
C     0.8160120    6.2173720    0.5134370  
C     1.8201650    5.3264460    0.6656730  
O     3.0776610    5.6602350    1.0260530  
C     1.6147070    3.8691700    0.4169750  
O     2.6130820    3.1477980    0.5281030  
C     0.2522200    3.3358610    0.0558220  
H    -2.6698330    3.3927660   -0.9300530  
H     0.9568060    7.2793060    0.6824790  
H     3.5794370    4.8184490    1.0386090  
H    -3.5014210    5.9344370   -0.8463900  
C     2.8157020   -1.5359380   -0.1338390  
C     3.7186160   -0.5885030   -0.5989440  
C     5.0321800   -1.1246150   -0.4425020  
C     4.8847870   -2.4178800    0.1284060  
N     3.5402350   -2.6345360    0.3132430  
C     5.9785090   -3.2452770    0.4153810  
C     7.2421110   -2.7590690    0.1211250  
O     8.3436790   -3.5228450    0.3794160  
C     7.4086950   -1.4664920   -0.4490320  
O     8.7296180   -1.1279940   -0.6809440  
C     6.3300140   -0.6517660   -0.7308440  
H     3.4728150    0.3550910   -1.0641350  
H     3.1055290   -3.5010310    0.5921750  
H     5.8713940   -4.2332620    0.8511320  
H     9.1210390   -3.0066380    0.1047490  
H     8.7712360   -0.2416860   -1.0691320  
H     6.4824760    0.3338190   -1.1666270  
