60


C     5.7964830   -1.8578970   -2.3042750  
C     5.3167400   -1.1901180   -1.1910890  
C     6.4830020   -0.7817710   -0.4320380  
C     7.6224020   -1.2318500   -1.1448890  
N     7.1684120   -1.8854360   -2.2769440  
C     8.9320710   -1.0297690   -0.6954030  
C     9.0993600   -0.3629180    0.5082650  
O    10.3530980   -0.1351650    0.9905170  
C     7.9712300    0.0775900    1.2506160  
O     8.2982370    0.7064210    2.4349830  
C     6.6792730   -0.1274590    0.8015710  
H     7.7555870   -2.2737320   -2.9989290  
H     9.8029200   -1.3749980   -1.2431060  
H    10.2576650    0.3326520    1.8382200  
H     7.4912270    0.9890450    2.8901210  
H     5.8353540    0.2020610    1.4026800  
H     5.2465530   -2.2828950   -3.1318410  
C     2.8681630   -1.8491710   -1.0801530  
C     3.9097870   -0.9910190   -0.8925380  
C     3.2615340    0.2510290   -0.4031750  
C     1.8121700   -0.0827220   -0.3514630  
N     1.5958390   -1.3017460   -0.7568320  
C     0.8159230    0.8865760    0.0724500  
C     1.2752000    2.1289010    0.4019100  
O     0.4874280    3.1149400    0.8554210  
C     2.7245960    2.4971280    0.3216810  
O     3.0425670    3.6416500    0.6459840  
C     3.7072860    1.4887020   -0.1206150  
H     1.0841020    3.8849100    0.9884200  
H     4.7459300    1.7970380   -0.1838140  
H     2.9174920   -2.8747570   -1.4249340  
C    -1.7020580   -2.1990170    2.0975640  
C    -0.6337320   -1.4938290    1.6673410  
C    -1.1809930   -0.4721110    0.7867240  
C    -2.6617920   -0.7185680    0.8041390  
N    -2.9469270   -1.7248300    1.5778150  
C    -3.6170420    0.1055980    0.0574770  
C    -3.0458380    1.1239110   -0.6768340  
O    -3.7026100    1.9793880   -1.4543930  
C    -1.5539510    1.3764510   -0.7082560  
O    -1.1688450    2.2726180   -1.4552510  
C    -0.6215500    0.5545480    0.1038720  
H     0.4100090   -1.6499480    1.8924390  
H    -3.0002550    2.5512790   -1.8468830  
H    -1.7180830   -3.0506880    2.7668810  
C    -5.0407500   -0.1635640    0.1108550  
C    -5.6906750   -1.1759260    0.7721260  
C    -7.0947300   -0.9850880    0.5019440  
C    -7.1424260    0.2324570   -0.3697140  
N    -5.9579720    0.7078500   -0.5963140  
C    -8.3924380    0.7591510   -0.8618840  
C    -9.5270340    0.1123310   -0.5094880  
O   -10.7604200    0.4818210   -0.8894680  
C    -9.5093430   -1.1189480    0.3679930  
O   -10.5979880   -1.6336330    0.6310210  
C    -8.2282060   -1.6359310    0.8578170  
H    -5.2361720   -1.9473110    1.3716810  
H    -8.4004610    1.6422370   -1.4910440  
H   -11.3605400   -0.1794240   -0.4759660  
H    -8.2544910   -2.5208510    1.4863070  
