66


C     0.5050000    1.7337430   -0.6718540  
C     1.7834430    1.2388910   -0.5314470  
C     1.6851690   -0.1647570   -0.2352390  
C     0.3015650   -0.4765080   -0.2001920  
N    -0.3922060    0.6973240   -0.4268430  
C    -0.2129870   -1.7795150   -0.0064500  
C     0.7695760   -2.7739740    0.0960300  
O     0.4166160   -4.0933210    0.2282240  
C     2.1551270   -2.4854860    0.0913160  
O     2.9467650   -3.6025060    0.2740080  
C     2.6543220   -1.1871520   -0.0351000  
H     2.6896620    1.8196360   -0.6251670  
H    -1.3526070    0.7123990   -0.7399140  
H     1.2666250   -4.5763900    0.2698130  
H     3.6874020   -3.5496260   -0.3701590  
C     0.6254620    3.9361100   -1.9000080  
C     0.0310310    3.0659690   -1.0110710  
C    -1.1372540    3.7470210   -0.4936960  
C    -1.1887400    5.0203980   -1.1151570  
N    -0.0978950    5.1082880   -1.9584090  
C    -2.1921420    5.9575860   -0.8393770  
C    -3.1593460    5.6056900    0.0890280  
O    -4.1601420    6.4820280    0.3953460  
C    -3.1141320    4.3419010    0.7352690  
O    -4.1368330    4.1429930    1.6447980  
C    -2.1228210    3.4184950    0.4589020  
H     0.1127310    5.8900260   -2.5586150  
H    -2.2330920    6.9335450   -1.3123170  
H    -4.7104320    6.0613100    1.0782740  
H    -3.9917060    3.3090290    2.1156300  
H    -2.0953950    2.4669340    0.9854820  
H     1.5039950    3.7936000   -2.5127620  
C    -1.6458530   -2.0582850    0.0385200  
C    -2.7238290   -1.2159800    0.2844780  
C    -3.9174750   -1.9973810    0.2035460  
C    -3.5170540   -3.3281070   -0.0963190  
N    -2.1466300   -3.3310920   -0.1986760  
C    -4.4339960   -4.3769470   -0.2434320  
C    -5.7786060   -4.0797350   -0.0869620  
O    -6.7160040   -5.0653920   -0.2213860  
C    -6.1975140   -2.7552390    0.2108200  
O    -7.5698380   -2.6182070    0.3351360  
C    -5.2922190   -1.7211560    0.3563620  
H    -2.6671490   -0.1759260    0.5713420  
H    -1.5470030   -4.1369630   -0.3029490  
H    -4.1320250   -5.3937090   -0.4727550  
H    -7.5855020   -4.6525880   -0.0823110  
H    -7.7842680   -1.6895570    0.5062870  
H    -5.6407610   -0.7148340    0.5827860  
C     4.7898710    1.8116410    2.4082010  
C     6.0684610    1.5171160    2.0102690  
C     5.9744500    0.4505760    1.0552760  
C     4.5944220    0.1417520    0.9100150  
N     3.9021040    0.9775020    1.7607050  
C     4.1025950   -0.8819220    0.0644080  
C     5.0877310   -1.5908040   -0.6232470  
O     4.7262140   -2.6293250   -1.4666380  
C     6.4663480   -1.3024310   -0.4944870  
O     7.2772700   -2.1207970   -1.2638490  
C     6.9241490   -0.2926830    0.3283400  
H     6.9724120    1.9943450    2.3629060  
H     2.8957230    1.0417290    1.7970530  
H     5.5502030   -2.9780430   -1.8532270  
H     8.2022330   -1.8570290   -1.1519770  
H     7.9891880   -0.0894570    0.4186430  
H     4.4312530    2.5506630    3.1109190  
