62


C    -3.5815140   -2.3122830    2.9450820  
C    -4.4039820   -3.2682330    2.4091960  
C    -4.9523610   -2.7218710    1.2002820  
C    -4.4164340   -1.4157090    1.0520310  
N    -3.5943770   -1.1913950    2.1362520  
C    -4.7663860   -0.5500790   -0.0108750  
C    -5.6649510   -1.0682610   -0.9512980  
O    -5.9937280   -0.3290510   -2.0445640  
C    -6.1986290   -2.3747280   -0.8199420  
O    -7.0591010   -2.7289840   -1.8448330  
C    -5.8618570   -3.1988890    0.2363430  
H    -4.6031020   -4.2451570    2.8280040  
H    -3.0346080   -0.3645220    2.2728210  
H    -6.7048150   -0.8030400   -2.5100210  
H    -7.5204810   -3.5465930   -1.6072580  
H    -6.2881690   -4.1972010    0.3143490  
H    -2.9809040   -2.3303050    3.8435010  
C    -0.6642950    1.2413700   -0.0459760  
C    -1.7453780    0.3865330   -0.0220690  
C    -2.9428750    1.1803440   -0.0916580  
C    -2.4985100    2.5912880   -0.1719090  
N    -1.1261420    2.5627790   -0.1233420  
C    -3.3244490    3.6647830   -0.3005820  
C    -4.7536880    3.4245140   -0.3554280  
O    -5.5844310    4.3066460   -0.5244080  
C    -5.2641800    1.9485280   -0.1703800  
O    -6.4579770    1.7687780   -0.0161570  
C    -4.2736470    0.8327100   -0.1203660  
H    -1.6761560   -0.6874710    0.0249860  
H    -2.9643760    4.6848460   -0.3915300  
H    -0.5144020    3.3611360   -0.2036670  
C     1.4192180   -2.6055800    0.3488880  
C     2.7183500   -2.2269830    0.2889040  
C     2.6892120   -0.7782300    0.1233620  
C     1.2384120   -0.4441890    0.1080890  
N     0.5091170   -1.5153640    0.2437610  
C     0.7527690    0.9350080   -0.0136770  
C     1.7382410    1.8850540   -0.0964360  
O     1.5009550    3.2091950   -0.2243220  
C     3.1979900    1.5722710   -0.1150680  
O     3.9574050    2.5187350   -0.3218970  
C     3.6685330    0.1640530    0.0510640  
H     3.6005140   -2.8448650    0.3757520  
H     2.3971160    3.6122470   -0.3208530  
H     1.0151280   -3.6023700    0.4766430  
C     6.1279530   -2.4773400   -2.5344770  
C     7.3470610   -2.1712630   -1.9909740  
C     7.1104810   -1.2381550   -0.9262490  
C     5.7095390   -1.0164260   -0.8696630  
N     5.1386400   -1.7785070   -1.8653970  
C     5.1126260   -0.1085810    0.0379730  
C     5.9787400    0.5431210    0.9242320  
O     5.4681640    1.3630610    1.8812120  
C     7.3766230    0.3154670    0.8856760  
O     8.0769130    1.0309970    1.8371550  
C     7.9477390   -0.5531120   -0.0246760  
H     8.3036410   -2.5595310   -2.3119870  
H     4.1487330   -1.8542430   -2.0419110  
H     6.2204250    1.7618310    2.3531010  
H     9.0267910    0.8749120    1.7302730  
H     9.0248210   -0.7073140   -0.0370110  
H     5.8714990   -3.1407880   -3.3481120  
