66


C     0.3909520   -0.6972070   -1.5401700  
C    -0.9073520   -0.3608850   -1.2684230  
C    -1.3972040   -1.3025340   -0.3014240  
C    -0.3322340   -2.1933360   -0.0154370  
N     0.7586610   -1.8125300   -0.7907240  
C    -0.4303530   -3.2213940    0.9280440  
C    -1.6400530   -3.3578300    1.5891600  
O    -1.8053480   -4.3551500    2.5080650  
C    -2.7237490   -2.4857000    1.3196710  
O    -3.8615630   -2.7726040    2.0529120  
C    -2.6350860   -1.4519570    0.3817640  
H    -1.4504300    0.4656500   -1.7025400  
H     0.3839410   -3.9044100    1.1379250  
H    -2.7310290   -4.3105100    2.8053590  
H    -4.6132990   -2.2841680    1.6705450  
H     1.0983330   -0.2613740   -2.2316260  
C     4.5272750   -0.0010150    0.4052070  
C     5.3348140   -1.0845710    0.1581070  
C     4.4842980   -2.1387690   -0.3176770  
C     3.1649440   -1.6219720   -0.3491930  
N     3.2136030   -0.3131320    0.0866830  
C     2.0581340   -2.3793980   -0.7687960  
C     2.2976240   -3.6952890   -1.1653000  
O     1.2663450   -4.4773810   -1.5867110  
C     3.6141510   -4.2235410   -1.1288490  
O     3.6871220   -5.5383140   -1.5484400  
C     4.7004520   -3.4707230   -0.7210700  
H     6.4096010   -1.1062640    0.2686370  
H     2.4111000    0.2576480    0.3094420  
H     1.6390810   -5.3499270   -1.8028500  
H     4.6080100   -5.8367460   -1.5206600  
H     5.6974540   -3.9057850   -0.7072470  
C     5.7017060    1.4609220    2.0142390  
C     5.8315580    2.7990970    2.2534210  
C     5.0294260    3.4871590    1.2795030  
C     4.4307930    2.4993460    0.4576050  
N     4.8495760    1.2528460    0.9289720  
C     3.6041520    2.8207550   -0.6267230  
C     3.3605420    4.1643160   -0.8701320  
O     2.5593330    4.5296240   -1.9136210  
C     3.9378720    5.1660210   -0.0474320  
O     3.5985350    6.4548760   -0.4141440  
C     4.7657270    4.8443420    1.0125260  
H     6.4210590    3.2468150    3.0418220  
H     3.1664080    2.0732930   -1.2783820  
H     2.5172300    5.5013510   -1.9168180  
H     4.0284540    7.0843600    0.1832820  
H     5.2073070    5.6288930    1.6240920  
H     6.1166380    0.6069670    2.5293250  
C    -3.7811590   -0.5872040    0.0977030  
C    -4.2374220   -0.0572230   -1.0862570  
C    -5.4229800    0.7040980   -0.8083590  
C    -5.6596960    0.6089890    0.5844250  
N    -4.6883220   -0.2338370    1.1212000  
C    -6.7237040    1.2570340    1.2169010  
C    -7.5766800    2.0122330    0.4231780  
O    -8.6293590    2.6704780    0.9914420  
C    -7.3681800    2.1017050   -0.9771290  
O    -8.3057240    2.8778230   -1.6329790  
C    -6.3117110    1.4586970   -1.5981310  
H    -3.8018240   -0.2422920   -2.0582480  
H    -4.3706330   -0.1344760    2.0778030  
H    -6.9054990    1.1900870    2.2847950  
H    -9.0988810    3.1322330    0.2755920  
H    -8.0934360    2.9099650   -2.5773910  
H    -6.1700880    1.5454360   -2.6736760  
