62


C     4.1655580   -0.4758880   -0.5755910  
C     4.8921550   -1.1443070   -1.5534320  
C     6.1187830   -1.5706100   -0.9737380  
C     6.1083550   -1.1435660    0.3854380  
N     4.9320720   -0.4529410    0.5915420  
C     7.1565980   -1.4140830    1.2699900  
C     8.2436130   -2.1180630    0.7734150  
O     9.2913540   -2.4090470    1.5891650  
C     8.2812380   -2.5389790   -0.5885360  
O     9.4342620   -3.2188350   -0.9202860  
C     7.2445540   -2.2736630   -1.4584900  
H     4.5848880   -1.2589170   -2.5839210  
H     4.5565330   -0.2331210    1.5017850  
H     7.1534420   -1.0947180    2.3068990  
H     9.9495300   -2.8921370    1.0592940  
H     9.4109030   -3.4667920   -1.8564960  
H     7.2917350   -2.6060230   -2.4932330  
C     1.8394060   -0.1378710   -1.5132440  
C     2.8659750    0.1281320   -0.6472240  
C     2.3444150    1.2396970    0.1916290  
C     0.9655130    1.4612570   -0.3039320  
N     0.7032690    0.6654110   -1.3101450  
C     0.0952440    2.4961380    0.2468470  
C     0.6811320    3.2943140    1.1921080  
O     0.0275580    4.3293310    1.8031650  
C     2.0649880    3.1334060    1.6722790  
O     2.4808940    3.9040860    2.5474930  
C     2.8991770    2.0528020    1.1091350  
H     0.6909300    4.6990170    2.4315400  
H     3.9274230    1.9961140    1.4530230  
H     1.8169150   -0.8882510   -2.2937650  
C    -3.3751600   -0.3419300   -0.3462860  
C    -2.1494160    0.2128460   -0.0458050  
C    -2.2050550    1.6068620   -0.3611320  
C    -3.5173440    1.8609050   -0.8419430  
N    -4.2132420    0.6700850   -0.8062770  
C    -3.9618240    3.1277840   -1.2308760  
C    -3.0642760    4.1744490   -1.0986000  
O    -3.4285410    5.4378780   -1.4464740  
C    -1.7546300    3.9633750   -0.5896730  
O    -0.9888540    5.1095130   -0.5432890  
C    -1.2866580    2.6907360   -0.2376230  
H    -1.3138780   -0.3245200    0.3764150  
H    -5.1064640    0.5136360   -1.2475080  
H    -4.9641810    3.3144530   -1.6023670  
H    -2.6530130    5.9965180   -1.2464930  
H    -0.5726510    5.1613600    0.3440920  
C    -3.0552550   -2.8320660   -0.4652510  
C    -3.8216700   -1.7209810   -0.2549770  
C    -5.1549500   -2.2053290    0.1025420  
C    -5.0847280   -3.6890240    0.0730090  
N    -3.7802850   -3.9996470   -0.2497860  
C    -6.1318150   -4.5145340    0.3290360  
C    -7.4188810   -3.9200620    0.6733420  
O    -8.4187530   -4.5806910    0.9108500  
C    -7.5092780   -2.3521100    0.7462440  
O    -8.5716180   -1.8323780    1.0477790  
C    -6.3059460   -1.5685660    0.4428070  
H    -6.0581070   -5.5973990    0.2991890  
H    -6.3821180   -0.4885910    0.5186170  
H    -2.0175620   -2.8836810   -0.7658990  
H    -3.4363620   -4.9325910   -0.4145330  
