64


C     4.8741220   -1.2394310   -2.0839830  
C     4.8886480   -0.3514920   -1.0253270  
C     6.1233300   -0.5940150   -0.3126510  
C     6.8028400   -1.6369180   -0.9899390  
N     6.0165940   -2.0124120   -2.0622370  
C     8.0369630   -2.1433970   -0.5615440  
C     8.5951190   -1.5821800    0.5753190  
O     9.7981460   -2.0306710    1.0371740  
C     7.9255060   -0.5382390    1.2696480  
O     8.6088990   -0.0845840    2.3829570  
C     6.7074840   -0.0449100    0.8457660  
H     6.2740750   -2.6880400   -2.7643980  
H     8.5594520   -2.9410920   -1.0796710  
H    10.0156960   -1.5048110    1.8262420  
H     8.1245830    0.6561110    2.7766370  
H     6.2214570    0.7661830    1.3803220  
H     4.1571360   -1.3379200   -2.8877640  
C     0.5971250   -1.0618610   -0.6496430  
C     0.1745630    0.2443580   -0.3820980  
C     1.3795760    1.0587710   -0.3675010  
C     2.4648340    0.1987820   -0.6403290  
N     1.9446610   -1.0804380   -0.8049940  
C     3.8134940    0.6025400   -0.7018010  
C     4.0329810    1.9601120   -0.4478700  
O     5.3007160    2.4655140   -0.4839530  
C     2.9561140    2.8393420   -0.1657500  
O     3.3539850    4.1443430    0.0527060  
C     1.6391430    2.4182620   -0.1286210  
H     2.5173600   -1.8980360   -0.9626830  
H     5.2255930    3.4256090   -0.3409720  
H     2.5700370    4.7044440    0.1555860  
H     0.8205510    3.0976000    0.0858030  
H     0.0127190   -1.9668720   -0.7341980  
C    -1.1754880    0.6498330   -0.1690520  
C    -2.3358780   -0.1067590   -0.1925780  
C    -3.4043390    0.7889450    0.0687890  
C    -2.7275940    2.1242720    0.2395890  
N    -1.4362710    2.0392250    0.1081900  
C    -3.4732600    3.3238560    0.5065130  
C    -4.8180470    3.2049710    0.5457690  
O    -5.6571440    4.2264830    0.7508860  
C    -5.5284320    1.8780330    0.3267740  
O    -6.7749700    1.9659670    0.3103790  
C    -4.7799760    0.6453370    0.1553460  
H    -2.4248750   -1.1661380   -0.3790360  
H    -2.9676510    4.2727480    0.6438470  
H    -6.5562860    3.8265020    0.6891370  
C    -4.0688640   -3.2269140    2.3202680  
C    -4.0167230   -1.9263170    1.8913480  
C    -5.0202110   -1.7683730    0.8732280  
C    -5.6631980   -3.0291600    0.7403030  
N    -5.0515000   -3.9006870    1.6190270  
C    -6.7374180   -3.2542230   -0.1258590  
C    -7.1884320   -2.1656300   -0.8553720  
O    -8.2447970   -2.2981570   -1.7039870  
C    -6.5724150   -0.8911940   -0.7414070  
O    -7.1378060    0.0711840   -1.5544020  
C    -5.4677560   -0.6660020    0.0853630  
H    -3.3384110   -1.1699610    2.2566230  
H    -5.3360790   -4.8536470    1.7806830  
H    -7.2307880   -4.2162050   -0.2213730  
H    -8.3923700   -1.4040570   -2.0692170  
H    -7.2633320    0.8713510   -0.9975500  
H    -3.4823620   -3.7366070    3.0718070  
