64


C    -6.6925120   -3.3142040    1.2113260  
C    -5.9956130   -2.1733640    0.8996640  
C    -4.7241150   -2.5829160    0.3780240  
C    -4.7057670   -4.0009350    0.4092230  
N    -5.9204340   -4.4175840    0.9130650  
C    -3.6024610   -4.7597350    0.0030800  
C    -2.4846320   -4.0746490   -0.4439360  
O    -1.3880410   -4.7675310   -0.8611210  
C    -2.4635160   -2.6563330   -0.4868110  
O    -1.2848140   -2.1567800   -0.9856090  
C    -3.5686720   -1.8861660   -0.0852420  
H    -6.3462840   -1.1632790    1.0490420  
H    -6.1909410   -5.3774550    1.0592210  
H    -3.5926230   -5.8447710    0.0238280  
H    -0.7299600   -4.1119670   -1.1530360  
H    -1.3344630   -1.1866440   -1.0909390  
H    -7.6837110   -3.4315690    1.6257570  
C    -3.5460630   -0.4359120   -0.1816140  
C    -4.5440460    0.4564180   -0.4711260  
C    -3.9926700    1.7864840   -0.4793480  
C    -2.5591510    1.6317090   -0.1686140  
N    -2.3087340    0.2559080   -0.0603180  
C    -1.6631280    2.6421410   -0.0095720  
C    -2.1808620    4.0167200   -0.2357170  
O    -1.4620900    4.9983250   -0.2254490  
C    -3.7091790    4.2036300   -0.5636940  
O    -4.1370450    5.3416350   -0.6970670  
C    -4.5430260    3.0157120   -0.6916960  
H    -5.5620660    0.1958180   -0.7209410  
H    -5.5950280    3.1565400   -0.9198650  
H    -1.6363020   -0.0455520    0.6396410  
C     1.4469190    0.4110480   -2.2363450  
C     2.4962380    0.6152080   -1.3729420  
C     1.9675570    1.4016270   -0.2766760  
C     0.5952630    1.6281730   -0.5385510  
N     0.2891150    0.9843970   -1.7252420  
C    -0.2361580    2.4065570    0.2956440  
C     0.3714480    2.9608850    1.4258580  
O    -0.3751300    3.6809290    2.3051220  
C     1.7465470    2.7455130    1.6974170  
O     2.1851200    3.3543940    2.8598250  
C     2.5457850    1.9792040    0.8693780  
H    -0.5398400    1.1809360   -2.2666450  
H     0.2381150    4.0692790    2.9535430  
H     3.1537040    3.3545940    2.8759260  
H     3.5991720    1.8320820    1.0951130  
H     1.4215360   -0.1437520   -3.1636340  
C     4.6421870    0.2861540   -2.6806080  
C     3.8737930    0.1480040   -1.5463060  
C     4.6959370   -0.5574680   -0.5870320  
C     5.9460210   -0.8124920   -1.2071750  
N     5.8807800   -0.2936570   -2.4848880  
C     6.9863280   -1.4934450   -0.5619580  
C     6.7585150   -1.9317340    0.7331550  
O     7.7392120   -2.6007790    1.4090460  
C     5.5090770   -1.6971490    1.3657510  
O     5.4315420   -2.1995720    2.6533580  
C     4.4844650   -1.0245070    0.7260830  
H     6.6342740   -0.2955740   -3.1539050  
H     7.9433880   -1.6914120   -1.0341110  
H     7.3740080   -2.8404510    2.2781260  
H     4.5297360   -2.0856920    2.9877410  
H     3.5325550   -0.8626960    1.2269530  
H     4.4025390    0.7780720   -3.6128260  
