64


C    -6.7474780    2.8873340    1.0642030  
C    -5.5907270    2.2280150    0.7367590  
C    -5.9173680    0.8372570    0.5890090  
C    -7.3144780    0.7220770    0.8301860  
N    -7.7876300    1.9821340    1.1320140  
C    -8.0114580   -0.4836950    0.7270870  
C    -7.2861740   -1.5996420    0.3359190  
O    -7.9064190   -2.8018180    0.1988460  
C    -5.8967780   -1.5194650    0.0624930  
O    -5.3358340   -2.7251440   -0.2960980  
C    -5.1755740   -0.3276040    0.2197920  
H    -4.6195370    2.6857350    0.6226940  
H    -8.7510140    2.2103830    1.3202650  
H    -9.0774710   -0.5685730    0.9123320  
H    -7.2163430   -3.4177950   -0.1147410  
H    -4.7541860   -2.5480460   -1.0686070  
H    -6.9169680    3.9366340    1.2600510  
C    -1.8099150    1.4625180    2.5384350  
C    -3.0277180    0.9784070    2.2058580  
C    -2.8538580    0.3613280    0.8916680  
C    -1.4111360    0.5556560    0.5925600  
N    -0.8150340    1.2157890    1.5433500  
C    -0.7918730    0.0862710   -0.6526770  
C    -1.6583990   -0.5432630   -1.5016940  
O    -1.2599770   -1.0689570   -2.7036930  
C    -3.0716900   -0.8089060   -1.1997550  
O    -3.6885700   -1.5184320   -2.0212480  
C    -3.7138000   -0.2510250    0.0292230  
H    -3.9466960    1.0270500    2.7702360  
H    -2.0615790   -1.5161560   -3.0577850  
H    -1.5164520    1.9868760    3.4394280  
C     3.0364550   -0.6003890    1.6428410  
C     1.7226330   -0.5474400    1.2645230  
C     1.6743180    0.0532210   -0.0365350  
C     3.0163320    0.3339160   -0.4036440  
N     3.8403570   -0.0615390    0.6427750  
C     3.3776690    0.8675040   -1.6433620  
C     2.3560580    1.1055880   -2.5480500  
O     2.6374020    1.6179930   -3.7783250  
C     1.0054720    0.8177410   -2.2272170  
O     0.1168000    1.1456010   -3.2291140  
C     0.6258950    0.3221180   -0.9672930  
H     0.8837540   -0.8618030    1.8656860  
H     4.4051160    1.0863510   -1.9080670  
H     1.7768750    1.6851960   -4.2341150  
H    -0.4835900    0.3812860   -3.3653650  
H     3.4867010   -0.9384330    2.5656340  
C     6.5899720   -3.4222680    0.9171950  
C     7.7551040   -2.6999040    0.9091300  
C     7.3936400   -1.3132280    0.8116990  
C     5.9772880   -1.2645310    0.7662670  
N     5.5123560   -2.5590670    0.8349530  
C     5.2591250   -0.0587220    0.6619780  
C     5.9963210    1.1221920    0.6002930  
O     5.3576520    2.3211820    0.5084990  
C     7.4157470    1.0807200    0.6288490  
O     7.9992500    2.3320180    0.5511970  
C     8.1164700   -0.1053560    0.7388040  
H     8.7553000   -3.1069720    0.9652750  
H     4.5394310   -2.8220710    0.7957320  
H     6.0452000    3.0089170    0.4723680  
H     8.9622370    2.2431330    0.6018390  
H     9.2043470   -0.1012840    0.7604490  
H     6.4316400   -4.4897420    0.9772690  
