60


C    -3.8741800   -0.0662040    0.2513170  
C    -4.0894840   -1.3670760    0.7275650  
C    -5.4068690   -1.7445770    0.3767530  
C    -5.9829090   -0.6403400   -0.3242610  
N    -5.0391050    0.3472300   -0.3835840  
C    -7.2906160   -0.6663890   -0.8247580  
C    -8.0265730   -1.8215580   -0.6201790  
O    -9.2998280   -1.9055340   -1.0844800  
C    -7.4659560   -2.9384070    0.0758610  
O    -8.3359250   -4.0019990    0.1885050  
C    -6.1813820   -2.9139090    0.5694460  
H    -3.3551480   -1.9931140    1.2113210  
H    -5.0923200    1.2395200   -0.8597620  
H    -7.7338370    0.1678970   -1.3575420  
H    -9.6420120   -2.7854680   -0.8475870  
H    -7.9040230   -4.7312260    0.6578020  
H    -5.7738090   -3.7737950    1.0967210  
C    -0.2066480   -0.0846790    2.8006570  
C    -1.4381030   -0.3173030    2.2836450  
C    -1.6249090    0.5696660    1.1545580  
C    -0.3950110    1.3568010    1.0557040  
N     0.4795840    0.8625070    2.0263620  
C    -0.1386600    2.3801990    0.1742810  
C    -1.2241540    2.6937790   -0.7595860  
O    -1.1139390    3.4572330   -1.7027820  
C    -2.6007030    1.9580110   -0.5875110  
O    -3.5476840    2.4122650   -1.2148020  
C    -2.7005760    0.7666530    0.2988320  
H    -2.1645320   -1.0088280    2.6798270  
H     0.2765330   -0.5267560    3.6614300  
H     1.1772460    1.4731640    2.4354190  
C     4.0364500    0.9476100   -0.1487110  
C     4.6616540    2.1610170   -0.2493620  
C     3.6492940    3.1858390   -0.1977410  
C     2.3593640    2.4807760   -0.0498140  
N     2.6427490    1.1162420   -0.0883620  
C     1.1394750    3.0887480    0.0620280  
C     1.1533360    4.5777050    0.0927490  
O     0.1723900    5.2310390    0.3920650  
C     2.4991490    5.3319310   -0.1994880  
O     2.4765800    6.5478250   -0.3128390  
C     3.7235800    4.5437180   -0.2977910  
H     5.7191390    2.3183630   -0.4073150  
H     4.6590380    5.0717710   -0.4540360  
H     2.0491190    0.4530110    0.3995390  
C     4.5998310   -0.3810570   -0.1629090  
C     5.8606670   -0.7992950    0.1674140  
C     5.9121890   -2.2290180   -0.0047510  
C     4.5660680   -2.6356430   -0.4769290  
N     3.7906030   -1.4818250   -0.4953670  
C     4.2222110   -3.9030290   -0.8085290  
C     5.2275720   -4.9563690   -0.6612190  
O     5.0047820   -6.1263080   -0.9274710  
C     6.6486370   -4.5547450   -0.1212510  
O     7.4948490   -5.4232830    0.0213420  
C     6.9023450   -3.1442660    0.1830760  
H     6.6563790   -0.1723040    0.5435000  
H     3.2353380   -4.1830250   -1.1640680  
H     7.8925260   -2.8746260    0.5374800  
H     2.9832290   -1.3850950   -1.0969470  
