62


C    -5.8670060   -0.0669660    2.6416210  
C    -7.1143390   -0.6113320    2.5250230  
C    -7.1702220   -1.2831750    1.2557670  
C    -5.9071730   -1.1111770    0.6369820  
N    -5.1143840   -0.3565340    1.5013870  
C    -5.5944440   -1.6621220   -0.6116680  
C    -6.5845240   -2.3884800   -1.2556520  
O    -6.3325670   -2.9449410   -2.4757710  
C    -7.8601290   -2.5632290   -0.6563720  
O    -8.7362540   -3.3101940   -1.4200670  
C    -8.1599210   -2.0254040    0.5816270  
H    -7.9084860   -0.5363920    3.2553340  
H    -4.6267000   -1.5396370   -1.0848120  
H    -7.1474200   -3.3921150   -2.7626550  
H    -9.5949860   -3.3585040   -0.9747390  
H    -9.1416760   -2.1787890    1.0253970  
H    -5.4291830    0.5320930    3.4273510  
C    -2.7062710   -0.3215920    2.0443210  
C    -3.7822300    0.0307560    1.2865150  
C    -3.3059520    0.9322350    0.2444260  
C    -1.8489710    1.0638280    0.4648470  
N    -1.5446690    0.2627850    1.5540920  
C    -1.0061310    1.8423420   -0.2739320  
C    -1.6135010    2.5981490   -1.3916210  
O    -0.9582960    3.2726170   -2.1651100  
C    -3.1691190    2.4984980   -1.6115870  
O    -3.6764280    3.1658880   -2.4975770  
C    -3.9451160    1.6074370   -0.7450260  
H    -5.0141940    1.5298570   -0.9129160  
H    -2.6747950   -0.9685920    2.9105910  
H    -0.6619900    0.2997340    2.0422600  
C     2.1297510   -1.2562770   -0.4584300  
C     3.2157120   -0.4669890   -0.1231680  
C     2.7006680    0.8713980    0.0925870  
C     1.3040850    0.8134730   -0.1250530  
N     0.9898090   -0.4968890   -0.4480380  
C     0.4480040    1.9284910   -0.0147090  
C     1.0559330    3.1354980    0.3353920  
O     0.2933620    4.2454950    0.4976540  
C     2.4536840    3.2081660    0.5770990  
O     2.8812370    4.4655540    0.9424250  
C     3.2761280    2.1018480    0.4677770  
H     0.0818110   -0.8070870   -0.7609630  
H     0.8915440    4.9933190    0.6713600  
H     3.8448000    4.4726230    1.0429060  
H     4.3363930    2.1830030    0.6932780  
H     2.1020050   -2.3010100   -0.7325960  
C     4.5818450   -0.9266400   -0.0362090  
C     5.0839050   -2.1641050    0.2775000  
C     6.5170680   -2.1113330    0.1790460  
C     6.8461670   -0.7233700   -0.2307280  
N     5.6419530   -0.0339530   -0.2835330  
C     8.0990170   -0.2777410   -0.4890460  
C     9.2158310   -1.2071050   -0.3193450  
O    10.3774410   -0.8882660   -0.5217410  
C     8.8958020   -2.6709690    0.1586460  
O     9.8232430   -3.4531310    0.3147660  
C     7.5000870   -3.0337900    0.3834770  
H     4.5012820   -3.0140200    0.6035330  
H     8.3213360    0.7386360   -0.8004440  
H     7.2892920   -4.0528170    0.6936830  
H     5.5162610    0.7857360   -0.8611850  
