62


C     2.7726910   -1.2896370   -0.0916430  
C     3.7169130   -0.2711860   -0.3227790  
C     5.0015800   -0.8202920   -0.1343620  
C     4.8195150   -2.1984950    0.2118140  
N     3.4755850   -2.4453120    0.2256140  
C     5.8937530   -3.0566990    0.4675450  
C     7.1694420   -2.5231670    0.3713550  
O     8.2491800   -3.3070760    0.6071420  
C     7.3723900   -1.1483270    0.0230510  
O     8.7021210   -0.7936810   -0.0261000  
C     6.3175290   -0.3030080   -0.2287670  
H     3.4930920    0.7305680   -0.6555600  
H     2.9954300   -3.3250370    0.3775110  
H     5.7646580   -4.1012300    0.7290000  
H     9.0452310   -2.7588010    0.4888950  
H     8.7862330    0.1413460   -0.2658840  
H     6.4903930    0.7382330   -0.4912920  
C    -0.2923680    2.0027430   -0.1594590  
C     0.8722800    1.2529000   -0.0218000  
C     0.5599990   -0.1169960   -0.2266530  
C    -0.8876640   -0.1653040   -0.4757960  
N    -1.3367850    1.1297640   -0.4598550  
C    -1.6291280   -1.3023020   -0.6900320  
C    -0.9268580   -2.5753330   -0.6346660  
O    -1.4357030   -3.6609560   -0.8614990  
C     0.5962920   -2.5588870   -0.2334290  
O     1.1005300   -3.6444960    0.0262900  
C     1.3436080   -1.2765330   -0.1836840  
H     1.8219850    1.6457750    0.2979120  
H    -2.3048960    1.4262890   -0.4792110  
C     2.3847360    5.6099820    0.0406770  
C     1.9598020    4.3320930   -0.1796210  
C     0.5311380    4.3591150    0.0458070  
C     0.2563350    5.7803640    0.3890310  
N     1.3484300    6.5043460    0.3980710  
C    -1.0701660    6.2585530    0.6613940  
C    -2.0953820    5.3801350    0.5619980  
O    -3.3859260    5.7099190    0.7542890  
C    -1.8708730    3.9474770    0.1997460  
O    -2.8828150    3.2467940    0.0727940  
C    -0.4823420    3.4210230    0.0143740  
H     2.5590360    3.4962910   -0.5070870  
H    -1.2293470    7.3009320    0.9145100  
H    -3.8974920    4.8879350    0.5970720  
H     3.3960510    5.9915100   -0.0409790  
C    -3.5203420   -0.5096670   -2.0991670  
C    -4.8788000   -0.6452490   -2.1330610  
C    -5.2499300   -1.4995980   -1.0388370  
C    -4.0560030   -1.8627900   -0.3674460  
N    -2.9951750   -1.2417430   -1.0290940  
C    -4.0509280   -2.6708850    0.7748410  
C    -5.2734100   -3.1323840    1.2372360  
O    -5.3236350   -3.9292980    2.3449000  
C    -6.4788100   -2.7853850    0.5725360  
O    -7.6136480   -3.3202820    1.1541240  
C    -6.4804050   -1.9793910   -0.5506590  
H    -5.5413230   -0.1997150   -2.8628610  
H    -3.1419610   -2.9634980    1.2860720  
H    -6.2564480   -4.1648870    2.4868160  
H    -8.3865010   -3.0986340    0.6142370  
H    -7.4163120   -1.7177010   -1.0407510  
H    -2.8506010    0.0166420   -2.7643440  
