62


C     0.3572960    3.2436860   -0.5095140  
C    -0.3052120    4.4100190   -0.9046410  
C    -1.4625130    4.5316150   -0.1045310  
C    -1.4810220    3.4063730    0.7853800  
N    -0.3752840    2.6535100    0.5141400  
C    -2.5002080    3.2089340    1.7258920  
C    -3.5124400    4.1515640    1.7726750  
O    -4.5250270    4.0132310    2.6621050  
C    -3.5118160    5.2824880    0.8912690  
O    -4.5928090    6.1130510    1.0793830  
C    -2.5131450    5.4799220   -0.0324170  
H     0.0238540    5.0835250   -1.6840090  
H    -0.0763740    1.7937180    0.9544180  
H    -2.5229760    2.3605350    2.4009900  
H    -5.1377120    4.7591340    2.5339930  
H    -4.5638260    6.8441600    0.4440690  
H    -2.5293880    6.3441450   -0.6924320  
C     1.5540770    2.6237750   -0.9594310  
C     2.4564660    2.9731680   -1.9388320  
C     3.4559650    1.9541720   -1.9298340  
C     3.0113300    0.9956240   -0.8563620  
N     1.9137020    1.3965170   -0.2928470  
C     3.7696810   -0.2093850   -0.5186510  
C     4.9226870   -0.3556510   -1.2260230  
O     5.7901240   -1.3798070   -1.0392370  
C     5.3996700    0.5849990   -2.3055050  
O     6.4714890    0.2776800   -2.8474440  
C     4.6063890    1.7467430   -2.6326250  
H     2.4304430    3.8425220   -2.5805370  
H     6.5056420   -1.2011550   -1.7045760  
H     4.9685680    2.4095310   -3.4114930  
C    -0.1721790   -2.2533160    0.3672490  
C     0.8438950   -1.4959280   -0.1897120  
C     2.0021930   -1.6462360    0.6253200  
C     1.6440990   -2.5281510    1.6837860  
N     0.3340180   -2.9141470    1.4890210  
C     2.5295980   -2.9137860    2.6943620  
C     3.8215230   -2.4257450    2.6051520  
O     4.7470630   -2.7671900    3.5341000  
C     4.2223250   -1.5653410    1.5386750  
O     5.5380120   -1.1687500    1.6263870  
C     3.3356100   -1.1393860    0.5501440  
H     0.7608780   -0.9280540   -1.1032380  
H    -0.2494300   -3.3034260    2.2156820  
H     2.2528500   -3.5814110    3.5033840  
H     5.5757990   -2.3311500    3.2547730  
H     5.9541350   -1.2777880    0.7445810  
C    -1.5246540   -2.4434460   -0.0690200  
C    -2.3132680   -1.6586060   -0.8739480  
C    -3.5916040   -2.2955710   -1.0132580  
C    -3.5133350   -3.5473900   -0.2222080  
N    -2.2614800   -3.5570280    0.3891470  
C    -4.5027790   -4.4683530   -0.1487500  
C    -5.7537820   -4.2034420   -0.8612330  
O    -6.6986320   -4.9773450   -0.8440350  
C    -5.8792210   -2.8578360   -1.6642090  
O    -6.9267590   -2.6203980   -2.2511620  
C    -4.7323380   -1.9578660   -1.6824380  
H    -2.0329900   -0.6969800   -1.2798250  
H    -4.4257760   -5.3863780    0.4263400  
H    -4.8209110   -1.0409570   -2.2572360  
H    -1.7969020   -4.4316130    0.5975610  
