62


C    -1.4810650   -3.7308540   -1.7352420  
C    -2.5424650   -4.5813730   -1.6786330  
C    -3.4976020   -4.0213130   -0.7584200  
C    -2.9538690   -2.8061390   -0.2764460  
N    -1.7100950   -2.6279130   -0.9007790  
C    -3.5927520   -2.0360220    0.7005960  
C    -4.8320270   -2.4709700    1.1474910  
O    -5.5039580   -1.7341910    2.0830860  
C    -5.4078520   -3.6666790    0.6523420  
O    -6.6411960   -3.9614160    1.1951360  
C    -4.7501840   -4.4475240   -0.2828650  
H    -2.6450260   -5.5006200   -2.2388480  
H    -3.1659870   -1.1384060    1.1302740  
H    -6.3336540   -2.2020720    2.2818610  
H    -6.9609580   -4.8053660    0.8430940  
H    -5.1937050   -5.3762030   -0.6357110  
H    -0.5803310   -3.7658020   -2.3292810  
C    -0.8163000   -1.5813500   -0.7553150  
C     0.5527390   -1.6272960   -0.8113520  
C     1.0287580   -0.2919540   -0.6008580  
C    -0.1723180    0.5615230   -0.4474970  
N    -1.2609410   -0.2740190   -0.5863810  
C    -0.1627650    1.9226590   -0.2467790  
C     1.1731920    2.4754830    0.0816900  
O     1.3314380    3.5419240    0.6482730  
C     2.4617390    1.6478810   -0.2546190  
O     3.5314050    2.2331390   -0.2716810  
C     2.3058840    0.2157660   -0.5368470  
H     1.1586660   -2.5130990   -0.9199950  
H    -2.1723180    0.0265730   -0.2273870  
C     3.5410260   -1.3695260   -1.9903320  
C     4.7440720   -2.0130220   -1.9934200  
C     5.4415960   -1.6191600   -0.7994180  
C     4.6049020   -0.7101060   -0.1053800  
N     3.4300390   -0.5658030   -0.8511480  
C     4.9607650   -0.1597800    1.1308000  
C     6.1909780   -0.5164040    1.6615950  
O     6.5867600   -0.0000800    2.8624150  
C     7.0461110   -1.4145030    0.9727250  
O     8.2359450   -1.6734710    1.6279740  
C     6.6860340   -1.9672180   -0.2428370  
H     5.1042080   -2.6795940   -2.7655780  
H     4.3352780    0.5434740    1.6657810  
H     7.4772720   -0.3457690    3.0440950  
H     8.7900520   -2.2425390    1.0738860  
H     7.3500890   -2.6641670   -0.7507730  
H     2.7446560   -1.3666050   -2.7198710  
C    -4.3799110    1.5966060    1.2698230  
C    -4.7880240    2.8788830    1.1572480  
C    -3.6819130    3.5862350    0.5262400  
C    -2.6160540    2.5416590    0.3502210  
N    -3.0525050    1.3853070    0.7717660  
C    -1.3135400    2.8410000   -0.2301870  
C    -1.2027130    4.1033980   -0.7646310  
O    -0.1437290    4.5129920   -1.4681140  
C    -2.2605220    5.1574700   -0.6263640  
O    -2.0387720    6.2600120   -1.1268930  
C    -3.5173110    4.8418830    0.0730530  
H    -5.7375420    3.3056220    1.4482870  
H    -0.3131970    5.4586060   -1.6787360  
H    -4.2590170    5.6303370    0.1545780  
H    -4.9187730    0.7458380    1.6702840  
