64


C     1.7346100   -2.6975680    0.7553320  
C     0.7050540   -1.7891780    0.6457980  
C     1.2873230   -0.5211200    0.3254410  
C     2.6841410   -0.7240150    0.2624750  
N     2.9259570   -2.0587610    0.5130280  
C     3.6377800    0.2997610    0.0491040  
C     3.1235000    1.5872720   -0.0944760  
O     3.9548220    2.6334920   -0.3313840  
C     1.7274040    1.8446650   -0.0417760  
O     1.4200200    3.1459790   -0.2180820  
C     0.7659320    0.8049720    0.1306690  
H    -0.3344730   -2.0140220    0.8263760  
H     3.8460870   -2.4683340    0.5747230  
H     3.3878210    3.4251530   -0.3868760  
H     0.4160080    3.2339760   -0.1295080  
H     1.7086930   -3.7527060    0.9871530  
C    -0.6324540    1.0958140    0.0810230  
C    -1.7410460    0.2609760    0.0343040  
C    -2.8849090    1.0934130   -0.0072050  
C    -2.3363440    2.4892830    0.0078400  
N    -1.0329170    2.4794460    0.0537250  
C    -3.1778890    3.6463860   -0.0388970  
C    -4.5061270    3.4130760   -0.1508650  
O    -5.4273770    4.3727740   -0.2377710  
C    -5.0939440    2.0091550   -0.2178060  
O    -6.3327310    1.9918180   -0.3946070  
C    -4.2505100    0.8407570   -0.0810720  
H    -1.7497390   -0.8133880   -0.0122590  
H    -2.7619920    4.6467450   -0.0076860  
H    -6.2824830    3.8882760   -0.3355970  
C    -3.5378300   -2.6024560    2.7257910  
C    -3.5288710   -1.3751710    2.1134520  
C    -4.4034870   -1.4554390    0.9749080  
C    -4.9297690   -2.7760680    0.9632440  
N    -4.3721150   -3.4545310    2.0286230  
C    -5.8655950   -3.2206530    0.0253180  
C    -6.2992500   -2.2940680   -0.9100290  
O    -7.2249660   -2.6450280   -1.8435680  
C    -5.7985140   -0.9654990   -0.9240980  
O    -6.3213510   -0.1908330   -1.9394370  
C    -4.8268160   -0.5222930   -0.0200540  
H    -2.9624070   -0.5160180    2.4391970  
H    -4.6004390   -4.3986590    2.2966760  
H    -6.2700770   -4.2277440    0.0223570  
H    -7.3892150   -1.8317760   -2.3596210  
H    -6.5738830    0.6706000   -1.5381400  
H    -3.0160520   -2.9429440    3.6091140  
C     5.8566440   -2.3310440   -2.7134790  
C     7.1106990   -2.1386790   -2.1957090  
C     6.9779920   -1.2276140   -1.0935870  
C     5.6011620   -0.9032830   -0.9869730  
N     4.9397950   -1.5983960   -1.9806050  
C     5.0844650   -0.0011630   -0.0291650  
C     6.0150840    0.5676460    0.8438800  
O     5.5978630    1.4093340    1.8269330  
C     7.3958070    0.2481700    0.7509420  
O     8.1736880    0.8892030    1.6980790  
C     7.8845720   -0.6335490   -0.1933050  
H     8.0241770   -2.5904870   -2.5573630  
H     3.9608010   -1.4946800   -2.1997000  
H     6.3928800    1.7264990    2.2897280  
H     9.1081010    0.6943010    1.5345170  
H     8.9482250   -0.8592400   -0.2383060  
H     5.5302890   -2.9386800   -3.5456730  
