60


C    -3.0491040    3.5470340   -2.2011170  
C    -2.7062340    2.3417970   -1.6287350  
C    -3.8818810    1.8070470   -1.0126520  
C    -4.9176730    2.7410330   -1.2564710  
N    -4.3800960    3.7903870   -1.9711880  
C    -6.2428650    2.5578920   -0.8391200  
C    -6.5478960    1.3914090   -0.1623490  
O    -7.8202150    1.1572260    0.2563930  
C    -5.5497370    0.4182300    0.1113550  
O    -6.0206740   -0.6522460    0.7787120  
C    -4.1874660    0.6034210   -0.2819400  
H    -1.7242850    1.9019190   -1.6921990  
H    -4.8932840    4.5951440   -2.2967940  
H    -7.0250160    3.2843430   -1.0364410  
H    -7.8123110    0.2873320    0.6966630  
H    -5.2518340   -1.2978810    0.8972010  
H    -2.4432090    4.2463700   -2.7590330  
C    -3.2013680   -0.3721350    0.0680890  
C    -1.8175550   -0.3788950   -0.0827710  
C    -1.3606960   -1.6146850    0.4304160  
C    -2.5932450   -2.3226760    0.9030320  
N    -3.6503910   -1.5874830    0.6919400  
C    -2.5561210   -3.6313130    1.4811540  
C    -1.3371510   -4.2141270    1.5965610  
O    -1.1327450   -5.4286200    2.0992950  
C    -0.0453880   -3.5249010    1.1707040  
O     0.9961040   -4.1500360    1.3943300  
C    -0.1225860   -2.2090790    0.5613030  
H    -1.1990850    0.3967200   -0.4998950  
H    -3.4666800   -4.1262110    1.7987170  
H    -0.1525960   -5.5526900    2.0739800  
C     1.4190980   -0.2748640    0.6944800  
C     2.5712950    0.1979510    0.1345200  
C     3.0232500   -0.8369340   -0.7992480  
C     2.0357360   -1.9385010   -0.7112180  
N     1.0728260   -1.5373140    0.2211610  
C     2.0863810   -3.0753950   -1.4459430  
C     3.2095760   -3.2620800   -2.3617430  
O     3.3374930   -4.2548290   -3.0616180  
C     4.2942830   -2.1309850   -2.4350290  
O     5.2587370   -2.2794880   -3.1678560  
C     4.1021130   -0.9282020   -1.6157800  
H     1.3498950   -3.8666760   -1.3746510  
H     4.8297850   -0.1321120   -1.7192820  
H     0.7748320    0.2063280    1.4178810  
C     3.4819600    2.1639310    4.0071290  
C     3.1183760    1.2820780    3.0397250  
C     3.3726210    1.9105330    1.7598350  
C     3.9290550    3.2495130    2.0682270  
N     3.9470650    3.3474490    3.4456440  
C     4.3380500    4.1594260    1.1450230  
C     4.2278060    3.8018050   -0.2581060  
O     4.5845350    4.5296200   -1.1723610  
C     3.6124070    2.3986050   -0.6230080  
O     3.4677950    2.1248660   -1.8022880  
C     3.2035300    1.4763360    0.4670030  
H     2.7371430    0.2851330    3.1991390  
H     4.7489040    5.1305540    1.4026600  
H     3.4538810    2.0526170    5.0829110  
H     4.3283800    4.1262790    3.9594290  
