62


C    -3.4470300   -0.6612060    0.3331890  
C    -4.5592450    0.0274010    0.7777730  
C    -4.2068960    1.4179610    0.8688230  
C    -2.8528670    1.5328880    0.4824370  
N    -2.4094940    0.2652460    0.1902890  
C    -2.1253460    2.7516960    0.4198510  
C    -2.8658820    3.9061900    0.7553000  
O    -2.2854640    5.1255780    0.7697320  
C    -4.2280100    3.8026350    1.1514860  
O    -4.7929670    5.0231540    1.4701880  
C    -4.8977280    2.5950210    1.2240040  
H    -5.5074350   -0.4153430    1.0480510  
H    -1.6015910    0.0936420   -0.3911820  
H    -2.9685050    5.7652010    1.0415590  
H    -5.7149520    4.8977870    1.7384180  
H    -5.9383780    2.5634340    1.5405330  
C    -0.7212280    2.7428980    0.0551580  
C     0.1483000    1.6755810    0.1805110  
C     1.3903650    2.0888460   -0.3902830  
C     1.1346760    3.4961940   -0.8144290  
N    -0.0866710    3.8752800   -0.5603690  
C     2.1671750    4.2907020   -1.4281270  
C     3.3827600    3.7171690   -1.5787890  
O     4.4465560    4.3434310   -2.1051870  
C     3.6708450    2.2890310   -1.1646350  
O     4.8247250    1.8956210   -1.3544050  
C     2.5950340    1.4498520   -0.5925530  
H    -0.0208210    0.7444900    0.6938260  
H     1.9672060    5.3115220   -1.7336140  
H     5.1710240    3.6785590   -2.0884740  
C     1.8103860   -0.9300910   -0.4645880  
C     2.7848330    0.0276080   -0.3417500  
C     3.9567970   -0.7340260    0.1543120  
C     3.4523170   -2.1345060    0.2883910  
N     2.2003580   -2.2284700   -0.0864030  
C     4.2783720   -3.2057430    0.7687090  
C     5.5551130   -2.9117100    1.1160280  
O     6.4377750   -3.8066330    1.5815220  
C     6.0954060   -1.5128440    1.0019360  
O     7.2618780   -1.3227970    1.3403630  
C     5.2243110   -0.4309250    0.4940410  
H     3.8732780   -4.2085850    0.8472710  
H     7.2643850   -3.2996150    1.7423100  
H     5.6625890    0.5543410    0.3974120  
H     0.8068170   -0.7884170   -0.8355180  
C    -5.9376400   -3.9745250   -1.4393460  
C    -5.5260540   -2.7800210   -0.9072740  
C    -4.1461360   -2.9321280   -0.5405320  
C    -3.7682330   -4.2554430   -0.8938350  
N    -4.8833820   -4.8682040   -1.4291850  
C    -2.4668920   -4.7480880   -0.7463900  
C    -1.5172340   -3.9022390   -0.1876240  
O    -0.2418070   -4.3468180   -0.0268120  
C    -1.8878030   -2.5992850    0.2284200  
O    -0.8581250   -1.8953000    0.8370630  
C    -3.1706620   -2.0678140    0.0231890  
H    -6.1327350   -1.8927080   -0.8025500  
H    -4.9136230   -5.8115730   -1.7820130  
H    -2.1762980   -5.7466920   -1.0565630  
H     0.3617130   -3.6034560    0.1781480  
H    -1.2470730   -1.1973540    1.3893890  
H    -6.9026730   -4.2685680   -1.8274750  
