60


C     4.8698600    0.3517310   -0.1109930  
C     4.9892350   -1.0100320    0.1834310  
C     6.3640900   -1.3402850    0.1356880  
C     7.0733600   -0.1447160   -0.1933990  
N     6.1493340    0.8553210   -0.3352480  
C     8.4663450   -0.1077110   -0.3239510  
C     9.1551660   -1.2931110   -0.1205700  
O    10.5079420   -1.3180180   -0.2341940  
C     8.4634460   -2.5002950    0.2091820  
O     9.3040850   -3.5811930    0.3760690  
C     7.0938560   -2.5365710    0.3380000  
H     4.1579710   -1.6616400    0.3990720  
H     6.3295820    1.8214840   -0.5674270  
H     9.0129000    0.7953940   -0.5736340  
H    10.8000300   -2.2301110   -0.0593350  
H     8.7840040   -4.3704370    0.5885090  
H     6.5839370   -3.4640390    0.5892050  
C     0.6406940   -0.6384280    0.4347490  
C     0.0296940    0.5749930    0.2657570  
C     1.1409320    1.5018290   -0.0138630  
C     2.3572330    0.6477900    0.0410520  
N     2.0380430   -0.5960470    0.2950980  
C     3.6990740    1.1904650   -0.1942190  
C     3.7388360    2.5366190   -0.4950250  
O     4.8983580    3.2080710   -0.7382220  
C     2.5532000    3.3892140   -0.5905990  
O     2.7001870    4.5891070   -0.8702280  
C     1.2175210    2.8034740   -0.3464650  
H     4.6119620    4.1311000   -0.9266400  
H     0.3637890    3.4636870   -0.4654960  
H     0.1669570   -1.5814160    0.6795550  
C    -1.3765840    0.8705870    0.3427210  
C    -2.4542070    0.0448160    0.1241880  
C    -3.6561730    0.7995410    0.3424700  
C    -3.2186360    2.1654820    0.7123490  
N    -1.8323240    2.1621260    0.6493160  
C    -4.0475950    3.1918980    1.0222690  
C    -5.4855170    2.9566210    0.9631400  
O    -6.3134950    3.8220320    1.1989510  
C    -5.9851550    1.5185940    0.5800050  
O    -7.1788150    1.2822310    0.6440420  
C    -4.9873220    0.4774300    0.2302080  
H    -2.3987610   -0.9763360   -0.2218440  
H    -3.6978410    4.1871250    1.2790550  
H    -1.2654010    2.8400550    1.1378600  
C    -4.4796420   -3.6482780    1.8652810  
C    -4.4022560   -2.3098830    1.6480840  
C    -5.1916920   -2.0153120    0.4687500  
C    -5.7495180   -3.3133580    0.0171500  
N    -5.2596950   -4.2641830    0.8929530  
C    -6.5921440   -3.4785090   -1.0352230  
C    -6.9814590   -2.2990470   -1.7939200  
O    -7.7570680   -2.3326850   -2.7367960  
C    -6.3551320   -0.9177040   -1.3845610  
O    -6.5491430    0.0444780   -2.1037750  
C    -5.4871820   -0.8436190   -0.1760390  
H    -3.8604250   -1.5950520    2.2481070  
H    -7.0052400   -4.4397250   -1.3252450  
H    -4.0336930   -4.2423610    2.6520960  
H    -5.5276470   -5.2358000    0.8906880  
