62


C    -1.3398890   -3.4251710   -0.0222170  
C    -2.4149660   -4.3186630    0.0031080  
C    -3.6019100   -3.5608660   -0.1047320  
C    -3.2160720   -2.1831270   -0.1966210  
N    -1.8513130   -2.1379850   -0.1381830  
C    -4.1492390   -1.1465890   -0.3216040  
C    -5.4881130   -1.4989460   -0.3572660  
O    -6.4339700   -0.5403260   -0.4847740  
C    -5.8939470   -2.8708550   -0.2638120  
O    -7.2596170   -3.0352050   -0.3139620  
C    -4.9796820   -3.8898610   -0.1382470  
H    -2.3323600   -5.3932250    0.0916050  
H    -1.2565680   -1.3248920   -0.2031500  
H    -3.8675350   -0.1008380   -0.3825760  
H    -7.3060180   -0.9725010   -0.4659280  
H    -7.4828160   -3.9735200   -0.2213200  
H    -5.3068840   -4.9248520   -0.0695620  
C     0.0645340   -3.6378550    0.0373970  
C     0.7966660   -4.8002370    0.1113930  
C     2.1663150   -4.4021350    0.1146980  
C     2.1263110   -2.8982080    0.0477090  
N     0.9028870   -2.4640360    0.0019640  
C     3.3507300   -2.0920960    0.0321000  
C     4.5111300   -2.8203870    0.0513570  
O     5.7425480   -2.2675920    0.0264980  
C     4.5748710   -4.3187090    0.1129600  
O     5.7136180   -4.8119910    0.1320610  
C     3.3465510   -5.0818950    0.1479430  
H     0.4225110   -5.8137350    0.1421600  
H     6.3492870   -3.0512400    0.0571670  
H     3.4198390   -6.1634980    0.1930880  
C     3.3123080   -0.6408790   -0.0072780  
C     2.2300870    0.2321120    0.0447570  
C     2.7388700    1.5569540   -0.0117010  
C     4.1544230    1.4518160   -0.1141590  
N     4.4716020    0.1182400   -0.1012060  
C     4.9930860    2.5648170   -0.2240770  
C     4.3987180    3.8180000   -0.2346630  
O     5.1754450    4.9328420   -0.3224770  
C     2.9908290    3.9611060   -0.1397850  
O     2.5779630    5.2738010   -0.1330600  
C     2.1362370    2.8522570   -0.0243660  
H     1.2038280   -0.0848780    0.0984290  
H     5.3968150   -0.2843210   -0.1399640  
H     6.0728580    2.4837110   -0.2934700  
H     4.5822700    5.7025670   -0.2651330  
H     1.6327200    5.3180850    0.1073070  
C     0.7033500    3.0225260    0.1281740  
C    -0.2091450    2.2895930    0.8409500  
C    -1.5059260    2.8949960    0.7023230  
C    -1.3154440    4.0664580   -0.1806560  
N     0.0600590    4.1606640   -0.4467070  
C    -2.3127640    4.8682740   -0.6141880  
C    -3.6770440    4.5945390   -0.1488490  
O    -4.6345810    5.2688050   -0.4912260  
C    -3.8938010    3.3981070    0.8462250  
O    -5.0202990    3.1848250    1.2709940  
C    -2.7345370    2.5875280    1.2097400  
H     0.0301140    1.4451720    1.4710290  
H    -2.1573370    5.7197500   -1.2701340  
H    -2.8969860    1.7509330    1.8829570  
H     0.3495310    4.4522150   -1.3757010  
