62


C    -3.3839050   -2.8629190    2.1689170  
C    -3.4036650   -1.5507690    1.7635850  
C    -4.4272350   -1.4267930    0.7590120  
C    -5.0057770   -2.7149200    0.6120770  
N    -4.3365960   -3.5712550    1.4648750  
C    -6.0834830   -2.9767920   -0.2394250  
C    -6.6091890   -1.8988230   -0.9341480  
O    -7.6735940   -2.0732660   -1.7609420  
C    -6.0606410   -0.5943080   -0.8041550  
O    -6.6916960    0.3480580   -1.5845550  
C    -4.9450910   -0.3339860   -0.0020190  
H    -2.7882250   -0.7592040    2.1655030  
H    -4.5692120   -4.5411090    1.6105150  
H    -6.5277800   -3.9609110   -0.3475550  
H    -7.8856110   -1.1854120   -2.1082160  
H    -6.7978690    1.1553010   -1.0350230  
H    -2.7789540   -3.3504960    2.9206860  
C    -0.6945040    1.0032830   -0.2218040  
C    -1.8457180    0.2619250   -0.3275020  
C    -2.9301120    1.1568700   -0.0326220  
C    -2.2562230    2.4653000    0.2242030  
N    -0.9636520    2.3812380    0.1217520  
C    -3.0103520    3.6483600    0.5557230  
C    -4.3564080    3.5349510    0.5746970  
O    -5.1916250    4.5569830    0.8234110  
C    -5.0566930    2.2305010    0.2798730  
O    -6.2976490    2.2898970    0.2415300  
C    -4.2883960    0.9906670    0.0634490  
H    -1.9483010   -0.7619540   -0.6520760  
H    -2.5037280    4.5864610    0.7512340  
H    -6.0963070    4.1854090    0.7363840  
C     1.0203470   -2.8973670    0.8435540  
C     2.3197700   -2.6402040    0.4914140  
C     2.3460030   -1.3049930   -0.0319510  
C     1.0237660   -0.7980410    0.0254070  
N     0.2392380   -1.7964900    0.5574900  
C     0.6702360    0.5307520   -0.3369080  
C     1.7337170    1.3400890   -0.7860140  
O     1.5089380    2.5958310   -1.2209630  
C     3.0599040    0.8389810   -0.8834900  
O     3.9536220    1.7203900   -1.4554650  
C     3.3734400   -0.4667660   -0.5192420  
H     3.1572840   -3.3131640    0.6069010  
H    -0.7383600   -1.6993260    0.8004000  
H     2.3786650    2.9602850   -1.4754180  
H     4.8227330    1.6638580   -1.0157220  
H     0.5773590   -3.7835280    1.2749630  
C     5.0552240   -2.0788690   -1.4270440  
C     6.3975310   -2.2516870   -1.4593360  
C     6.9881620   -1.1894550   -0.6709730  
C     5.8538130   -0.3773170   -0.1618690  
N     4.6982630   -0.9565760   -0.6576420  
C     5.9931270    0.7092400    0.6513470  
C     7.3419500    1.1164360    1.0441250  
O     7.5618090    2.0587850    1.7880710  
C     8.5556120    0.2907240    0.4838530  
O     9.6906410    0.6343000    0.7697130  
C     8.2719450   -0.8763560   -0.3605980  
H     6.9320600   -3.0309150   -1.9829630  
H     5.1516050    1.2305010    1.0992850  
H     9.1185400   -1.4582460   -0.7125700  
H     4.2688290   -2.6500570   -1.9008670  
