62


C     4.1281620    1.9377830    0.5686320  
C     2.7736910    2.1580480    0.4702430  
C     2.1649740    0.9230290    0.0827860  
C     3.2108230   -0.0229710   -0.0243010  
N     4.4097390    0.6153470    0.2704790  
C     3.0020910   -1.3762070   -0.3238360  
C     1.6982970   -1.7936060   -0.5234050  
O     1.4390780   -3.0951660   -0.8156210  
C     0.6116740   -0.8828350   -0.4339820  
O    -0.5866320   -1.4572240   -0.6780320  
C     0.8106800    0.4995120   -0.1506760  
H     2.2910230    3.0987770    0.6825910  
H     3.8185300   -2.0852720   -0.4006080  
H     0.4735100   -3.1760260   -0.9202500  
H    -1.2909100   -0.7570850   -0.5483060  
H     4.9335040    2.6200800    0.8013140  
C    -0.2992120    1.4070570   -0.1258780  
C    -0.3610740    2.7867120   -0.1086620  
C    -1.7385210    3.1376010   -0.1085990  
C    -2.4733570    1.8266360   -0.0999420  
N    -1.6310290    0.8395060   -0.1336960  
C    -3.9302250    1.7435770   -0.0764590  
C    -4.5638760    2.9581120   -0.1569670  
O    -5.8912600    3.1161260   -0.1830700  
C    -3.8471660    4.2942520   -0.1972890  
O    -4.5895400    5.2849440   -0.2557070  
C    -2.4092480    4.3267010   -0.1566320  
H     0.4589260    3.4835700   -0.1644950  
H    -6.0110980    4.1026920   -0.2340700  
H    -1.9177880    5.2934690   -0.1803280  
C    -4.6313550    0.4719820    0.0286880  
C    -4.1534920   -0.7740450    0.3620980  
C    -5.2605360   -1.6919890    0.3568590  
C    -6.4572140   -0.8946760   -0.0081930  
N    -6.0115460    0.3921460   -0.2046580  
C    -7.7136380   -1.4003440   -0.1091750  
C    -7.9125270   -2.8220360    0.1510480  
O    -9.0048570   -3.3665420    0.0849140  
C    -6.6559300   -3.6890760    0.5336890  
O    -6.8054470   -4.8823510    0.7525140  
C    -5.3537550   -3.0269480    0.6130990  
H    -3.1338150   -1.0168060    0.6081360  
H    -8.5786280   -0.8007730   -0.3756330  
H    -4.4940450   -3.6340340    0.8804040  
H    -6.5947740    1.1981640   -0.3710670  
C     6.9758890   -1.0464840   -2.9818290  
C     5.9361980   -0.4726560   -2.2966560  
C     6.3187110   -0.4379470   -0.9144230  
C     7.6165250   -1.0084370   -0.8206710  
N     7.9891520   -1.3693720   -2.0991370  
C     8.3146040   -1.1247120    0.3874190  
C     7.6918320   -0.6628120    1.5363790  
O     8.3247850   -0.7603990    2.7403120  
C     6.3934750   -0.0942760    1.4788830  
O     5.8922930    0.3174360    2.6919390  
C     5.7098460    0.0237260    0.2730510  
H     5.0094310   -0.1185520   -2.7241770  
H     8.8625100   -1.8063180   -2.3485170  
H     9.3070490   -1.5582370    0.4548060  
H     7.7192250   -0.4126220    3.4175200  
H     4.9664700    0.5899280    2.5790320  
H     7.0812430   -1.2549710   -4.0370540  
