62


C     4.4033490   -0.3017080   -2.2667040  
C     4.1979580   -0.0493170   -0.9263480  
C     5.1430250   -0.8880190   -0.2127320  
C     5.8837850   -1.6106890   -1.1839990  
N     5.4088510   -1.2316270   -2.4231750  
C     6.8786450   -2.5361210   -0.8450180  
C     7.1295200   -2.7416860    0.5024620  
O     8.0907510   -3.6299560    0.8885540  
C     6.3896740   -2.0386780    1.4906010  
O     6.7475840   -2.3588220    2.7866430  
C     5.4077670   -1.1259980    1.1539520  
H     5.7429490   -1.5820520   -3.3073050  
H     7.4443390   -3.0909670   -1.5866140  
H     8.0975510   -3.6404450    1.8612610  
H     6.1832570   -1.8728390    3.4061270  
H     4.8477070   -0.6081080    1.9286050  
H     3.9121160    0.1338100   -3.1250190  
C    -0.1992110    0.4734240   -1.6183040  
C     1.0942170    0.0463370   -1.6462660  
C     1.8557470    0.8967060   -0.7701240  
C     0.9553750    1.8452880   -0.2263950  
N    -0.3112720    1.5841970   -0.7726160  
C     1.3395270    2.7708240    0.7476360  
C     2.6703650    2.7594390    1.1439130  
O     3.1046090    3.6613060    2.0760500  
C     3.5891300    1.8406450    0.5904240  
O     4.8791830    1.9814780    1.0667420  
C     3.2120390    0.8918980   -0.3642600  
H     1.4652170   -0.7979240   -2.2092580  
H     0.6626710    3.4943430    1.1805390  
H     4.0630730    3.5246780    2.1721920  
H     5.4663400    1.3973310    0.5577310  
H    -1.0765340    0.0790540   -2.1054560  
C    -4.2865940    0.0122000   -0.1021720  
C    -4.9768060    1.1685170    0.1654820  
C    -4.0201090    2.2433970    0.0208240  
C    -2.7415950    1.5468100   -0.3156610  
N    -2.8980650    0.2609750   -0.3842640  
C    -1.5000870    2.2844160   -0.5280210  
C    -1.5887270    3.6491740   -0.4885500  
O    -0.5570230    4.4748650   -0.7436830  
C    -2.8564790    4.3587870   -0.1543010  
O    -2.8300650    5.5942290   -0.1377250  
C    -4.0816800    3.5895400    0.1093970  
H    -6.0411040    1.2854350    0.3216920  
H    -0.9284880    5.3788390   -0.6270350  
H    -4.9787840    4.1512160    0.3509170  
C    -7.2174880   -1.9902290    2.4605410  
C    -7.1675880   -3.2400390    1.9350500  
C    -6.2183060   -3.2081490    0.8411660  
C    -5.7230170   -1.8161850    0.7658600  
N    -6.3857460   -1.1234400    1.7528080  
C    -4.7608340   -1.3581530   -0.1037650  
C    -4.2421530   -2.3422720   -1.0852990  
O    -3.5066490   -2.0451770   -2.0077870  
C    -4.7228760   -3.8362160   -0.9788410  
O    -4.2242550   -4.6647870   -1.7230180  
C    -5.7546430   -4.1732820    0.0019650  
H    -7.7258060   -4.1022770    2.2692630  
H    -6.0937230   -5.2037760    0.0462710  
H    -7.7967840   -1.6150180    3.2936260  
H    -6.1250350   -0.1911090    2.0419090  
