60


C     2.9491810   -2.1845490   -1.4493320  
C     3.2520620   -1.1477640   -0.5627630  
C     4.6178320   -1.3950740   -0.1192850  
C     5.0481910   -2.5869040   -0.7506760  
N     4.0095900   -3.0301080   -1.5591290  
C     6.3003720   -3.1689440   -0.5355050  
C     7.1540640   -2.5267160    0.3490830  
O     8.3909490   -3.0367260    0.5934530  
C     6.7433500   -1.3345260    1.0009820  
O     7.6963860   -0.8099840    1.8482680  
C     5.5003010   -0.7705650    0.7839040  
H     4.0625870   -3.8137830   -2.1927480  
H     6.6187050   -4.0827370   -1.0263300  
H     8.8343210   -2.4331100    1.2153570  
H     7.4049330    0.0573370    2.1680060  
H     5.2273980    0.1587490    1.2695130  
H     2.0668380   -2.3192520   -2.0572990  
C    -1.1706050   -1.1298150   -0.1536540  
C     0.1612680   -1.4849250   -0.2114320  
C     0.9420580   -0.2863780   -0.1810520  
C    -0.0213800    0.8306340   -0.0739180  
N    -1.2646310    0.2614290   -0.0955060  
C     0.3092690    2.1670960   -0.0122450  
C     1.7345140    2.4783920    0.0706220  
O     2.1729100    3.5974990    0.2847540  
C     2.7829880    1.3108920   -0.0473920  
O     3.9611980    1.6139360    0.0214760  
C     2.3168400   -0.0891800   -0.2440570  
H     0.5419240   -2.4946000   -0.2244060  
H    -2.1522440    0.7349810    0.0134010  
C    -3.3567600    3.2421100    2.3778480  
C    -2.2610130    2.5715890    1.9398860  
C    -1.7414400    3.3710170    0.8350810  
C    -2.6816780    4.5273120    0.7616410  
N    -3.6229190    4.4448550    1.6630270  
C    -2.5053580    5.5958920   -0.1874960  
C    -1.4507670    5.5197230   -1.0299510  
O    -1.1659820    6.4378100   -1.9684670  
C    -0.5109520    4.3433990   -1.0229960  
O     0.3205800    4.2907270   -1.9223660  
C    -0.6656210    3.2610500    0.0071690  
H    -1.8376000    1.6613250    2.3399250  
H    -3.2039210    6.4249810   -0.2071660  
H    -0.3860820    6.0838880   -2.4497530  
H    -4.0161220    2.9710200    3.1942430  
C    -2.3639530   -1.9190690   -0.1267510  
C    -2.5255910   -3.2831560   -0.1769570  
C    -3.9442000   -3.5026880   -0.1101040  
C    -4.5331000   -2.1235940   -0.0202740  
N    -3.6067690   -1.2074530   -0.0312910  
C    -5.9529150   -1.9137460    0.0650270  
C    -6.7474550   -3.0110560    0.0611920  
O    -8.0817510   -2.9741310    0.1342980  
C    -6.1852040   -4.4164280   -0.0284660  
O    -7.0004000   -5.3410320   -0.0240570  
C    -4.7391410   -4.6048280   -0.1137660  
H    -1.7579260   -4.0406820   -0.2504860  
H    -6.3550070   -0.9089100    0.1290720  
H    -8.3669800   -3.9166310    0.1096780  
H    -4.3697650   -5.6236220   -0.1757670  
