64


C     1.7569360   -0.4635280   -0.3515480  
C     3.0627780   -0.2312920    0.0157600  
C     3.1719320    1.2008190    0.2164010  
C     1.8942590    1.7628880   -0.0341860  
N     1.0374870    0.7242880   -0.3904570  
C     1.6368180    3.1381730    0.0781800  
C     2.6978500    3.9612710    0.4289240  
O     2.5004020    5.3032210    0.5554150  
C     3.9897770    3.4181010    0.6586540  
O     4.9402220    4.3633540    0.9857540  
C     4.2359270    2.0608170    0.5607100  
H     0.6510940    3.5663380   -0.0686140  
H     3.3533100    5.6996170    0.8046830  
H     5.7939890    3.9294960    1.1327210  
H     5.2316790    1.6656110    0.7445630  
H     1.2680230   -1.3938970   -0.6010150  
C    -2.6159220   -1.0252660    1.3770790  
C    -1.3269370   -0.6710090    1.1205280  
C    -1.3385650    0.1539860   -0.0580330  
C    -2.6801930    0.2594060   -0.4945290  
N    -3.4662680   -0.4870630    0.4005230  
C    -3.0567630    1.0750220   -1.5654200  
C    -2.0526800    1.7557090   -2.2379040  
O    -2.3699600    2.5491610   -3.2979260  
C    -0.6939410    1.6302370   -1.8529960  
O     0.1855460    2.3266700   -2.6438960  
C    -0.3297510    0.8399770   -0.7650710  
H    -0.4602350   -0.9727500    1.6909640  
H    -4.0801580    1.1857410   -1.8982560  
H    -1.5422280    2.9492910   -3.6177650  
H     1.0579330    2.3734020   -2.2169270  
H    -3.0293610   -1.6625050    2.1440840  
C     4.4722840   -3.5406760   -2.6886460  
C     3.8072570   -2.4670700   -2.1566490  
C     4.3730400   -2.2158730   -0.8597960  
C     5.3959380   -3.1812450   -0.6631010  
N     5.4307010   -3.9758840   -1.7913440  
C     6.1849430   -3.2314430    0.4925390  
C     5.9294450   -2.2855270    1.4718330  
O     6.6539050   -2.2911380    2.6310500  
C     4.9131760   -1.3124870    1.2970210  
O     4.7738530   -0.4578620    2.3781440  
C     4.1236270   -1.2486220    0.1497250  
H     3.0140080   -1.9120410   -2.6364230  
H     6.0594900   -4.7494480   -1.9380520  
H     6.9645360   -3.9705840    0.6464090  
H     6.2824100   -1.5925230    3.1972730  
H     3.9676370    0.0706490    2.2577640  
H     4.3458250   -4.0378340   -3.6400950  
C    -6.5206380   -0.2409090    3.5817360  
C    -5.3216900   -0.1695910    2.9522380  
C    -5.6004810   -0.5343690    1.5665850  
C    -7.0610910   -0.8038860    1.5506790  
N    -7.5954470   -0.6297770    2.7287140  
C    -7.7613340   -1.1810930    0.3475910  
C    -7.0450810   -1.2871790   -0.7933020  
O    -7.5694200   -1.6204050   -1.9871240  
C    -5.5634900   -1.0486410   -0.8246420  
O    -4.9779860   -1.2445410   -1.8843690  
C    -4.8556740   -0.6269350    0.4318120  
H    -4.3673010    0.1223890    3.3656700  
H    -8.8295690   -1.3639630    0.3781750  
H    -6.8116780   -1.6638930   -2.6086960  
H    -6.7377670   -0.0303160    4.6220490  
