62


C    -2.6091780   -1.6085370    2.9438630  
C    -3.6807970   -1.1210730    2.2436940  
C    -3.1683120   -0.6092980    1.0043160  
C    -1.7615360   -0.8025630    1.0258400  
N    -1.4434020   -1.3849880    2.2345320  
C    -0.9033750   -0.4011520   -0.0277300  
C    -1.5512900    0.1071610   -1.1642200  
O    -0.8379560    0.4271390   -2.2781480  
C    -2.9565990    0.2871230   -1.2031380  
O    -3.4114790    0.8296590   -2.3896560  
C    -3.7892570   -0.0371300   -0.1344560  
H    -4.7123660   -1.1142510    2.5645740  
H    -0.5962960   -1.9389790    2.3217430  
H    -1.4620030    0.8428390   -2.8999200  
H    -4.3433270    1.0851780   -2.2746910  
H    -2.5734780   -2.0956380    3.9085310  
C     1.9615010   -3.5249420    1.3010890  
C     3.1453280   -2.9955510    0.9106120  
C     2.8183630   -1.6882160    0.3554550  
C     1.3360950   -1.5974420    0.4763980  
N     0.8517640   -2.6751340    1.0412010  
C     0.5744460   -0.4378490    0.0274480  
C     1.3386510    0.6392040   -0.3358630  
O     0.8289050    1.8410880   -0.6413890  
C     2.8286970    0.5931220   -0.4455600  
O     3.3971750    1.6198850   -0.8200260  
C     3.5763850   -0.6610540   -0.1226510  
H     4.1320470   -3.4176290    1.0354450  
H     1.5987790    2.3947700   -0.8972930  
H     1.7812610   -4.4784570    1.7828550  
C     5.5957960   -1.8755090   -0.9173310  
C     5.0073210   -0.7563680   -0.3821990  
C     6.0977890    0.1991250   -0.1395900  
C     7.3434180   -0.4802150   -0.5756650  
N     6.9583120   -1.7289650   -1.0368880  
C     8.5890320    0.0510180   -0.5142520  
C     8.7416220    1.3935180    0.0398670  
O     9.8196450    1.9580650    0.1359010  
C     7.4461460    2.1247190    0.5402010  
O     7.5457370    3.2365660    1.0317010  
C     6.1508760    1.4426650    0.3997290  
H     9.4790410   -0.4752270   -0.8454280  
H     5.2692610    1.9839980    0.7185490  
H     5.1130040   -2.7821480   -1.2566880  
H     7.5779110   -2.3972740   -1.4695050  
C    -6.6122030    2.6055060    2.1924220  
C    -5.4997790    1.9560330    1.7247940  
C    -5.9301200    1.0993790    0.6559260  
C    -7.3323960    1.2784680    0.5181430  
N    -7.7197030    2.2019530    1.4674240  
C    -8.0964660    0.6041300   -0.4428330  
C    -7.4302050   -0.2744370   -1.2812680  
O    -8.1224780   -0.9744760   -2.2277280  
C    -6.0280440   -0.4640660   -1.1675890  
O    -5.5140570   -1.3794030   -2.0644420  
C    -5.2552680    0.2071210   -0.2180280  
H    -4.4920130    2.0651970    2.0982840  
H    -8.6620410    2.5288540    1.6106030  
H    -9.1689080    0.7361870   -0.5447580  
H    -7.4839490   -1.5625370   -2.6677260  
H    -4.5959370   -1.5792490   -1.8120120  
H    -6.7135700    3.3287960    2.9892870  
