62


C     2.1576550   -0.8410220   -1.2742910  
C     3.2549450   -0.5448270   -0.4937550  
C     2.8963170    0.6406930    0.2612290  
C     1.5781760    1.0015400   -0.1156930  
N     1.1584250    0.0836370   -1.0543440  
C     0.9035420    2.1288060    0.4058100  
C     1.5990930    2.8739970    1.3619840  
O     0.9955360    3.9376300    1.9567340  
C     2.9099560    2.5107290    1.7651290  
O     3.4402200    3.3451010    2.7292430  
C     3.5636490    1.4166350    1.2324710  
H     0.2423170    0.0702850   -1.4762000  
H     1.6485090    4.3460180    2.5517760  
H     4.3436510    3.0659170    2.9398000  
H     4.5676030    1.1581350    1.5587320  
H     2.0239970   -1.6403540   -1.9890090  
C    -3.0891270    0.0736740    0.2109570  
C    -1.7568400    0.3379790    0.4383870  
C    -1.5389750    1.6835780   -0.0152760  
C    -2.8815190    2.1222810   -0.5150690  
N    -3.7745720    1.1820230   -0.3856570  
C    -3.1057260    3.4392750   -1.0460840  
C    -2.0453750    4.2777000   -1.0821620  
O    -2.0918540    5.5307160   -1.5477210  
C    -0.6611400    3.8588530   -0.6193560  
O     0.2368700    4.6775960   -0.8000710  
C    -0.4498700    2.5128830   -0.0369530  
H    -1.0204850   -0.3050710    0.8992630  
H    -4.0904420    3.7306690   -1.3936610  
H    -1.1666750    5.8620620   -1.4795010  
C    -3.3548840   -2.2479670    1.1209850  
C    -3.8407860   -1.1193200    0.5028510  
C    -5.2566250   -1.3897220    0.2184880  
C    -5.5260860   -2.7576370    0.7212360  
N    -4.3275730   -3.2111160    1.2515520  
C    -6.7200530   -3.3959610    0.6544040  
C    -7.8423710   -2.6916930    0.0383340  
O    -8.9559810   -3.1801160   -0.0707650  
C    -7.5848990   -1.2394630   -0.5042710  
O    -8.5070670   -0.6333780   -1.0240670  
C    -6.2394270   -0.6608660   -0.3675310  
H    -6.8850790   -4.4000050    1.0331840  
H    -6.0615500    0.3415690   -0.7369960  
H    -2.3561170   -2.4375420    1.4915400  
H    -4.1960660   -4.1121080    1.6859940  
C     4.1873940   -4.9186120    0.0200960  
C     3.5471600   -3.7122410   -0.0954610  
C     4.5582680   -2.7088880   -0.2856580  
C     5.8099290   -3.3791020   -0.2698690  
N     5.5524570   -4.7229950   -0.0850130  
C     7.0336150   -2.7128500   -0.4096900  
C     6.9865320   -1.3381790   -0.5741420  
O     8.1444160   -0.6304500   -0.7342000  
C     5.7475960   -0.6484480   -0.5931550  
O     5.8771570    0.7163450   -0.7872150  
C     4.5229470   -1.2984940   -0.4492810  
H     2.4799700   -3.5518650   -0.0410510  
H     6.2517540   -5.4467580   -0.0353410  
H     7.9911440   -3.2235230   -0.4022660  
H     7.8876770    0.2944670   -0.8942360  
H     4.9996760    1.0907220   -0.9720590  
H     3.7861210   -5.9110010    0.1707790  
