62


C     3.6718650   -4.2048830    1.0415030  
C     3.4403140   -2.8544920    0.9532870  
C     4.5266300   -2.2858670    0.2111050  
C     5.4020560   -3.3541790   -0.1169880  
N     4.8511510   -4.5097730    0.3960740  
C     6.5975320   -3.1753490   -0.8202480  
C     6.9271650   -1.8851350   -1.2057620  
O     8.0726080   -1.6617910   -1.9086640  
C     6.0815190   -0.7934740   -0.8906670  
O     6.5465570    0.4104600   -1.3713930  
C     4.8766780   -0.9608920   -0.1855870  
H     2.5990320   -2.3347810    1.3859660  
H     5.2544560   -5.4304150    0.3191510  
H     7.2595560   -3.9961040   -1.0767260  
H     8.0956200   -0.7137030   -2.1277860  
H     5.8432680    1.0832090   -1.3056130  
H     3.0864380   -4.9799490    1.5152400  
C     4.0076820    0.1693010    0.0904540  
C     2.6402300    0.2463830    0.1588880  
C     2.2559250    1.6049200    0.4237480  
C     3.5151890    2.3658000    0.5169200  
N     4.5585690    1.4726490    0.2423420  
C     3.6156240    3.6852140    0.8039980  
C     2.3801560    4.4349650    0.9801080  
O     2.3500040    5.6303620    1.2243560  
C     1.0143080    3.6709730    0.8156280  
O    -0.0095810    4.3268160    0.9332540  
C     1.0200470    2.2126520    0.5586920  
H     1.9669010   -0.5706740   -0.0477730  
H     4.5602590    4.2151410    0.8769240  
H     5.4358510    1.5806530    0.7414780  
C    -0.4411450    0.2141970    1.0593510  
C    -0.2284040    1.4599620    0.5363610  
C    -1.5359810    1.8106250   -0.0671510  
C    -2.3908220    0.6051810    0.1624830  
N    -1.7381200   -0.2967230    0.8546400  
C    -3.7603140    0.4972300   -0.3118840  
C    -4.2643500    1.6329300   -0.8898300  
O    -5.5294460    1.7632270   -1.3053080  
C    -3.4381460    2.8605220   -1.1221570  
O    -3.9796490    3.8195050   -1.6724730  
C    -2.0292620    2.8993110   -0.6815690  
H    -5.5829220    2.6695840   -1.6836420  
H    -1.4841180    3.8226780   -0.8291540  
H     0.2616400   -0.3792900    1.6314260  
C    -4.6027090   -2.2384230    3.1188950  
C    -5.5173110   -3.0385550    2.4880530  
C    -5.6049480   -2.5810540    1.1292760  
C    -4.7217860   -1.4763550    1.0064920  
N    -4.1485400   -1.2660320    2.2448060  
C    -4.5596600   -0.7450370   -0.1942960  
C    -5.2588310   -1.2402440   -1.3041260  
O    -5.0887940   -0.6728190   -2.5314880  
C    -6.1376960   -2.3472970   -1.1916110  
O    -6.7582590   -2.6844620   -2.3837020  
C    -6.3370000   -3.0056400    0.0047240  
H    -6.0708370   -3.8539360    2.9337320  
H    -3.2504350   -0.8035370    2.3227950  
H    -5.6993480   -1.1254370   -3.1390930  
H    -7.3669980   -3.4215430   -2.2300150  
H    -7.0266940   -3.8454520    0.0664930  
H    -4.2379480   -2.2674290    4.1363870  
