60


C    -7.1224980    0.5729700   -2.9789680  
C    -5.9101430    0.4538570   -2.3526000  
C    -6.1664490    0.2584050   -0.9543540  
C    -7.5788910    0.2562090   -0.7979910  
N    -8.1335540    0.4628960   -2.0431510  
C    -8.2175970    0.0482060    0.4285170  
C    -7.4087260   -0.1956800    1.5263180  
O    -7.9628170   -0.4210110    2.7497610  
C    -5.9958370   -0.2254340    1.4049820  
O    -5.3402230   -0.4534630    2.5982380  
C    -5.3442900    0.0296470    0.1880880  
H    -4.9462980    0.5217580   -2.8326720  
H    -9.1210520    0.4805070   -2.2425620  
H    -9.2971610    0.0536130    0.5405870  
H    -7.2099460   -0.5818330    3.3499570  
H    -4.6808190   -1.1643000    2.4492470  
H    -7.3542620    0.7363120   -4.0219390  
C    -2.5604860    2.9785850   -1.5432770  
C    -1.3540510    2.4114520   -1.3048550  
C    -1.6479250    1.1715280   -0.5919250  
C    -3.1343280    1.1393970   -0.5209370  
N    -3.6548800    2.2057390   -1.0583110  
C    -3.8718340    0.0422790    0.1145850  
C    -3.0791630   -0.9199170    0.6694460  
O    -3.5838840   -2.0122960    1.3185680  
C    -1.6011970   -0.9200140    0.6266440  
O    -1.0170830   -1.8703780    1.1585140  
C    -0.8682790    0.2065980   -0.0304080  
H    -0.3797970    2.7760850   -1.5972960  
H    -2.7911440   -2.5297380    1.5903220  
H    -2.7737660    3.9102960   -2.0529910  
C     1.2829220    1.4210620    0.3290970  
C     0.5873760    0.2728700    0.0534540  
C     1.5970300   -0.7742440   -0.1482960  
C     2.9137620   -0.1178510    0.0312370  
N     2.6442410    1.2069100    0.3150720  
C     4.1316460   -0.7262480   -0.1105870  
C     4.1191870   -2.1746550   -0.4089640  
O     5.1301680   -2.8535610   -0.4121180  
C     2.7407980   -2.8648750   -0.6815110  
O     2.7269730   -4.0322240   -1.0327510  
C     1.5134640   -2.0828000   -0.4972550  
H     0.5704150   -2.5947950   -0.6415410  
H     0.8896990    2.3999690    0.5678570  
H     3.3421170    1.8769300    0.6062240  
C     6.0761550    1.9362810    2.9496660  
C     5.1716130    1.1274820    2.3391830  
C     5.7944800    0.7505990    1.0746090  
C     7.1191420    1.4453970    1.1084130  
N     7.2708800    2.1405470    2.2027410  
C     8.0765540    1.3111470    0.0434460  
C     7.7379030    0.5352950   -1.0120850  
O     8.5272200    0.3271610   -2.0752710  
C     6.3895320   -0.1313270   -1.1112780  
O     6.1161850   -0.6853660   -2.1687610  
C     5.4177570   -0.0316820    0.0279030  
H     4.2236370    0.7817110    2.7270560  
H     9.0319810    1.8199930    0.1046970  
H     8.0028860   -0.2284450   -2.6927850  
H     5.9886440    2.4111660    3.9201480  
