62


C     5.5493170    1.9284500    0.9547590  
C     6.8137040    1.4102290    0.9288450  
C     6.7283490    0.1093770    0.3264200  
C     5.3644950   -0.1063840   -0.0018440  
N     4.6493680    1.0202770    0.3976170  
C     4.9190160   -1.2708150   -0.6491750  
C     5.8665290   -2.2438870   -0.9408800  
O     5.4849570   -3.3915910   -1.5693680  
C     7.2304520   -2.0510640   -0.6007540  
O     8.0472450   -3.1079320   -0.9521340  
C     7.6674390   -0.8916570    0.0152020  
H     7.7051190    1.8958600    1.3016780  
H     3.8926260   -1.4124190   -0.9717950  
H     6.2855020   -3.9278820   -1.7035760  
H     8.9671320   -2.8932810   -0.7378770  
H     8.7215790   -0.7589680    0.2510390  
H     5.1807390    2.8656410    1.3453150  
C     2.1846570    4.2288280   -1.4012650  
C     3.2391640    3.4501170   -1.0027950  
C     2.6857310    2.3465270   -0.2712730  
C     1.2804950    2.5120490   -0.2525140  
N     1.0064500    3.6745480   -0.9370510  
C     0.3768010    1.5687230    0.3054240  
C     0.9747310    0.4267730    0.8755000  
O     0.2259610   -0.5081330    1.4976210  
C     2.3856900    0.2623330    0.9021550  
O     2.7953970   -0.8577570    1.5923780  
C     3.2451700    1.2012000    0.3402470  
H     4.2836770    3.6312490   -1.2106360  
H     0.0749960    3.9664290   -1.1929420  
H     0.8411880   -1.2017480    1.8013050  
H     3.6873360   -1.1259390    1.3095040  
H     2.1706300    5.1453770   -1.9735770  
C    -1.0573570    1.7801060    0.2677260  
C    -1.7372650    2.9766570    0.2922310  
C    -3.1319810    2.6439030    0.1668270  
C    -3.1400200    1.1472510    0.0679810  
N    -1.9422920    0.6515390    0.1222900  
C    -4.3727630    0.3980450   -0.1020900  
C    -5.5162500    1.1281150   -0.1875550  
O    -6.7341640    0.5949580   -0.3448430  
C    -5.5344610    2.6364820   -0.0801310  
O    -6.6384330    3.1819660   -0.1599520  
C    -4.2811270    3.3605960    0.1039440  
H    -1.3340760    3.9631870    0.4760700  
H    -7.3443120    1.3685840   -0.3594090  
H    -4.3322940    4.4433710    0.1631260  
C    -3.2719380   -2.5826590    2.9173590  
C    -3.3881690   -3.7478610    2.2406190  
C    -3.8452090   -3.3653410    0.9074640  
C    -3.9281630   -1.8696640    0.9673140  
N    -3.6115940   -1.4228080    2.1450570  
C    -4.3529240   -1.0781150   -0.1754590  
C    -4.7283840   -1.7671960   -1.2858280  
O    -5.1510460   -1.1853340   -2.4194110  
C    -4.6720970   -3.2685270   -1.3631810  
O    -5.0194480   -3.7961950   -2.4192430  
C    -4.2047040   -4.0428130   -0.1990410  
H    -3.2033570   -4.7526680    2.5943410  
H    -5.3373250   -1.9287040   -3.0349060  
H    -4.1862780   -5.1240950   -0.2968720  
H    -2.9637160   -2.4374130    3.9460490  
