60


C    -0.0849300   -3.8201120    0.8880620  
C    -0.9150670   -4.8893630    1.0993000  
C    -2.2572100   -4.4176910    0.9169150  
C    -2.1819790   -3.0387500    0.6016010  
N    -0.8457630   -2.7036880    0.5937970  
C    -3.3215270   -2.2361660    0.3088980  
C    -4.5658140   -2.9015140    0.3670410  
O    -5.7217990   -2.2288780    0.1794640  
C    -4.6419490   -4.2827500    0.6915450  
O    -5.9359620   -4.7671190    0.7137930  
C    -3.5208520   -5.0391810    0.9646710  
H    -0.6098300   -5.8944440    1.3555900  
H    -0.4824820   -1.7991570    0.3336240  
H    -6.4472220   -2.8718240    0.2796740  
H    -5.9365120   -5.6895510    1.0085310  
H    -3.6150170   -6.0948230    1.2115110  
H     0.9923510   -3.7487300    0.9375220  
C    -3.1895940   -0.8344540   -0.0290100  
C    -2.1843100    0.0303470    0.3533270  
C    -2.4580040    1.2756200   -0.2998630  
C    -3.7174370    1.0124580   -1.0689540  
N    -4.1375680   -0.2085040   -0.9128110  
C    -4.3399330    2.0353940   -1.8662850  
C    -3.7540370    3.2552010   -1.8827330  
O    -4.2201760    4.3039260   -2.5732640  
C    -2.4690090    3.5502880   -1.1382400  
O    -1.9846140    4.6693990   -1.3044640  
C    -1.8378420    2.4954880   -0.3194550  
H    -1.4094980   -0.1383260    1.0861480  
H    -5.2491540    1.8214470   -2.4166910  
H    -3.5694190    5.0250730   -2.4122020  
C     2.2658720    0.6755040   -0.3378450  
C     0.9365850    0.9254270   -0.6056470  
C     0.5762100    2.0493760    0.2075600  
C     1.8373860    2.3858880    0.9473670  
N     2.8105960    1.5776730    0.6323540  
C     1.9119480    3.4888600    1.8644130  
C     0.7915880    4.2289560    2.0345290  
O     0.7043170    5.2829200    2.8508470  
C    -0.5099580    3.9089750    1.3222970  
O    -1.4792530    4.6002930    1.6274540  
C    -0.5696080    2.7840580    0.3661810  
H     0.2911840    0.4138110   -1.3053650  
H     2.8374200    3.7086040    2.3845410  
H    -0.2305650    5.5858460    2.7816840  
C     2.7987180   -1.2056590   -1.9086990  
C     3.1326380   -0.3234070   -0.9060320  
C     4.5316280   -0.6113600   -0.5611530  
C     4.9540520   -1.7253200   -1.4421350  
N     3.8501940   -2.0305460   -2.2260660  
C     6.1817330   -2.2992250   -1.4461920  
C     7.1813400   -1.7892520   -0.5092440  
O     8.3132610   -2.2397010   -0.4340050  
C     6.7603010   -0.6083700    0.4380580  
O     7.5773340   -0.1687410    1.2295830  
C     5.3929630   -0.0740980    0.3387070  
H     6.4604080   -3.1150910   -2.1060990  
H     5.1031800    0.7442740    0.9863210  
H     1.8599570   -1.3026270   -2.4382660  
H     3.8347320   -2.7368410   -2.9466150  
