60


C    -5.7971420   -2.1917870    0.7298520  
C    -7.1390510   -1.9864100    0.6270500  
C    -7.3364680   -0.6493780    0.1326600  
C    -6.0551150   -0.0704960   -0.0357070  
N    -5.1073020   -1.0334440    0.3473730  
C    -5.8799750    1.2066190   -0.5769290  
C    -7.0193900    1.9241810   -0.9170310  
O    -6.8934920    3.1802370   -1.4397410  
C    -8.3078250    1.3685880   -0.7316100  
O    -9.3422560    2.2005770   -1.1145290  
C    -8.4761090    0.0933050   -0.2173450  
H    -7.9078310   -2.7073710    0.8697470  
H    -4.9088690    1.6589390   -0.7241670  
H    -7.7919220    3.5135950   -1.6055660  
H   -10.1888830    1.7597640   -0.9503320  
H    -9.4730900   -0.3275670   -0.1020900  
H    -5.2417350   -3.0614520    1.0397020  
C    -2.0975890   -3.8421520   -0.9617530  
C    -0.9600870   -3.1344530   -0.7586970  
C    -1.3950130   -1.8512890   -0.2157490  
C    -2.8719820   -1.9770800   -0.1479510  
N    -3.2767910   -3.1337450   -0.5934010  
C    -3.7156170   -0.8981620    0.3586890  
C    -3.0686450    0.2084380    0.8356920  
O    -3.7038560    1.2492990    1.4131150  
C    -1.5976660    0.3625260    0.7638830  
O    -1.1158410    1.4062040    1.2143140  
C    -0.7423870   -0.7211810    0.1761170  
H     0.0583480   -3.4562840   -0.9226190  
H    -2.9941120    1.8908820    1.6351110  
H    -2.1997230   -4.8504230   -1.3440290  
C     1.3544980   -0.8811380   -1.1573600  
C     0.6842030   -0.4964470   -0.0243010  
C     1.6924010    0.1105350    0.8559130  
C     2.9796410    0.0286840    0.1254020  
N     2.6963610   -0.5825690   -1.0809900  
C     4.1939160    0.4434820    0.6014510  
C     4.2012590    1.0784770    1.9369610  
O     5.1889840    1.6167680    2.4033760  
C     2.8677000    1.0975080    2.7560570  
O     2.8862840    1.5184440    3.8999260  
C     1.6395920    0.6135070    2.1149920  
H     0.7198080    0.6876470    2.6809130  
H     0.9488610   -1.3356380   -2.0511270  
H     3.3554870   -0.6647040   -1.8423770  
C     5.6996940    1.5105020   -3.5005830  
C     4.8840300    1.3969420   -2.4204280  
C     5.6841330    0.7078730   -1.4133900  
C     7.0003020    0.4901970   -2.0910760  
N     6.9968650    0.9548930   -3.3108060  
C     8.1049530   -0.1436480   -1.4226410  
C     7.9161760   -0.5537440   -0.1470970  
O     8.8532540   -1.1634960    0.5923240  
C     6.5869870   -0.4075920    0.5488520  
O     6.4670070   -0.9436300    1.6434690  
C     5.4562060    0.3030460   -0.1352830  
H     3.8827100    1.7868510   -2.3020540  
H     9.0487980   -0.2762610   -1.9394300  
H     8.4188870   -1.3848620    1.4450950  
H     5.4748860    1.9789890   -4.4518820  
