64


C    -1.4889750   -0.0149120    1.1340170  
C    -2.8499690    0.0602100    0.9571590  
C    -3.0928610    1.2930520    0.2397160  
C    -1.8389100    1.9123140    0.0151950  
N    -0.8596260    1.0999440    0.5809060  
C    -1.7086150    3.1243630   -0.6725580  
C    -2.8704060    3.7327610   -1.1211810  
O    -2.8015640    4.9209180   -1.7920310  
C    -4.1378160    3.1389190   -0.8838450  
O    -5.2029140    3.8688940   -1.3829000  
C    -4.2615310    1.9366820   -0.2130100  
H    -0.7507520    3.6016880   -0.8402390  
H    -3.7156040    5.1949050   -1.9806340  
H    -6.0320660    3.4797290   -1.0678520  
H    -5.2406510    1.4972590   -0.0372680  
H    -0.9016250   -0.7680180    1.6410570  
C     2.0366270   -1.5046000   -1.3173540  
C     3.1790890   -0.7849900   -1.0175530  
C     2.7385600    0.3779780   -0.2717400  
C     1.3309590    0.2854100   -0.1610180  
N     0.9320440   -0.8652960   -0.8087290  
C     0.5444280    1.2578380    0.4836250  
C     1.2084700    2.3583900    1.0225570  
O     0.5093360    3.3242000    1.6764370  
C     2.6166520    2.4806190    0.8824450  
O     3.1203590    3.6363920    1.4445940  
C     3.3824570    1.5180000    0.2512570  
H    -0.0213920   -1.1936070   -0.8558380  
H     1.1491940    4.0021220    1.9566210  
H     4.0845560    3.6517530    1.3531990  
H     4.4558730    1.6541480    0.1484520  
H     1.9432950   -2.4497380   -1.8329120  
C    -3.9093450   -1.4371490    2.7075160  
C    -3.8403630   -0.9052700    1.4391740  
C    -4.9179850   -1.5141450    0.6890390  
C    -5.5961540   -2.4004510    1.5648460  
N    -4.9545640   -2.3378280    2.7855890  
C    -6.6937060   -3.1714900    1.1606910  
C    -7.1114330   -3.0510520   -0.1555270  
O    -8.1778510   -3.7792440   -0.6018390  
C    -6.4365060   -2.1794470   -1.0504300  
O    -6.9646280   -2.1736400   -2.3301440  
C    -5.3533650   -1.4199860   -0.6484770  
H    -5.2347110   -2.8327910    3.6173570  
H    -7.2146570   -3.8507230    1.8280590  
H    -8.2938260   -3.5672910   -1.5439990  
H    -6.4214150   -1.6074330   -2.8979570  
H    -4.8476420   -0.7625640   -1.3521960  
H    -3.2988190   -1.2212780    3.5730110  
C     4.9476000   -1.6964880   -2.5951880  
C     4.5267590   -1.1551550   -1.4176580  
C     5.7561100   -1.1107370   -0.5900960  
C     6.8184370   -1.6653270   -1.4755530  
N     6.3363880   -2.0098660   -2.6369980  
C     8.1817150   -1.7912500   -1.0291280  
C     8.4730090   -1.4185690    0.2407070  
O     9.7018950   -1.4854500    0.7864450  
C     7.4187090   -0.8893710    1.1652930  
O     7.7566740   -0.5659670    2.3044560  
C     6.0254270   -0.7641690    0.6823560  
H     8.9363490   -2.1865920   -1.7002900  
H     9.5948100   -1.1546000    1.7047450  
H     5.2892790   -0.3883170    1.3860890  
H     4.3472500   -1.8880340   -3.4765810  
