60


C    -4.5261170   -0.6115810    0.0064630  
C    -5.0475390   -1.8653050    0.3132520  
C    -6.4607180   -1.7906610    0.2052510  
C    -6.7798780   -0.4562020   -0.1827070  
N    -5.5949900    0.2474180   -0.2581470  
C    -8.0904220   -0.0296320   -0.4101060  
C    -9.1025650   -0.9615670   -0.2298330  
O   -10.3942120   -0.6027440   -0.4362660  
C    -8.8056400   -2.2980110    0.1773390  
O    -9.9262370   -3.0857430    0.3165350  
C    -7.5115460   -2.7169130    0.3978120  
H    -4.4632800   -2.7173590    0.6326590  
H    -5.4950110    1.1269870   -0.7425680  
H    -8.3412380    0.9824520   -0.7095760  
H   -10.9501320   -1.3811910   -0.2544280  
H    -9.6715720   -3.9780660    0.5954530  
H    -7.3041920   -3.7395420    0.7044350  
C    -2.0282660   -0.9293520   -0.2127880  
C    -3.1618020   -0.1781870   -0.0376880  
C    -2.6514770    1.2079720    0.1373610  
C    -1.1854250    1.0788690    0.0110320  
N    -0.8488940   -0.1737570   -0.1828640  
C    -0.2960060    2.2306300    0.1274830  
C    -0.9159910    3.4325990    0.3925430  
O    -0.2621060    4.6094590    0.5280720  
C    -2.3789310    3.5733450    0.5675790  
O    -2.8255060    4.7028800    0.8080610  
C    -3.2350070    2.3843540    0.4420400  
H    -0.9735290    5.2664880    0.7194950  
H    -4.2972860    2.5244760    0.6154540  
H    -1.9649620   -1.9957640   -0.3867120  
C     1.1423090    2.0959340   -0.0172540  
C     1.8940190    0.9625720   -0.2552090  
C     3.2713090    1.3493280   -0.2904450  
C     3.3043180    2.8113940   -0.0576750  
N     1.9945040    3.1999330    0.0874880  
C     4.4336280    3.5653130    0.0126610  
C     5.7147930    2.9034160   -0.1617480  
O     6.7917480    3.4725760   -0.0721380  
C     5.7231190    1.3625290   -0.4873240  
O     6.7813500    0.8231060   -0.7589520  
C     4.4332540    0.6374310   -0.4825790  
H     1.4836010   -0.0278930   -0.3600860  
H     4.4253200    4.6337320    0.2021330  
H     1.6709530    4.1349850    0.2878320  
C     3.6254800   -1.2852960   -1.8331750  
C     3.8047400   -2.6244700   -1.9351950  
C     4.7603180   -3.0119530   -0.9217340  
C     5.1383680   -1.7656040   -0.2114530  
N     4.4149580   -0.7292130   -0.8171230  
C     5.9803310   -1.7270280    0.8487040  
C     6.5798780   -2.9808960    1.3087850  
O     7.3379820   -3.0375630    2.2642190  
C     6.2194330   -4.3055960    0.5456470  
O     6.7194400   -5.3578980    0.9124340  
C     5.2771270   -4.2187650   -0.5705430  
H     3.3307560   -3.2802030   -2.6513620  
H     6.2529670   -0.8160240    1.3671650  
H     5.0080560   -5.1401240   -1.0782370  
H     3.0002630   -0.6282230   -2.4218260  
