62


C    -4.2989640    0.9617030   -0.0622880  
C    -4.4120280   -0.3752420    0.3282490  
C    -5.7659590   -0.7661300    0.1396410  
C    -6.4589440    0.3701640   -0.3716720  
N    -5.5487720    1.3884300   -0.4877880  
C    -7.8268620    0.3461730   -0.6707340  
C    -8.5080660   -0.8400840   -0.4496550  
O    -9.8410950   -0.9207590   -0.7218050  
C    -7.8320510   -1.9859560    0.0614320  
O    -8.6537170   -3.0858870    0.2226520  
C    -6.4846460   -1.9633810    0.3550170  
H    -3.6400230   -0.9852910    0.7744710  
H    -5.7153660    2.3592210   -0.7249120  
H    -8.3587280    1.2082030   -1.0591610  
H   -10.1273670   -1.8231310   -0.4975370  
H    -8.1391380   -3.8225800    0.5839260  
H    -5.9893590   -2.8508670    0.7442110  
C     0.0391300    0.1881480    0.1970590  
C     0.4606120    1.5044380    0.2616910  
C    -0.6874450    2.3525460    0.1602640  
C    -1.8502540    1.4549630    0.0532040  
N    -1.3533880    0.1754680    0.0959590  
C    -3.1640310    1.8631930   -0.0560970  
C    -3.3542140    3.3246760   -0.1948560  
O    -4.4346760    3.8396810   -0.4618400  
C    -2.1279060    4.2976790   -0.0052180  
O    -2.3536450    5.5016900   -0.0160850  
C    -0.8145530    3.7178130    0.1554900  
H     1.4710360    1.8495250    0.4006820  
H     0.0334100    4.3866420    0.2622390  
H    -1.8765230   -0.6754210   -0.0496930  
C     4.4276370   -0.8759760   -0.0095740  
C     3.2345240   -0.1570630   -0.0167460  
C     2.1934870   -1.1045640    0.1784510  
C     2.9270260   -2.4102520    0.3173420  
N     4.2163810   -2.2711800    0.2041990  
C     2.2435880   -3.6513850    0.5429760  
C     0.8927500   -3.6182290    0.5601690  
O     0.1200470   -4.6987400    0.7220240  
C     0.1114560   -2.3349850    0.3802500  
O    -1.1202990   -2.4752580    0.3658720  
C     0.8075290   -1.0418690    0.2441390  
H     3.1224640    0.8778940   -0.2980360  
H     2.8050690   -4.5711210    0.6597920  
H    -0.8046610   -4.3674460    0.6647320  
C     6.0752350    3.0343590    1.1629820  
C     7.3524260    2.8374800    0.7070520  
C     7.3927620    1.5232260    0.1353850  
C     6.0962480    0.9693150    0.2588220  
N     5.3144450    1.9147030    0.8812000  
C     5.7634920   -0.3549030   -0.1479510  
C     6.8302730   -1.1089750   -0.6989390  
O     6.6233820   -2.3503880   -1.1792590  
C     8.1273280   -0.5475110   -0.8345440  
O     9.0356960   -1.4116120   -1.4125060  
C     8.4170890    0.7419830   -0.4357860  
H     8.1702040    3.5412380    0.7752400  
H     4.3784060    1.7414630    1.2161040  
H     7.4767560   -2.6724080   -1.5240930  
H     9.8938000   -0.9737120   -1.5115860  
H     9.4217270    1.1421850   -0.5563950  
H     5.6320630    3.8857450    1.6592950  
