64


C    -2.4715550   -1.6047690    0.2526360  
C    -3.5122240   -0.7310860    0.5673960  
C    -4.7359100   -1.4484840    0.4247960  
C    -4.3956000   -2.7701910    0.0172270  
N    -3.0280520   -2.8293900   -0.0852970  
C    -5.3601750   -3.7591270   -0.2135200  
C    -6.6892870   -3.4125870   -0.0286100  
O    -7.6708720   -4.3378930   -0.2378780  
C    -7.0476970   -2.0973880    0.3788110  
O    -8.4117220   -1.9103820    0.5167780  
C    -6.0972780   -1.1214590    0.6044550  
H    -3.4128040    0.2732360    0.9547770  
H    -2.4419500   -3.6389070   -0.2516380  
H    -5.1050130   -4.7674930   -0.5221080  
H    -8.5197040   -3.9038050   -0.0451220  
H    -8.5816130   -1.0116970    0.8351870  
H    -6.3969860   -0.1222440    0.9153110  
C    -0.0474410    2.0593320   -0.0239890  
C     1.1941130    1.4942080    0.1288050  
C     1.0358800    0.0701990    0.2697240  
C    -0.4112470   -0.1816190    0.2026340  
N    -1.0112820    1.0438690    0.0556180  
C    -1.0321240   -1.4168120    0.2495420  
C    -0.1156760   -2.5534700    0.2117050  
O    -0.4671330   -3.7173950    0.0291680  
C     1.4347930   -2.3158340    0.3920540  
O     2.1243820   -3.3173910    0.5092950  
C     1.9697840   -0.9434120    0.4135300  
H     2.1341310    2.0175340    0.0647990  
H    -1.9879370    1.1806610   -0.1615120  
C     3.8842830    0.3478400    1.4066430  
C     3.3902130   -0.6974160    0.6398830  
C     4.5570340   -1.4126140    0.1471180  
C     5.7005190   -0.7355200    0.6386670  
N     5.2552310    0.3276310    1.4054400  
C     7.0121140   -1.1250070    0.3427490  
C     7.1773200   -2.2321580   -0.4737330  
O     8.4302880   -2.6688940   -0.7904890  
C     6.0461260   -2.9227340   -0.9819880  
O     6.3661830   -4.0066470   -1.7789900  
C     4.7549340   -2.5291230   -0.6888820  
H     5.8460950    0.9488360    1.9357990  
H     7.8825470   -0.6029700    0.7269810  
H     8.3222240   -3.4668260   -1.3370040  
H     5.5630130   -4.5176920   -1.9596030  
H     3.9106070   -3.0960200   -1.0654360  
H     3.3428810    1.0736370    1.9957890  
C     1.7882530    5.9397680    1.2926090  
C     1.5276520    4.6100590    1.0886250  
C     0.3477940    4.5267160    0.2743590  
C    -0.0718410    5.8647280    0.0265250  
N     0.8307250    6.6991690    0.6492540  
C    -1.2203880    6.1903780   -0.6984640  
C    -1.9698370    5.1339770   -1.1989640  
O    -3.0931540    5.3852050   -1.9245100  
C    -1.5714080    3.7961950   -0.9771760  
O    -2.4344760    2.8406050   -1.5335750  
C    -0.4282620    3.4529090   -0.2432870  
H     2.0989650    3.7891630    1.4932480  
H     0.7805900    7.7058620    0.6570220  
H    -1.5360980    7.2124770   -0.8799080  
H    -3.4657720    4.5150820   -2.1585560  
H    -1.9479890    2.3161720   -2.1920450  
H     2.5832970    6.4153680    1.8492430  
