62


C    -1.7291270   -0.3238730    0.5546980  
C    -3.0694360   -0.5560300    0.4299290  
C    -3.2421680   -1.9247160   -0.0070480  
C    -1.9526740   -2.4868930   -0.1284780  
N    -1.0231400   -1.4899310    0.2245320  
C    -1.7528110   -3.7858480   -0.6107130  
C    -2.8789230   -4.5350490   -0.9281490  
O    -2.7273730   -5.8048350   -1.3887380  
C    -4.1797200   -3.9854660   -0.7928230  
O    -5.1889080   -4.8468020   -1.1570550  
C    -4.3703300   -2.6892290   -0.3477610  
H    -0.7744130   -4.2158130   -0.7845280  
H    -3.6132750   -6.1535440   -1.5905490  
H    -6.0438330   -4.3924060   -1.1166350  
H    -5.3686390   -2.2645650   -0.2820150  
H    -1.2030070    0.5492180    0.9065520  
C     0.3494560   -1.5776810    0.2691300  
C     1.2804570   -0.5771450    0.1402680  
C     2.5734240   -1.1618430    0.3413650  
C     2.3395440   -2.6032390    0.5924830  
N     0.9653370   -2.8106870    0.4867640  
C     3.3036090   -3.5145340    0.8551570  
C     4.6941150   -3.0624560    0.8639740  
O     5.6321620   -3.8161140    1.0638850  
C     4.9805180   -1.5444390    0.5980340  
O     6.1286960   -1.1440560    0.7030210  
C     3.8482900   -0.6466630    0.2955990  
H     1.0745050    0.4493430   -0.1200200  
H     3.1027620   -4.5675950    1.0266890  
H     0.4946450   -3.5724580    0.9556050  
C     2.6611410    3.3338410    2.0168820  
C     2.7393190    1.9962760    1.8120290  
C     3.6425150    1.8369210    0.6766280  
C     4.0271430    3.2385090    0.3278020  
N     3.4504810    4.1065750    1.1121720  
C     4.9516390    3.5319360   -0.7364870  
C     5.4669580    2.4887130   -1.4254590  
O     6.3299530    2.6110420   -2.4468290  
C     5.0708320    1.0656350   -1.1301710  
O     5.4870920    0.2008110   -1.8929540  
C     4.1475530    0.7648200    0.0123160  
H     2.2580200    1.2056750    2.3692220  
H     5.2134400    4.5600330   -0.9604800  
H     6.4869780    1.6951380   -2.7660640  
H     2.0903560    3.8569340    2.7754440  
C    -5.2435490    0.0835990    1.4361000  
C    -6.0295760    1.1984940    1.5108320  
C    -5.3681360    2.2379070    0.7719480  
C    -4.1643590    1.6884250    0.2643720  
N    -4.1014870    0.3572540    0.6801600  
C    -3.2793050    2.4229150   -0.5340570  
C    -3.6084600    3.7411840   -0.8103670  
O    -2.7765160    4.4984400   -1.5811210  
C    -4.8037870    4.3125100   -0.2988730  
O    -4.9877190    5.6335260   -0.6568990  
C    -5.6811330    3.5796110    0.4785890  
H    -6.9692480    1.2759370    2.0407180  
H    -2.3671540    2.0036640   -0.9426100  
H    -3.1710560    5.3848830   -1.6499770  
H    -5.8053470    5.9673810   -0.2592500  
H    -6.5970260    4.0332040    0.8523190  
H    -5.3632480   -0.8907310    1.8872110  
