64


C     0.4389110    0.4183000   -1.5327910  
C     0.2421090    1.4379390   -0.6236010  
C     1.5417710    1.7050230   -0.0369390  
C     2.4693010    0.8229480   -0.6453750  
N     1.7675120    0.0586960   -1.5547500  
C     3.8396650    0.7569650   -0.3091890  
C     4.2484030    1.6292700    0.7017670  
O     5.5575260    1.6570220    1.0955620  
C     3.3313690    2.5086150    1.3362120  
O     3.9102260    3.2933750    2.3180670  
C     1.9965820    2.5655010    0.9858030  
H     2.1731060   -0.7021220   -2.0787300  
H     5.6360370    2.3627160    1.7612770  
H     3.2598240    3.9331790    2.6435450  
H     1.3159960    3.2413980    1.4971620  
H    -0.2758530   -0.0563950   -2.1898880  
C    -3.8718560   -0.1292220    0.3589070  
C    -2.5293810   -0.0091930    0.0647610  
C    -2.2292350    1.3856770   -0.0567910  
C    -3.4401380    2.0883420    0.1786900  
N    -4.4284380    1.1477750    0.3966770  
C    -3.5232400    3.4850400    0.1750700  
C    -2.3535190    4.1825480   -0.0818500  
O    -2.3673860    5.5472760   -0.1104890  
C    -1.1353730    3.4998420   -0.3345760  
O    -0.0752560    4.3454840   -0.6034670  
C    -1.0379670    2.1095750   -0.3321580  
H    -1.8446780   -0.8325540   -0.0813180  
H    -5.3440120    1.3542530    0.7661380  
H    -4.4469640    4.0252570    0.3544560  
H    -1.4703010    5.8326320   -0.3573030  
H     0.6917450    3.8108880   -0.8705250  
C     4.8296810   -0.3394180   -2.3693640  
C     4.7523740   -0.1712580   -1.0005090  
C     5.6942730   -1.1075460   -0.4268800  
C     6.3018890   -1.8059640   -1.5002040  
N     5.7539190   -1.3185540   -2.6708010  
C     7.2620680   -2.8082250   -1.3086490  
C     7.6152320   -3.1105910   -0.0037010  
O     8.5496680   -4.0741640    0.2449520  
C     7.0129370   -2.4241480    1.0848230  
O     7.4677740   -2.8388020    2.3241220  
C     6.0644330   -1.4393510    0.8912730  
H     6.0344430   -1.5863940   -3.6009610  
H     7.7296920   -3.3418870   -2.1298640  
H     8.6644210   -4.1177360    1.2099970  
H     7.0743900   -2.2810490    3.0113200  
H     5.6310230   -0.9134580    1.7369580  
H     4.3263980    0.2043750   -3.1570770  
C    -4.2456880   -2.4589470    1.2308010  
C    -4.6704660   -1.3152730    0.6160900  
C    -6.0687040   -1.5435880    0.2501630  
C    -6.4066070   -2.9139240    0.7141550  
N    -5.2514530   -3.4198870    1.2718040  
C    -7.6271100   -3.4934480    0.5787350  
C    -8.6871420   -2.7381960   -0.0799570  
O    -9.8179650   -3.1722630   -0.2399320  
C    -8.3434880   -1.2994840   -0.6126650  
O    -9.2095260   -0.6548790   -1.1820410  
C    -6.9867650   -0.7816110   -0.3998610  
H    -7.8525410   -4.4963480    0.9284310  
H    -6.7623710    0.2053140   -0.7916250  
H    -3.2754090   -2.6704970    1.6594230  
H    -5.1821520   -4.3093510    1.7407420  
