62


C    -2.6459670   -3.2910240    1.0623820  
C    -3.7882470   -2.5588320    0.8727940  
C    -3.3964280   -1.3198810    0.2630870  
C    -1.9886760   -1.3645230    0.0948690  
N    -1.5613670   -2.5824410    0.5793860  
C    -1.2251180   -0.3080840   -0.4592840  
C    -1.9600410    0.8190940   -0.8433990  
O    -1.3266770    1.8974670   -1.3946080  
C    -3.3681420    0.8739030   -0.6977500  
O    -3.9200540    2.0593720   -1.1353610  
C    -4.1165650   -0.1733080   -0.1595280  
H    -4.7920120   -2.8557530    1.1390930  
H    -0.5929650   -2.8447450    0.6821260  
H    -2.0139980    2.5630680   -1.5788380  
H    -4.8610490    2.0754470   -0.8869560  
H    -2.5091000   -4.2718280    1.4953830  
C     0.9286850   -1.5214290   -1.0356450  
C     0.2254380   -0.4249290   -0.6308080  
C     1.2772250    0.5725690   -0.3275530  
C     2.5572490   -0.1287120   -0.6193990  
N     2.3371000   -1.3457320   -1.0347570  
C     3.8647680    0.5045350   -0.4411450  
C     3.8309610    1.8001660   -0.0004060  
O     4.9286760    2.5678310    0.1592320  
C     2.5648790    2.5111110    0.3271710  
O     2.6435160    3.6781350    0.7198160  
C     1.2666770    1.8282470    0.1496210  
H     4.5868400    3.4320870    0.4822690  
H     0.3688550    2.3916750    0.3726630  
H     0.5287960   -2.4684380   -1.3790930  
C     5.1845990   -1.2119120   -1.7069030  
C     5.0856750   -0.2436320   -0.7397910  
C     6.3952820   -0.1916730   -0.0821600  
C     7.2486620   -1.1885350   -0.7791480  
N     6.4518950   -1.7547520   -1.7555880  
C     8.5407110   -1.4654510   -0.4723630  
C     9.1562120   -0.7533600    0.6418190  
O    10.3124820   -0.9316770    0.9939120  
C     8.2678220    0.2782930    1.4235590  
O     8.7513780    0.8724930    2.3746530  
C     6.8841310    0.4937220    0.9845600  
H     9.1338930   -2.2026020   -1.0050930  
H     6.3015170    1.2259230    1.5274290  
H     4.4107540   -1.5677250   -2.3696000  
H     6.7417930   -2.4921890   -2.3790510  
C    -6.8889250   -0.0995670    3.4042480  
C    -5.7829540   -0.1617500    2.5970520  
C    -6.2448340   -0.0639010    1.2411070  
C    -7.6589960    0.0616160    1.2919500  
N    -8.0220410    0.0360520    2.6226540  
C    -8.4548030    0.1941890    0.1472080  
C    -7.8098470    0.1967830   -1.0787670  
O    -8.5334560    0.3067120   -2.2306350  
C    -6.3971530    0.0810210   -1.1548320  
O    -5.9048890    0.0900830   -2.4449900  
C    -5.5930910   -0.0469500   -0.0201900  
H    -4.7594840   -0.2710980    2.9249340  
H    -8.9655170    0.1067050    2.9697890  
H    -9.5356660    0.2840060    0.1859960  
H    -7.9047500    0.2371230   -2.9701750  
H    -4.9713750   -0.1822460   -2.4244380  
H    -6.9685770   -0.1414040    4.4813850  
