62


C    -5.3497620    0.1346700    0.0728730  
C    -5.4153910   -1.2565160   -0.0067090  
C    -6.7835490   -1.6253650    0.0428200  
C    -7.5402400   -0.4204550    0.1541330  
N    -6.6522840    0.6216930    0.1697710  
C    -8.9389100   -0.4138890    0.2277050  
C    -9.5846030   -1.6392320    0.1886960  
O   -10.9432730   -1.6941840    0.2566910  
C    -8.8452520   -2.8547390    0.0777200  
O    -9.6432170   -3.9829170    0.0524370  
C    -7.4696960   -2.8617830    0.0051850  
H    -4.5562890   -1.9024710   -0.0899380  
H    -6.8692400    1.6052480    0.2409510  
H    -9.5210060    0.4977120    0.3125570  
H   -11.1970360   -2.6327330    0.2150570  
H    -9.0853420   -4.7713810   -0.0200970  
H    -6.9239540   -3.7993450   -0.0790490  
C    -1.0760600   -0.7634400   -0.2079500  
C    -0.5025750    0.4859450   -0.1585790  
C    -1.6595120    1.3990660   -0.0420410  
C    -2.8404850    0.5065340   -0.0361940  
N    -2.4726320   -0.7508290   -0.1340420  
C    -4.2074960    1.0208600    0.0669160  
C    -4.3026800    2.3931820    0.1557820  
O    -5.4893110    3.0542540    0.2577290  
C    -3.1451650    3.2975700    0.1514080  
O    -3.3540160    4.5176180    0.2368970  
C    -1.7818850    2.7358860    0.0470260  
H    -5.2297800    4.0040260    0.3028060  
H    -0.9334980    3.4102910    0.0451980  
H    -0.5695220   -1.7172450   -0.2962030  
C     0.8813530    0.8467060   -0.2063720  
C     1.9921720    0.0316590   -0.2929600  
C     3.1314320    0.9028250   -0.2944910  
C     2.5431870    2.2642540   -0.1864270  
N     1.2403950    2.2336790   -0.1451520  
C     3.3590970    3.4509310   -0.1217140  
C     4.6980160    3.2804320   -0.1356040  
O     5.5878610    4.2825640   -0.0534540  
C     5.3364130    1.9134980   -0.2398960  
O     6.5689800    1.8984890   -0.2349470  
C     4.4940990    0.6953960   -0.3634990  
H     2.0070440   -1.0483330   -0.3067890  
H     2.8984450    4.4296050   -0.0471080  
H     6.4675210    3.8453430   -0.1012660  
C     4.5208760   -1.5416400   -1.4683100  
C     5.1035550   -0.5983120   -0.6276130  
C     6.3325200   -1.2058690   -0.1391250  
C     6.4081320   -2.5003380   -0.7096500  
N     5.2940940   -2.6647710   -1.5186520  
C     7.4408650   -3.4040670   -0.4401300  
C     8.4314950   -2.9935780    0.4379520  
O     9.4673020   -3.8263480    0.7355500  
C     8.3726320   -1.7051730    1.0308050  
O     9.4259480   -1.4380900    1.8824930  
C     7.3473910   -0.8193250    0.7585200  
H     5.1138340   -3.4673440   -2.1025840  
H     7.4887170   -4.3933530   -0.8833550  
H    10.0494660   -3.3523730    1.3546970  
H     9.3568990   -0.5278860    2.2070400  
H     7.3455160    0.1680170    1.2067030  
H     3.6291940   -1.4514140   -2.0709380  
