60


C     2.7617680    1.9753920   -0.1536270  
C     3.4575530    0.7504800   -0.0658400  
C     4.8692340    1.0957220   -0.0037780  
C     4.9529160    2.5018520   -0.0587940  
N     3.6443550    2.9904480   -0.1489350  
C     6.1577670    3.2032230   -0.0245920  
C     7.3208670    2.4471840    0.0696720  
O     8.5252040    3.0703230    0.1075380  
C     7.2573650    1.0293120    0.1265870  
O     8.4886330    0.4261190    0.2183970  
C     6.0519660    0.3465780    0.0909580  
H     3.3939840    3.9694130   -0.1970520  
H     6.2200590    4.2852680   -0.0672320  
H     9.2125370    2.3841490    0.1743320  
H     8.3830880   -0.5366970    0.2554150  
H     6.0031870   -0.7367290    0.1353950  
H     1.6987810    2.1604630   -0.2111850  
C     2.8540150   -0.5222280   -0.0413360  
C     1.4600960   -0.8229110   -0.1162570  
C     1.3509530   -2.2002120   -0.0410950  
C     2.7842470   -2.6696400    0.0662340  
N     3.6428830   -1.6706060    0.0694920  
C     3.1248300   -4.0460720    0.1400720  
C     2.1008400   -4.9405340    0.0875900  
O     2.2720520   -6.2542040    0.1272850  
C     0.6391430   -4.5309390   -0.0228500  
O    -0.1484190   -5.4985690   -0.0689240  
C     0.2775340   -3.1324070   -0.0538250  
H     0.6768130   -0.0937230   -0.2399890  
H     4.1593200   -4.3598660    0.2197960  
H     1.3568490   -6.6280950    0.0670160  
C    -1.1048020   -2.7590370   -0.0839850  
C    -1.6947410   -1.4887160    0.0168200  
C    -3.0927140   -1.6285090   -0.0358820  
C    -3.3495950   -3.0814060   -0.1502910  
N    -2.1183630   -3.6961730   -0.2061880  
C    -4.5808580   -3.6488210   -0.1811920  
C    -5.7428710   -2.7787770   -0.0525590  
O    -6.8901660   -3.1947760   -0.0724980  
C    -5.5088410   -1.2390790    0.1338650  
O    -6.5046700   -0.5528900    0.3607760  
C    -4.1468790   -0.7024900    0.0256100  
H    -1.1649180   -0.5747410    0.2045130  
H    -4.7451030   -4.7171270   -0.2801010  
H    -1.9256890   -4.6902690   -0.2233590  
C    -3.9290330    0.7219080   -0.0043070  
C    -2.8121140    1.4493320   -0.4044340  
C    -3.1105910    2.8367000   -0.2772800  
C    -4.5054400    2.9130500    0.2282880  
N    -4.9320040    1.6136000    0.3735890  
C    -5.1594810    4.0770210    0.4751440  
C    -4.4573370    5.3367250    0.2413730  
O    -4.9691010    6.4291170    0.4400300  
C    -2.9761720    5.2789950   -0.2857340  
O    -2.3709790    6.3293140   -0.4696510  
C    -2.3869670    3.9718600   -0.5268320  
H    -1.9082040    1.0404320   -0.8256440  
H    -6.1812410    4.1194700    0.8392950  
H    -1.3684860    3.9411270   -0.9043600  
H    -5.8654720    1.2792290    0.5874870  
