64


C     2.6482090   -1.6079910   -1.6516820  
C     2.7813490   -2.9520580   -1.4299780  
C     3.8053240   -3.1183730   -0.4379150  
C     4.2550140   -1.8177560   -0.0866060  
N     3.5348510   -0.9000310   -0.8459110  
C     5.2471060   -1.5969260    0.8825230  
C     5.8052070   -2.7115770    1.4927260  
O     6.7728860   -2.5519280    2.4410140  
C     5.3756860   -4.0188500    1.1441200  
O     6.0270480   -5.0231040    1.8354890  
C     4.3872730   -4.2310490    0.1999210  
H     2.2231700   -3.7350910   -1.9252430  
H     5.5586530   -0.6041020    1.1894280  
H     7.0244330   -3.4395580    2.7491200  
H     5.6865890   -5.8843470    1.5521390  
H     4.0684030   -5.2431630   -0.0427600  
H     2.0091250   -1.0669520   -2.3344720  
C     0.6922640    2.4545010   -0.0775420  
C     1.2783970    1.1931070   -0.2094890  
C     2.6323240    1.3856870   -0.5906190  
C     2.8489670    2.7915980   -0.6777590  
N     1.6633830    3.4037590   -0.3723420  
C     4.0924870    3.3476690   -1.0020000  
C     5.1360190    2.4704760   -1.2500830  
O     6.3694630    2.9504210   -1.5692880  
C     4.9453050    1.0598390   -1.1972910  
O     6.0665010    0.3308890   -1.5228680  
C     3.7113470    0.5119640   -0.8703830  
H     0.8144370    0.2455960    0.0100340  
H     1.4786710    4.3926000   -0.2495440  
H     4.2628150    4.4175710   -1.0531540  
H     6.9553320    2.1802200   -1.6781620  
H     5.9637300   -0.5899920   -1.2275740  
C    -3.1732690    0.2048830    0.2913380  
C    -1.8788490    0.5899530    0.0231210  
C    -1.7230180    1.9679280    0.3826540  
C    -3.0411440    2.3999640    0.8865360  
N    -3.8859500    1.3091060    0.7742610  
C    -3.3421950    3.6350630    1.3706650  
C    -2.3053480    4.6421920    1.3319160  
O    -2.4459580    5.7867220    1.7390060  
C    -0.9164400    4.2500350    0.7020210  
O    -0.1088320    5.1634930    0.5575040  
C    -0.6458150    2.8450400    0.3203110  
H    -1.1513390   -0.0293440   -0.4754820  
H    -4.3174870    3.9028600    1.7646220  
H    -4.7370080    1.2180530    1.3095810  
C    -3.1710270   -2.2993500    0.1856520  
C    -3.8169250   -1.0747650    0.1354830  
C    -5.2232170   -1.3606840   -0.0763250  
C    -5.3511840   -2.7697210   -0.1377480  
N    -4.0836460   -3.3060300    0.0220080  
C    -6.5739030   -3.4159970   -0.3486000  
C    -7.6974070   -2.6200120   -0.5085640  
O    -8.9132820   -3.1963490   -0.7155200  
C    -7.5886470   -1.2037310   -0.4717980  
O    -8.7877630   -0.5515650   -0.6660280  
C    -6.3760880   -0.5710610   -0.2631020  
H    -3.8695150   -4.2912350    0.0530640  
H    -6.6695070   -4.4956580   -0.3984980  
H    -9.5610840   -2.4791630   -0.8283890  
H    -8.6403120    0.4049120   -0.7105840  
H    -6.3199390    0.5147100   -0.2761740  
H    -2.1269570   -2.5141540    0.3624580  
