60


C     0.8588540    3.3013400   -0.5099430  
C     0.4233650    4.5717870   -0.8929170  
C    -0.7443070    4.8615260   -0.1495760  
C    -0.9999980    3.7298660    0.6923170  
N    -0.0202620    2.8105470    0.4477150  
C    -2.0898420    3.6784370    1.5716180  
C    -2.9322080    4.7760660    1.6051530  
O    -4.0040080    4.7829660    2.4376350  
C    -2.6937480    5.9151420    0.7710750  
O    -3.6306940    6.9120750    0.9342300  
C    -1.6253290    5.9691430   -0.0934690  
H     0.9046900    5.2045940   -1.6258520  
H     0.1175920    1.9071190    0.8796220  
H    -2.2885440    2.8274660    2.2140660  
H    -4.4612990    5.6346620    2.3226320  
H    -3.4117510    7.6659590    0.3663470  
H    -1.4607920    6.8438460   -0.7187080  
C     1.9667570    2.5047900   -0.9150340  
C     2.9745820    2.7478800   -1.8218700  
C     3.8041050    1.5864330   -1.8015940  
C     3.1540570    0.6739000   -0.7924750  
N     2.0850960    1.2170530   -0.2856520  
C     3.7064180   -0.6268970   -0.4592380  
C     4.8417540   -0.9729740   -1.1407830  
O     5.4494140   -2.1473330   -1.0117050  
C     5.5124390   -0.0754520   -2.1677120  
O     6.5267450   -0.5369370   -2.7025500  
C     4.9417140    1.2213610   -2.4582190  
H     3.1224340    3.6343270   -2.4224130  
H     6.2332510   -2.0907170   -1.6117570  
H     5.4451570    1.8461490   -3.1887340  
C    -0.3811610   -2.3199410    0.2660760  
C     0.7101480   -1.6509630   -0.2422870  
C     1.8197670   -1.8905610    0.6350420  
C     1.3077630   -2.7713650    1.7175940  
N    -0.0215340   -2.9812670    1.4392340  
C     2.0559920   -3.2635440    2.7398330  
C     3.4610870   -2.9034450    2.7966850  
O     4.2320730   -3.3168930    3.6503890  
C     4.0205930   -1.9209770    1.7046380  
O     5.1580760   -1.5048770    1.8302840  
C     3.1348130   -1.4916510    0.5854070  
H     0.7225470   -1.0371090   -1.1287330  
H     1.6590250   -3.9270840    3.5014730  
H    -0.6744620   -3.5537540    1.9547390  
C    -1.7313030   -2.4197030   -0.2125830  
C    -2.3161660   -1.8661240   -1.3221270  
C    -3.6864590   -2.3088070   -1.2940850  
C    -3.7810040   -3.1567190   -0.0573780  
N    -2.6403390   -3.2163450    0.5670160  
C    -5.0117390   -3.7934430    0.3289380  
C    -6.0914220   -3.6012820   -0.4657960  
O    -7.2987630   -4.1274380   -0.2354320  
C    -6.0289410   -2.7513620   -1.7195560  
O    -7.0686880   -2.6420110   -2.3697760  
C    -4.7651260   -2.1132830   -2.0928800  
H    -1.8575250   -1.2316250   -2.0673710  
H    -5.0556030   -4.4011190    1.2257290  
H    -7.8652240   -3.8120630   -0.9763840  
H    -4.7561680   -1.5120730   -2.9965690  
