64


C     4.0887830    0.5830790   -0.3506740  
C     4.7048730    1.8094250   -0.1999920  
C     3.6838380    2.7849030    0.0405760  
C     2.4429790    2.0956380    0.0402630  
N     2.7178510    0.7663120   -0.1877190  
C     1.1988400    2.7405780    0.2164740  
C     1.2402340    4.1258810    0.4217940  
O     0.0883650    4.8043490    0.6775190  
C     2.4726210    4.8222180    0.4404410  
O     2.3371870    6.1785430    0.6740700  
C     3.6823980    4.1768990    0.2540740  
H     5.7722210    1.9820130   -0.2194660  
H     2.0267940    0.0626230   -0.3978410  
H     0.3177880    5.7476270    0.7447360  
H     3.2077280    6.6013300    0.6398000  
H     4.6133100    4.7403040    0.2740460  
C    -0.4901480   -0.6768720    2.5262990  
C     0.3598780    0.2704400    2.0607620  
C    -0.3518710    0.9127700    0.9606350  
C    -1.6501270    0.1803630    0.8808290  
N    -1.7206250   -0.7375130    1.8138610  
C    -2.6796500    0.5012030   -0.0969330  
C    -2.4364520    1.6315110   -0.8293460  
O    -3.3088930    2.1535190   -1.7002750  
C    -1.1398450    2.3901010   -0.7803900  
O    -0.9944860    3.2979260   -1.5930000  
C    -0.0703250    1.9985260    0.1933800  
H     1.3341900    0.5437120    2.4394330  
H    -2.8325990    2.9018470   -2.1243310  
H    -0.3471870   -1.3457800    3.3678660  
C    -5.6965100   -1.1661830    2.7481720  
C    -6.5741810   -1.6494490    1.8147070  
C    -5.9894690   -1.4030290    0.5261130  
C    -4.7535990   -0.7415760    0.7525030  
N    -4.6147850   -0.5782840    2.1163330  
C    -3.8999660   -0.3160750   -0.2936620  
C    -4.3005390   -0.6816620   -1.5871970  
O    -3.4949730   -0.4215030   -2.6559370  
C    -5.5302660   -1.3471640   -1.8210620  
O    -5.7729770   -1.6073860   -3.1606350  
C    -6.3856190   -1.6893990   -0.7934990  
H    -7.5268070   -2.1213390    2.0140520  
H    -3.6893510   -0.4903410    2.5240990  
H    -3.9768790   -0.7130130   -3.4494000  
H    -6.6216800   -2.0650070   -3.2483330  
H    -7.3296720   -2.1894950   -1.0020930  
H    -5.7537970   -1.1789490    3.8279180  
C     5.7904910   -1.0147230   -1.3103990  
C     4.6259240   -0.7379070   -0.6245540  
C     4.0560330   -2.0184060   -0.2553470  
C     4.9261090   -3.0210310   -0.7531780  
N     5.9765940   -2.3778010   -1.3797490  
C     4.6841680   -4.3898700   -0.5824200  
C     3.5379280   -4.7572040    0.1052070  
O     3.2459110   -6.0768640    0.2895770  
C     2.6629070   -3.7682920    0.6275930  
O     1.5764720   -4.2827280    1.3079320  
C     2.9112660   -2.4179900    0.4654130  
H     6.7370110   -2.8350730   -1.8576990  
H     5.3478250   -5.1572490   -0.9678190  
H     2.3992300   -6.1175590    0.7675470  
H     0.9419160   -3.5729150    1.4910220  
H     2.2397310   -1.6937180    0.9194840  
H     6.4899240   -0.3350890   -1.7756150  
