62


C     2.6499390   -1.5027020    1.3223090  
C     1.6365040   -2.0640770    0.5600110  
C     2.1451610   -3.3423240    0.1003240  
C     3.4608810   -3.4777140    0.6096060  
N     3.7362870   -2.3456980    1.3528580  
C     4.2737240   -4.5876440    0.3449970  
C     3.7420970   -5.5890600   -0.4503340  
O     4.4791600   -6.7003670   -0.7349160  
C     2.4249170   -5.4722710   -0.9708810  
O     2.0337910   -6.5514750   -1.7414760  
C     1.6314510   -4.3727240   -0.7125850  
H     4.5829790   -2.1828640    1.8754040  
H     5.2794350   -4.6888180    0.7398690  
H     3.9155270   -7.2860510   -1.2700460  
H     1.0859850   -6.4824600   -1.9304840  
H     0.6176910   -4.3231540   -1.0955420  
H     2.6412660   -0.5970280    1.9127100  
C     0.7124580    2.0952300   -0.3971840  
C    -0.6653920    1.9924150   -0.4929490  
C    -1.0444260    0.6369450   -0.2535110  
C     0.2052050   -0.0901580    0.0247380  
N     1.2254970    0.8451450   -0.0420210  
C     0.3426080   -1.4305010    0.2846610  
C    -0.9153630   -2.1831700    0.3082140  
O    -0.9850890   -3.3862670    0.5100110  
C    -2.2839510   -1.4232040    0.0908740  
O    -3.2982810   -2.0978520    0.1855870  
C    -2.2887080    0.0146440   -0.2426820  
H    -1.3384940    2.8237480   -0.6373350  
H     2.1823870    0.5560590   -0.1965910  
C     1.2551060    4.4265550   -1.2012770  
C     1.5541450    3.2372280   -0.5711260  
C     2.9503740    3.4177340   -0.1157950  
C     3.3050790    4.7818260   -0.5774770  
N     2.2972090    5.3540060   -1.2045010  
C     4.5933580    5.3526830   -0.3243770  
C     5.4948370    4.6118610    0.3729570  
O     6.7355100    5.0287830    0.6767790  
C     5.1633800    3.2434570    0.8750300  
O     6.0266010    2.6266880    1.5050870  
C     3.8263630    2.6806410    0.5998840  
H     4.8234110    6.3510580   -0.6796500  
H     7.1414450    4.2904140    1.1818310  
H     3.6279500    1.6951410    1.0080590  
H     0.3243930    4.6820840   -1.6942320  
C    -3.5892540    1.6667550   -1.6146650  
C    -3.5187650    0.6913070   -0.6225620  
C    -4.8756800    0.5474670   -0.1159050  
C    -5.6855030    1.4687130   -0.8242610  
N    -4.8706680    2.1255940   -1.7332690  
C    -7.0514700    1.6428240   -0.5801100  
C    -7.6234700    0.8614100    0.4122540  
O    -8.9518700    0.9761030    0.6907480  
C    -6.8311700   -0.0641720    1.1402020  
O    -7.5375300   -0.7719410    2.0929980  
C    -5.4812290   -0.2258360    0.8942540  
H    -5.1870760    2.7924700   -2.4206310  
H    -7.6633040    2.3507530   -1.1296770  
H    -9.1537500    0.3312480    1.3912810  
H    -6.9722620   -1.4677740    2.4608880  
H    -4.9082130   -0.9653210    1.4417020  
H    -2.8152180    2.0129590   -2.2833700  
