64


C    -1.3681580   -0.3882750   -2.0644640  
C    -2.7086210   -0.3507920   -1.8032600  
C    -2.8666790    0.1401200   -0.4621820  
C    -1.5682070    0.3926930    0.0458610  
N    -0.6539420    0.0606910   -0.9521000  
C    -1.3374830    0.9181170    1.3231180  
C    -2.4476630    1.1743310    2.1120500  
O    -2.2880700    1.6716740    3.3718670  
C    -3.7577360    0.9240440    1.6257900  
O    -4.7553960    1.2168590    2.5304200  
C    -3.9982010    0.4156300    0.3480510  
H    -3.4985930   -0.6503940   -2.4766320  
H    -0.3440430    1.1178170    1.7086650  
H    -3.1740200    1.7294770    3.7706570  
H    -5.5986590    0.8778350    2.1818340  
H    -0.8297110   -0.7150500   -2.9426830  
C     1.5490370    0.9506050   -1.6294180  
C     0.7449900    0.1592410   -0.8664000  
C     1.6120790   -0.6317030   -0.0029390  
C     2.9946700   -0.2139550   -0.3278460  
N     2.8849640    0.7127960   -1.3423500  
C     4.1430680   -0.6869210    0.2674160  
C     3.9307090   -1.7872130    1.2103940  
O     4.8428840   -2.4591650    1.6942070  
C     2.4679130   -2.1949120    1.6313280  
O     2.3352210   -3.0277430    2.5120090  
C     1.3443250   -1.5773050    0.9336020  
H     0.3373380   -1.8744230    1.2054410  
H     1.2681400    1.6664140   -2.3901720  
H     3.6576280    1.2881250   -1.6481890  
C     5.6823040    3.5287820   -0.0320490  
C     4.9124960    2.4177680    0.2089040  
C     5.7089630    1.2624740   -0.1191150  
C     6.9711290    1.7534490   -0.5466780  
N     6.9178820    3.1324610   -0.4982780  
C     8.0376180    0.9197620   -0.8990800  
C     7.8261460   -0.4441770   -0.7881240  
O     8.8222450   -1.3184190   -1.0883090  
C     6.5738560   -0.9718940   -0.3651000  
O     6.5395870   -2.3436990   -0.3446880  
C     5.4846240   -0.1482130   -0.0614600  
H     3.9129050    2.4283360    0.6193230  
H     7.6870970    3.7487170   -0.7096320  
H     9.0042610    1.2966400   -1.2170740  
H     8.4580650   -2.2049240   -0.8980630  
H     6.0425660   -2.6097840    0.4662850  
H     5.4523850    4.5765170    0.1004620  
C    -6.2574730   -3.3224320   -0.8007310  
C    -5.2904620   -2.4402940   -0.3944600  
C    -5.8746880   -1.1290300   -0.4285130  
C    -7.2171990   -1.2835030   -0.8662730  
N    -7.4210500   -2.6304210   -1.0858320  
C    -8.1015480   -0.2065860   -1.0079360  
C    -7.6190520    1.0559370   -0.7045980  
O    -8.4292420    2.1470470   -0.8366180  
C    -6.2827920    1.2343010   -0.2600050  
O    -5.9480670    2.5498830   -0.0100420  
C    -5.3939690    0.1682030   -0.1103490  
H    -4.2792600   -2.6899150   -0.1077080  
H    -8.2839570   -3.0444770   -1.4011840  
H    -9.1262110   -0.3236450   -1.3460000  
H    -7.8920200    2.9280800   -0.6168300  
H    -4.9883090    2.6017000    0.1406690  
H    -6.2178270   -4.3967390   -0.9132410  
