62


C    -0.7312240    4.6189480    1.4841380  
C     0.2063860    5.4376460    0.9435100  
C     0.7650530    4.7656490   -0.2039980  
C     0.1206510    3.5120010   -0.3192630  
N    -0.8162490    3.4280660    0.7418490  
C     0.4307060    2.6097990   -1.3396120  
C     1.4089620    2.9864650   -2.2532940  
O     1.7407400    2.1356770   -3.2654810  
C     2.0625150    4.2373270   -2.1483210  
O     3.0071650    4.4671010   -3.1263690  
C     1.7501520    5.1283040   -1.1339180  
H     0.4801930    6.4157520    1.3157250  
H    -0.0587470    1.6508470   -1.4255550  
H     2.4387000    2.5646490   -3.7895830  
H     3.4181770    5.3329080   -2.9858560  
H     2.2582540    6.0878180   -1.0638200  
H    -1.3605930    4.7582890    2.3483640  
C    -1.6868040    2.4167710    1.0467080  
C    -2.6284140    2.3843280    2.0588990  
C    -3.2639370    1.1189830    1.9329170  
C    -2.5695360    0.4624020    0.7630830  
N    -1.6555460    1.2398250    0.2535370  
C    -2.9212700   -0.8593300    0.2968630  
C    -3.9432820   -1.4640460    0.9670160  
O    -4.4040030   -2.6779690    0.6786140  
C    -4.6712510   -0.8243590    2.1453000  
O    -5.5699230   -1.5100730    2.6466110  
C    -4.2788280    0.4894780    2.5935080  
H    -2.8624890    3.1482310    2.7843730  
H    -5.1287310   -2.8254110    1.3362910  
H    -4.8122910    0.9215730    3.4336300  
C     1.3006240   -2.0694540   -0.2648430  
C     1.2329220   -2.6150430   -1.5315670  
C    -0.1187700   -2.4850710   -1.9633170  
C    -0.8237420   -1.8063490   -0.8219320  
N     0.0075540   -1.5755860    0.1502860  
C    -2.2352520   -1.4965490   -0.8494940  
C    -2.8913620   -1.8656420   -1.9859910  
O    -4.1902080   -1.6609750   -2.1926380  
C    -2.2084730   -2.5472170   -3.1645290  
O    -2.9420890   -2.8108230   -4.1246270  
C    -0.7948570   -2.8364940   -3.0952920  
H     2.0390620   -3.0185690   -2.1213500  
H    -4.3543010   -2.0316050   -3.0950290  
H    -0.3332900   -3.3267670   -3.9460040  
C     5.5429640   -3.6420810   -0.1830100  
C     4.2325090   -3.4048270   -0.5278720  
C     3.6850450   -2.5081110    0.4464840  
C     4.7230610   -2.2437250    1.3716870  
N     5.8420500   -2.9368970    0.9591620  
C     4.5641910   -1.4300600    2.5027520  
C     3.3177600   -0.8749320    2.7181010  
O     3.0957280   -0.0833020    3.8032130  
C     2.2388840   -1.1088290    1.8199010  
O     1.1010230   -0.4816120    2.1857190  
C     2.3947120   -1.9090570    0.6536440  
H     3.7303010   -3.8586460   -1.3670710  
H     6.7293230   -2.9443310    1.4374450  
H     5.3697510   -1.2355190    3.2039470  
H     2.1613410    0.1916410    3.7512100  
H     0.3857270   -0.7425920    1.5223080  
H     6.2869070   -4.2618790   -0.6627470  
