60


C    -2.4097560   -1.5410260   -0.1940560  
C    -2.6959860   -2.8764930    0.0556240  
C    -4.1090220   -3.0225810    0.0502590  
C    -4.6619370   -1.7360470   -0.2159420  
N    -3.6143610   -0.8515910   -0.3298380  
C    -6.0404350   -1.5137840   -0.3170120  
C    -6.8750480   -2.6041580   -0.1337020  
O    -8.2212750   -2.4474580   -0.2186510  
C    -6.3406200   -3.8981210    0.1490610  
O    -7.3095120   -4.8645570    0.3082650  
C    -4.9837760   -4.1166050    0.2440720  
H    -1.9621660   -3.6445710    0.2577880  
H    -3.6868100    0.0863220   -0.6956620  
H    -6.4687820   -0.5390130   -0.5248980  
H    -8.6294860   -3.3165090   -0.0582290  
H    -6.8953900   -5.7191320    0.5004710  
H    -4.5955490   -5.1098990    0.4575820  
C    -1.1491240   -0.8690230   -0.2829330  
C     0.1191730   -1.3911070   -0.4322660  
C     1.0435320   -0.3050540   -0.4178100  
C     0.2337570    0.9260640   -0.2754800  
N    -1.0949550    0.5303940   -0.2500150  
C     0.7351290    2.1983090   -0.1865180  
C     2.2146870    2.2813630   -0.0738970  
O     2.7938700    3.2731130    0.3290820  
C     3.0875830    1.0338390   -0.4464310  
O     4.2837870    1.1956730   -0.6312230  
C     2.4151720   -0.2604490   -0.5381960  
H     0.3613500   -2.4363400   -0.5543790  
H    -1.7155830    1.0934070    0.3485700  
C    -2.9862580    3.3517370    2.0120470  
C    -2.9883670    4.6911890    1.8382570  
C    -1.8590540    4.9667910    0.9591120  
C    -1.2334600    3.6225410    0.7151630  
N    -1.9231970    2.6914680    1.3198570  
C    -0.0383540    3.4498710   -0.0968110  
C     0.3737910    4.5795890   -0.7605860  
O     1.3619160    4.5858140   -1.6556820  
C    -0.2524340    5.9323410   -0.5589890  
O     0.2149130    6.8762060   -1.1924780  
C    -1.3929330    6.0785180    0.3622100  
H    -3.6778020    5.4181420    2.2437820  
H     1.4753360    5.5240780   -1.9279240  
H    -1.8146060    7.0709950    0.4866110  
H    -3.6718070    2.7485270    2.5946350  
C     2.9394550   -2.2321480   -1.9657160  
C     3.8238440   -3.2580160   -2.0260170  
C     4.7024870   -3.1366100   -0.8832980  
C     4.2522290   -1.9322470   -0.1427040  
N     3.1634900   -1.4155460   -0.8504730  
C     4.8077630   -1.5029850    1.0164450  
C     5.9316270   -2.2571700    1.5700720  
O     6.4826090   -1.9524630    2.6168500  
C     6.4395460   -3.5220550    0.7869550  
O     7.3812180   -4.1589000    1.2344670  
C     5.7451720   -3.8916450   -0.4470990  
H     3.8731150   -4.0175760   -2.7929860  
H     4.4741970   -0.6205490    1.5493310  
H     6.0875810   -4.7772830   -0.9739590  
H     2.1390560   -1.9720590   -2.6453680  
