62


C    -4.4481170   -1.3656930    1.7557110  
C    -4.7548530   -2.6832180    1.9450670  
C    -3.7167560   -3.4557720    1.3221600  
C    -2.7899810   -2.5399550    0.7624780  
N    -3.2518320   -1.2532230    1.0454870  
C    -1.6540560   -2.9520390    0.0544870  
C    -1.4552220   -4.3165970   -0.0864370  
O    -0.3697680   -4.7870060   -0.7778390  
C    -2.3654390   -5.2490590    0.4744820  
O    -2.0196370   -6.5693880    0.2528770  
C    -3.4847330   -4.8368110    1.1725000  
H    -5.6190950   -3.0629140    2.4727500  
H    -0.9424750   -2.2570010   -0.3782120  
H    -0.4280180   -5.7583100   -0.7705980  
H    -2.7054630   -7.1492400    0.6153980  
H    -4.1735600   -5.5672910    1.5921630  
H    -4.9629670   -0.4710530    2.0759750  
C    -1.5082810    0.5059280    0.9971300  
C    -2.6930670   -0.0384680    0.6121520  
C    -3.2976400    0.8737020   -0.3483670  
C    -2.3414090    1.9950130   -0.4937280  
N    -1.2733140    1.7240940    0.3450330  
C    -2.5357220    3.0568720   -1.3283250  
C    -3.7598150    3.1002710   -2.1274670  
O    -4.0072170    3.9982430   -2.9165060  
C    -4.7949970    1.9293010   -1.9605910  
O    -5.8380100    1.9635920   -2.5914770  
C    -4.4587460    0.8287740   -1.0468970  
H    -1.7851870    3.8228890   -1.5009140  
H    -5.1608460    0.0053750   -0.9596360  
H    -0.7801200    0.1317420    1.7029780  
C     3.0865240    0.9227250    0.1162290  
C     1.7006150    0.8174670    0.0502160  
C     1.1617460    2.0689860    0.4458220  
C     2.2571250    2.9306660    0.7454720  
N     3.4041590    2.2122610    0.5371510  
C     2.0868050    4.2592010    1.1518420  
C     0.7866210    4.7260230    1.2692630  
O     0.5559540    6.0050320    1.6609290  
C    -0.3335620    3.8837360    1.0052580  
O    -1.5544210    4.4727280    1.2543680  
C    -0.1547510    2.5682570    0.5939590  
H     1.1767890   -0.0733090   -0.2547110  
H     4.3532640    2.5426260    0.6378510  
H     2.9182860    4.9217810    1.3662130  
H    -0.4113510    6.1283210    1.6643500  
H    -2.2217400    4.1687170    0.6115500  
C     2.7111670   -3.3194410   -1.0071950  
C     4.0059950   -3.6755870   -1.1558070  
C     4.7769350   -2.4731430   -0.8578980  
C     3.7401440   -1.4402350   -0.5425860  
N     2.5461490   -1.9423230   -0.6313270  
C     4.1029360   -0.0633880   -0.1771520  
C     5.4507570    0.1898820   -0.1305640  
O     5.9715160    1.4013070    0.1987060  
C     6.4908270   -0.8173560   -0.4376420  
O     7.6740660   -0.4646270   -0.3668470  
C     6.0906040   -2.1869890   -0.8117580  
H     4.4080820   -4.6417440   -1.4275350  
H     6.9467330    1.2732430    0.1393580  
H     6.8844980   -2.8960180   -1.0265120  
H     1.8172490   -3.9208600   -1.1194540  
