60


C     6.9246920    1.8178260    3.2601240  
C     5.7719050    1.4833890    2.5982640  
C     6.1472630    1.1427750    1.2547380  
C     7.5577940    1.2867330    1.1618740  
N     8.0001850    1.7039700    2.3994860  
C     8.2795870    1.0093710   -0.0047300  
C     7.5625110    0.5789770   -1.1108840  
O     8.2087650    0.2899840   -2.2723420  
C     6.1487350    0.4486180   -1.0635130  
O     5.5644110    0.0922540   -2.2619930  
C     5.4417100    0.7301690    0.1034230  
H     4.7784680    1.4691680    3.0234080  
H     8.9632650    1.8721470    2.6451810  
H     9.3583420    1.1063670   -0.0679060  
H     7.5274490   -0.0031170   -2.9048850  
H     4.8233640   -0.5223820   -2.1091820  
H     7.0726410    2.1274670    4.2849090  
C     3.1508820    1.6878740    0.4130920  
C     1.8540250    1.3120730    0.2731580  
C     1.8452420   -0.0745930   -0.1352200  
C     3.2671430   -0.4821840   -0.1997780  
N     4.0206700    0.6305900    0.1235890  
C     3.7106290   -1.7374550   -0.5097170  
C     2.7183130   -2.7612760   -0.7807310  
O     2.9923580   -3.9277430   -1.0174000  
C     1.1993990   -2.3513380   -0.7535800  
O     0.3763320   -3.2082990   -1.0277280  
C     0.8198920   -0.9538210   -0.4110750  
H     0.9914410    1.9332270    0.4573540  
H     4.7558580   -2.0273050   -0.4575280  
H     3.5699560    2.6423480    0.7000390  
C    -1.0641530    0.6448530   -0.9143890  
C    -0.5778510   -0.5427880   -0.4428620  
C    -1.7863630   -1.2555910    0.0292800  
C    -2.9064610   -0.2908810   -0.2020010  
N    -2.4583320    0.7943540   -0.7882950  
C    -4.2833900   -0.5651510    0.1682570  
C    -4.5144340   -1.8396800    0.6245950  
O    -5.7288990   -2.3183440    0.8946940  
C    -3.4155340   -2.8344060    0.8570770  
O    -3.7290930   -3.9371170    1.2999220  
C    -2.0184280   -2.4764270    0.5413010  
H    -5.5879970   -3.2272890    1.2434040  
H    -1.2626740   -3.2370180    0.6896380  
H    -0.4994400    1.4361560   -1.3918740  
C    -5.4980220    2.5774720   -2.7605640  
C    -6.6570720    2.9797820   -2.1783710  
C    -6.7991600    2.2301160   -0.9499510  
C    -5.6195130    1.3263830   -0.8862880  
N    -4.8890160    1.5581690   -2.0351300  
C    -5.3743420    0.4273560    0.1204640  
C    -6.2735410    0.5343940    1.2990430  
O    -6.0193900    0.0185760    2.3730720  
C    -7.5857380    1.3899530    1.1874700  
O    -8.4041140    1.3187160    2.0915840  
C    -7.7551740    2.2415010    0.0174810  
H    -7.3461990    3.7223620   -2.5536580  
H    -8.6448520    2.8611300   -0.0402580  
H    -5.0374270    2.9258280   -3.6761640  
H    -3.8829830    1.3829550   -2.0144170  
