62


C     3.9838540   -0.1343900   -0.0883210  
C     2.6333580    0.1977890   -0.0644100  
C     2.5254740    1.6067050    0.1278480  
C     3.8561660    2.1041490    0.1921630  
N     4.7095730    1.0310300    0.0837320  
C     4.1526450    3.4628100    0.3069310  
C     3.0794840    4.3434700    0.3308040  
O     3.3024070    5.6795700    0.4329510  
C     1.7371410    3.8881460    0.2513400  
O     0.8197950    4.9023920    0.3300130  
C     1.4202920    2.5191160    0.1924800  
H     1.8176780   -0.4839080   -0.2481660  
H     5.7117770    1.0700810   -0.0346220  
H     5.1672410    3.8447790    0.3517260  
H     2.4208830    6.0981710    0.3881350  
H     0.0790930    4.6790870   -0.2839310  
C    -0.5510360   -0.6463970    2.5976590  
C     0.3094290    0.2783070    2.0944380  
C    -0.3581550    0.9394980    0.9945900  
C    -1.6823120    0.3110230    0.8878970  
N    -1.7272290   -0.6657370    1.8547460  
C    -2.6857920    0.6590570    0.0009550  
C    -2.3445720    1.7657420   -0.9095560  
O    -2.9961380    2.0843680   -1.8843560  
C    -1.0246900    2.5759660   -0.6429990  
O    -0.9566910    3.6771120   -1.1842650  
C     0.0436310    2.0017470    0.1981650  
H     1.2945210    0.5105090    2.4669430  
H    -0.4369850   -1.3085920    3.4454700  
H    -2.5861800   -1.1279000    2.1205750  
C    -3.9594160   -0.0146960   -0.0646330  
C    -4.2634520   -1.3221300    0.2615230  
C    -5.6818040   -1.4580960    0.0595380  
C    -6.1197480   -0.0917100   -0.3756210  
N    -5.1215920    0.7383190   -0.4537310  
C    -7.5020540    0.2004760   -0.6558040  
C    -8.3921900   -0.8130370   -0.5417630  
O    -9.7058710   -0.6959630   -0.7790770  
C    -7.9765630   -2.2074180   -0.1253770  
O    -8.8686760   -3.0557560   -0.0496190  
C    -6.5711020   -2.4771180    0.1725900  
H    -3.5751190   -2.1282150    0.4776370  
H    -7.7953740    1.1989710   -0.9597910  
H   -10.0744820   -1.5937160   -0.6133440  
H    -6.3112280   -3.4856700    0.4793730  
C     2.4658010   -4.1916410    0.7722870  
C     3.5571240   -4.8930120    0.3345370  
C     4.5246820   -3.9301450   -0.1100960  
C     3.9493530   -2.6458060    0.0710290  
N     2.6875990   -2.8376440    0.5976120  
C     4.6229490   -1.4379600   -0.2396400  
C     5.9377840   -1.5905120   -0.6999520  
O     6.6969660   -0.4838380   -0.9964620  
C     6.5216980   -2.8654590   -0.8877630  
O     7.8192980   -2.8104310   -1.3650230  
C     5.8354130   -4.0325610   -0.6140720  
H     3.6643980   -5.9689270    0.3288990  
H     2.1115880   -2.0993220    0.9733120  
H     7.5507760   -0.8072900   -1.3348840  
H     8.1364120   -3.7067140   -1.5489200  
H     6.3060440   -5.0014630   -0.7659910  
H     1.5314280   -4.5427660    1.1871650  
