62


C     3.0274020    0.8715920   -0.3243190  
C     3.9138910    0.2973500   -1.2235140  
C     3.5474230   -1.0748550   -1.3793950  
C     2.4176870   -1.3003140   -0.5488820  
N     2.1368090   -0.1108830    0.0836920  
C     1.7860180   -2.5603070   -0.4297060  
C     2.3300070   -3.5931870   -1.2037740  
O     1.7341470   -4.8141320   -1.2067930  
C     3.4568630   -3.3780860   -2.0388570  
O     3.8501020   -4.5045560   -2.7369350  
C     4.0694130   -2.1446300   -2.1342820  
H     4.6831130    0.8180390   -1.7766350  
H     1.3395790    0.0796110    0.6724000  
H     2.3015290   -5.4140050   -1.7217550  
H     4.6771230   -4.3216480   -3.2064160  
H     4.9306420   -2.0043490   -2.7845410  
C    -2.1791530   -0.5554160    0.0387360  
C    -0.9209540   -0.9413080   -0.3581220  
C    -0.5143500   -2.0614120    0.4434830  
C    -1.6466590   -2.3439130    1.3537340  
N    -2.6483640   -1.4398340    1.0262440  
C    -1.6667840   -3.3213970    2.2932540  
C    -0.4945400   -4.1764560    2.4139400  
O    -0.4291800   -5.1174260    3.1904110  
C     0.7477280   -3.8683600    1.5011790  
O     1.7830050   -4.4698690    1.7229360  
C     0.6377160   -2.8133130    0.4577530  
H    -0.3612550   -0.5000640   -1.1685410  
H    -2.5212320   -3.5199700    2.9330160  
H    -3.3760690   -1.1871520    1.6794500  
C    -2.5419790    1.7246030   -0.9734080  
C    -2.9783360    0.5440570   -0.4259720  
C    -4.4505360    0.6617950   -0.4357870  
C    -4.6982220    2.0058260   -1.0304730  
N    -3.5752680    2.6072890   -1.3396570  
C    -6.0268950    2.5101190   -1.2277220  
C    -7.0678600    1.7159090   -0.8709760  
O    -8.3571150    2.0627470   -1.0007270  
C    -6.8526840    0.3465020   -0.2931510  
O    -7.8439710   -0.3173860    0.0047860  
C    -5.4722640   -0.1499090   -0.1003680  
H    -6.1746790    3.4941010   -1.6585810  
H    -8.8727900    1.2944820   -0.6706120  
H    -5.3635300   -1.1560970    0.2925930  
H    -1.5108050    2.0312360   -1.1067320  
C     6.2009710    3.8801140    0.1979000  
C     5.4140640    4.9118160    0.6365080  
C     4.0652150    4.4219480    0.6835390  
C     4.0973140    3.0742900    0.2411560  
N     5.4096610    2.7770880   -0.0649870  
C     2.9530890    2.2433520    0.1759020  
C     1.7649540    2.8333010    0.6226700  
O     0.5916920    2.1090610    0.6317540  
C     1.7156180    4.1771410    1.0622110  
O     0.4499040    4.5817760    1.4500150  
C     2.8384880    4.9815890    1.0892420  
H     5.7521760    5.9049520    0.8983480  
H     5.7448990    1.8412770   -0.2369270  
H    -0.0910190    2.6914290    1.0105020  
H     0.4741560    5.5115570    1.7193910  
H     2.7748870    6.0116230    1.4333780  
H     7.2688600    3.8369990    0.0360650  
