60


C    -4.4442620   -0.3190280    0.0951100  
C    -4.9124860   -1.3388780    0.9255780  
C    -6.2110500   -1.6912480    0.4819480  
C    -6.5135520   -0.8593650   -0.6381950  
N    -5.4335080   -0.0454790   -0.8490030  
C    -7.7289000   -0.9406960   -1.3296680  
C    -8.6526230   -1.8729930   -0.8857140  
O    -9.8509210   -1.9965410   -1.5182890  
C    -8.3683800   -2.7137030    0.2328950  
O    -9.3965090   -3.5839050    0.5399500  
C    -7.1735570   -2.6346720    0.9127770  
H    -4.3559100   -1.7531780    1.7507100  
H    -5.3344590    0.6608000   -1.5635820  
H    -7.9669110   -0.3115660   -2.1808390  
H   -10.3519330   -2.6917770   -1.0569720  
H    -9.1533920   -4.1115710    1.3150150  
H    -6.9752900   -3.2836180    1.7632720  
C    -0.9999790   -0.6656540    2.7956060  
C    -0.1468920    0.2489750    2.2778350  
C    -0.8417910    0.8128200    1.1280710  
C    -2.1539990    0.1010680    1.1087450  
N    -2.2314250   -0.7582810    2.0849440  
C    -3.1902720    0.3942120    0.1113850  
C    -2.8588430    1.3840010   -0.7849260  
O    -3.6813150    1.7732450   -1.7956390  
C    -1.5687110    2.0925320   -0.8008310  
O    -1.3600150    2.8837210   -1.7265820  
C    -0.5356090    1.7967730    0.2428610  
H     0.8338760    0.5260790    2.6360450  
H    -3.1659750    2.4597730   -2.2793200  
H    -0.8571170   -1.2990830    3.6628490  
C     3.7848050    0.6514970    0.0067040  
C     2.4077410    0.6403870    0.0849670  
C     1.9643780    2.0004600    0.1557780  
C     3.1907130    2.8388580    0.1011840  
N     4.2477820    1.9618080    0.0261460  
C     3.2016450    4.1969040    0.1035920  
C     1.9277860    4.8998940    0.1597550  
O     1.8314280    6.1168470    0.1294470  
C     0.6162230    4.0480740    0.2778510  
O    -0.4387490    4.6227680    0.4811560  
C     0.7100600    2.5680420    0.2117350  
H     1.7809250   -0.2382340    0.0934580  
H     4.1123890    4.7840370    0.0413790  
H     5.2300980    2.1850570   -0.0506620  
C     4.7344090   -0.4232810   -0.0903780  
C     4.5283660   -1.7767810   -0.1238200  
C     5.8442020   -2.3600870   -0.2310120  
C     6.7753310   -1.1830910   -0.2511080  
N     6.1222760   -0.0593870   -0.1686070  
C     8.2003430   -1.3498590   -0.3511270  
C     8.6793520   -2.6147610   -0.4275410  
O     9.9768170   -2.9220790   -0.5241850  
C     7.7665060   -3.8230410   -0.4096910  
O     8.2996560   -4.9291210   -0.4837480  
C     6.3156040   -3.6279460   -0.3068760  
H     3.5880130   -2.3081290   -0.0807560  
H     8.8530780   -0.4843250   -0.3639510  
H    10.0126610   -3.9047730   -0.5615530  
H     5.6915720   -4.5160770   -0.2972700  
