62


C     4.4225400   -0.9143580   -1.7305270  
C     5.1170410   -2.0807980   -1.5919630  
C     5.9647140   -1.9394420   -0.4395680  
C     5.7450230   -0.6407030    0.0843210  
N     4.7937810   -0.0169380   -0.7276870  
C     6.3834310   -0.1808590    1.2410880  
C     7.2731980   -1.0406740    1.8683280  
O     7.9254330   -0.6344000    2.9990200  
C     7.5147600   -2.3377220    1.3506450  
O     8.4273630   -3.0757430    2.0832910  
C     6.8727210   -2.7934590    0.2128140  
H     5.0381640   -2.9453430   -2.2372600  
H     6.2217590    0.8080450    1.6507910  
H     8.5002370   -1.3681220    3.2762950  
H     8.5536190   -3.9385720    1.6621410  
H     7.0629550   -3.7974150   -0.1623820  
H     3.6872820   -0.6179550   -2.4624270  
C     0.6508080    1.2469860   -0.5735580  
C     0.8012770    2.6009180   -0.3904540  
C     2.2140150    2.8357030   -0.3565120  
C     2.8223770    1.4747380   -0.5466190  
N     1.9124290    0.5567640   -0.6715900  
C     4.2621170    1.2776210   -0.5740800  
C     5.0316070    2.3949200   -0.4353800  
O     6.3687660    2.3901650   -0.4635550  
C     4.4398110    3.7678080   -0.2218810  
O     5.2490230    4.6946660   -0.1050410  
C     2.9953180    3.9366010   -0.1917770  
H     0.0235360    3.3435020   -0.2809560  
H     6.6197960    3.3350450   -0.3265660  
H     2.6086310    4.9394370   -0.0433030  
C    -0.5140620    0.4320040   -0.6745780  
C    -1.8769270    0.7320730   -0.6404250  
C    -2.5844400   -0.4842300   -0.7867410  
C    -1.6063480   -1.5257170   -0.8986760  
N    -0.3747190   -0.9386190   -0.8360720  
C    -1.9487030   -2.8753860   -1.0295090  
C    -3.2995460   -3.1821780   -1.0537960  
O    -3.6953570   -4.4714010   -1.2042060  
C    -4.2907650   -2.1642570   -0.9412070  
O    -5.5808060   -2.6560070   -1.0057200  
C    -3.9747030   -0.8174960   -0.8005520  
H    -2.2953120    1.7199420   -0.5137420  
H     0.5338920   -1.3811200   -0.8692100  
H    -1.2121020   -3.6661020   -1.1199370  
H    -4.6684330   -4.4737170   -1.2464870  
H    -6.1883340   -1.9395510   -1.2488900  
C    -5.0637960    1.4318260   -1.3047460  
C    -5.0103940    0.2155600   -0.6866070  
C    -6.1934160    0.2246480    0.2057290  
C    -6.8349410    1.5500240   -0.0470750  
N    -6.1698550    2.2408590   -0.9315130  
C    -8.0323230    1.9539750    0.6405400  
C    -8.5561080    1.1041910    1.5568770  
O    -9.6622830    1.3561160    2.2738630  
C    -7.9198510   -0.2256670    1.8521060  
O    -8.4516230   -0.9433880    2.6960790  
C    -6.6963990   -0.6268330    1.1211850  
H    -8.4786630    2.9189370    0.4273140  
H    -9.7902310    0.5696360    2.8482350  
H    -6.2737050   -1.5975120    1.3593940  
H    -4.3669060    1.8174460   -2.0392360  
