62


C    -3.6802350    0.1572450   -1.6192670  
C    -3.1164610   -0.8441580   -0.8469060  
C    -4.2248750   -1.5757610   -0.2657770  
C    -5.4161710   -0.9630360   -0.7282940  
N    -5.0492260    0.0787420   -1.5591040  
C    -6.6939940   -1.3893780   -0.3460110  
C    -6.7726170   -2.4602310    0.5288980  
O    -7.9901120   -2.9223750    0.9351190  
C    -5.5905950   -3.0842300    1.0093470  
O    -5.8300660   -4.1371430    1.8731270  
C    -4.3324710   -2.6580220    0.6301340  
H    -5.6864730    0.7078640   -2.0223080  
H    -7.6034290   -0.9157170   -0.7011170  
H    -7.8271680   -3.6669940    1.5395310  
H    -4.9859830   -4.5218630    2.1515530  
H    -3.4460350   -3.1656760    0.9971580  
H    -3.1990070    0.8938710   -2.2468720  
C     0.0283840    2.1317310   -0.1382580  
C     1.1121690    1.2462030   -0.1048550  
C     0.6124810   -0.0607690   -0.3247840  
C    -0.7970020    0.0560520   -0.4793010  
N    -1.1127070    1.3838020   -0.3731350  
C    -1.6736800   -1.0383880   -0.6640660  
C    -1.0529500   -2.2930760   -0.6739070  
O    -1.7958040   -3.4160690   -0.8875720  
C     0.3471910   -2.4458970   -0.5073450  
O     0.7564580   -3.7571890   -0.5911830  
C     1.2156810   -1.3570520   -0.3413730  
H     2.1300600    1.5046450    0.1353740  
H    -2.0397510    1.7893860   -0.3149000  
H    -1.1707570   -4.1607390   -0.9506790  
H     1.7306570   -3.7913610   -0.6588940  
C     3.1205230    5.3622650   -0.1409570  
C     2.4636860    4.1800090   -0.2944160  
C     1.0748250    4.4018740    0.0346880  
C     0.9700560    5.8339120    0.3822900  
N     2.2462150    6.3507820    0.2836460  
C    -0.1724500    6.4895950    0.7317990  
C    -1.4043210    5.7364350    0.7313480  
O    -2.4972490    6.1978380    1.0275750  
C    -1.3437010    4.2203840    0.3064230  
O    -2.4169270    3.6441120    0.1797860  
C    -0.0296640    3.5643170    0.0623830  
H     2.9065840    3.2637300   -0.6474210  
H    -0.1997550    7.5392900    1.0055760  
H     4.1638340    5.5947490   -0.3068100  
H     2.4823840    7.3205870    0.4237400  
C     2.6472340   -1.5392600   -0.2341220  
C     3.6818160   -0.7439560   -0.6543260  
C     4.9271940   -1.3852180   -0.3356820  
C     4.5706850   -2.6530800    0.3357900  
N     3.1690150   -2.7556440    0.3075690  
C     5.4659410   -3.5185590    0.8598260  
C     6.8937610   -3.2076820    0.7260200  
O     7.7674580   -3.9359010    1.1681910  
C     7.2976520   -1.8935820   -0.0339430  
O     8.4857360   -1.6318820   -0.1635270  
C     6.2302790   -1.0355690   -0.5361980  
H     3.5712570    0.1774230   -1.2072250  
H     5.1884480   -4.4430410    1.3575970  
H     6.5178640   -0.1181880   -1.0408420  
H     2.7080200   -3.1415650    1.1266390  
