62


C    -1.1497000   -2.8207370    0.9533550  
C    -2.4305500   -2.4016910    0.7102600  
C    -2.3453490   -1.0699060    0.1804370  
C    -0.9679940   -0.7358050    0.1157650  
N    -0.2615180   -1.8271790    0.5784900  
C    -0.4883140    0.5088360   -0.3484380  
C    -1.4618630    1.4238920   -0.7513880  
O    -1.0896240    2.6508550   -1.2205950  
C    -2.8420490    1.1040950   -0.6995220  
O    -3.6599710    2.1257330   -1.1311760  
C    -3.3153690   -0.1285410   -0.2496840  
H    -3.3340600   -2.9655810    0.8900730  
H     0.7304650   -1.8343390    0.7588970  
H    -1.9091090    3.1440840   -1.4055220  
H    -4.5836540    1.8886540   -0.9353100  
H    -0.7850180   -3.7543120    1.3578160  
C     1.9052780    0.0422580   -1.0018750  
C     0.9528640    0.8110090   -0.4111160  
C     1.6505210    1.9633690    0.1739630  
C     3.0895840    1.7968780   -0.1222700  
N     3.1816350    0.6252610   -0.8724380  
C     4.0745620    2.6357400    0.2759880  
C     3.6954820    3.8144470    1.0545760  
O     4.5038370    4.6361140    1.4551430  
C     2.1716730    4.0211620    1.3809080  
O     1.8318430    4.9959860    2.0301170  
C     1.2078200    3.0244350    0.8914920  
H     5.1231490    2.4765490    0.0482810  
H     0.1590000    3.1816000    1.1143930  
H     1.8047970   -0.8799590   -1.5586800  
C     4.9844620    0.1519000   -2.4679930  
C     6.0155250   -0.7166880   -2.5758730  
C     6.0645060   -1.5014710   -1.3543470  
C     4.9592020   -1.0146180   -0.4969510  
N     4.3512040    0.0125820   -1.2189700  
C     4.6409890   -1.5096350    0.7222610  
C     5.4475980   -2.6134510    1.2454590  
O     5.2271180   -3.1432430    2.3220070  
C     6.6456530   -3.1337100    0.3689630  
O     7.3371530   -4.0442260    0.7932060  
C     6.8788630   -2.5047330   -0.9376540  
H     6.6887580   -0.8085330   -3.4159440  
H     3.8315190   -1.1234090    1.3328100  
H     7.7037290   -2.8790560   -1.5362830  
H     4.6141040    0.8992010   -3.1565350  
C    -6.2036140   -0.9456910    3.1232960  
C    -5.0772740   -0.6788660    2.3893520  
C    -5.4724730   -0.6423640    1.0095140  
C    -6.8701930   -0.8939300    0.9706970  
N    -7.2869840   -1.0753290    2.2731820  
C    -7.6073680   -0.9218700   -0.2197120  
C    -6.9186740   -0.6942380   -1.3998940  
O    -7.5805920   -0.7237630   -2.5932060  
C    -5.5235400   -0.4332970   -1.3860010  
O    -4.9792410   -0.2362810   -2.6398470  
C    -4.7792540   -0.3984950   -0.2051020  
H    -4.0814270   -0.5310950    2.7810480  
H    -8.2334330   -1.2700040    2.5595080  
H    -8.6741120   -1.1193680   -0.2496680  
H    -6.9162690   -0.5901220   -3.2915410  
H    -4.0098500   -0.2442920   -2.5623160  
H    -6.3291610   -1.0564610    4.1911270  
