64


C     1.2809070   -0.1845750    1.5457740  
C     0.5710470   -0.1502700    0.3530730  
C     1.5637880   -0.0380050   -0.6993480  
C     2.8324580   -0.0043110   -0.0727300  
N     2.6270550   -0.1041270    1.2903730  
C     4.0553150    0.1397110   -0.7619210  
C     3.9595920    0.2525880   -2.1477190  
O     5.0844810    0.3579770   -2.9037720  
C     2.6938560    0.2285820   -2.7948470  
O     2.7771300    0.3434340   -4.1699200  
C     1.5092280    0.0875300   -2.1016310  
H     3.3651920   -0.1293830    1.9777990  
H     4.7984150    0.4130110   -3.8324310  
H     1.9017140    0.1950120   -4.5576740  
H     0.5628860    0.0374180   -2.6292580  
H     0.9201990   -0.3388230    2.5533490  
C    -2.5040020    1.8211110    2.7472950  
C    -3.6253360    1.3387620    2.1452160  
C    -3.2051670    0.4629510    1.0775190  
C    -1.7280050    0.4605710    1.1162540  
N    -1.3647520    1.2812870    2.1722520  
C    -0.8888980   -0.1992220    0.2550730  
C    -1.5807290   -0.9877570   -0.7761640  
O    -1.0094870   -1.5692510   -1.6843920  
C    -3.1496900   -1.1427330   -0.7070710  
O    -3.6269430   -2.0221250   -1.4275810  
C    -3.9371770   -0.2805300    0.1690740  
H    -4.6452030    1.5614310    2.4152100  
H    -2.4148350    2.5073940    3.5793050  
H    -0.4216560    1.6217780    2.2936710  
C    -6.7804730    3.1842310   -0.1677360  
C    -5.6583750    2.3997150   -0.1003670  
C    -6.0937460    1.0331340    0.0103160  
C    -7.5142410    1.0593870   -0.0104500  
N    -7.9029630    2.3811990   -0.1008720  
C    -8.3022200   -0.0956810    0.0211270  
C    -7.6314840   -1.3076900    0.0464160  
O    -8.3267090   -2.4778440    0.0537610  
C    -6.2120030   -1.3703900    0.0628570  
O    -5.7171470   -2.6551920    0.1064850  
C    -5.4155580   -0.2211030    0.0838310  
H    -4.6398030    2.7573490   -0.1293520  
H    -8.8553700    2.6997630   -0.1830730  
H    -9.3870540   -0.0738570   -0.0026830  
H    -7.6466820   -3.1791550    0.0284950  
H    -4.9724520   -2.6904800   -0.5389250  
H    -6.8763170    4.2571940   -0.2573140  
C     5.9414410   -3.0196490    1.6595410  
C     7.0686400   -2.3354450    2.0334100  
C     6.9894510   -1.0307450    1.4372530  
C     5.7730430   -0.9821610    0.7089900  
N     5.1456150   -2.2023520    0.8760980  
C     5.3505370    0.1389940   -0.0367510  
C     6.2080640    1.2391300   -0.0259800  
O     5.8662160    2.3754520   -0.6958630  
C     7.4295470    1.2078160    0.6982530  
O     8.1538770    2.3847700    0.6113770  
C     7.8264100    0.1026010    1.4264300  
H     7.8637310   -2.7152500    2.6604880  
H     4.3198100   -2.4915380    0.3738710  
H     6.6129740    2.9926310   -0.6071650  
H     9.0168350    2.2619110    1.0332700  
H     8.7672990    0.1115610    1.9734210  
H     5.6269890   -4.0270870    1.8933600  
