62


C    -4.2630580   -0.0915730   -0.0758310  
C    -3.7153120    1.0048980   -0.6992250  
C    -4.4734440    2.1627980   -0.3163760  
C    -5.4930810    1.7190110    0.5591250  
N    -5.3999560    0.3296230    0.6509510  
C    -6.4077660    2.5886750    1.1575170  
C    -6.2984040    3.9393350    0.8546930  
O    -7.1638980    4.8317970    1.4139900  
C    -5.2967780    4.4004430   -0.0397040  
O    -5.3243150    5.7648190   -0.2492600  
C    -4.3917660    3.5342170   -0.6268390  
H    -2.8997050    0.9731170   -1.4084630  
H    -5.6714570   -0.1564640    1.4978540  
H    -7.1886490    2.2530510    1.8322530  
H    -6.9323340    5.7127810    1.0723320  
H    -4.6294390    6.0120080   -0.8771780  
H    -3.6301000    3.9110160   -1.3064710  
C    -0.2914560   -2.2295800   -0.2560990  
C    -1.3077730   -1.2689310   -0.1660580  
C    -2.5510870   -1.9423210   -0.2200680  
C    -2.2614900   -3.3358120   -0.3297170  
N    -0.9013560   -3.4735240   -0.3591920  
C    -3.2582020   -4.3169210   -0.3701270  
C    -4.5717020   -3.8821150   -0.2975810  
O    -5.5873620   -4.7833530   -0.3470300  
C    -4.8896720   -2.4976500   -0.1853190  
O    -6.2461860   -2.2523640   -0.1463810  
C    -3.9093600   -1.5079440   -0.1476280  
H    -1.1688320   -0.2127440   -0.0028670  
H    -0.3596170   -4.3287440   -0.3428340  
H    -3.0415910   -5.3760990   -0.4555700  
H    -6.4200580   -4.2785600   -0.3246180  
H    -6.3983280   -1.2937290   -0.2458760  
C     2.4406960    1.2574440   -0.7794560  
C     1.3661760    0.4311200   -0.7705310  
C     1.8157170   -0.8841580   -0.3805160  
C     3.2685920   -0.7683950   -0.1824370  
N     3.6003310    0.5685850   -0.3871140  
C     4.1112650   -1.8063620    0.1178710  
C     3.5418600   -3.1257760    0.2495070  
O     4.1881590   -4.1318150    0.5119080  
C     1.9940850   -3.2888550    0.0308330  
O     1.5531690   -4.4305970    0.0520320  
C     1.1441980   -2.0864530   -0.2096920  
H     0.3673990    0.7096500   -1.0635660  
H     5.1876710   -1.7038930    0.1867040  
H     2.5122420    2.3000370   -1.0460410  
C     6.5893560    0.3347970    2.7976250  
C     7.5477970    1.1126630    2.2357030  
C     7.0367190    1.5793920    0.9635080  
C     5.6825640    0.9892950    0.8318160  
N     5.4520390    0.2794000    1.9905060  
C     4.8728410    1.1629870   -0.2587340  
C     5.3560470    2.0487760   -1.3320930  
O     4.6881210    2.3164090   -2.3176210  
C     6.7838600    2.6965600   -1.1841810  
O     7.1727790    3.4324870   -2.0765110  
C     7.5622020    2.3985480    0.0127780  
H     8.5110210    1.3551000    2.6600260  
H     8.5465510    2.8465260    0.1026050  
H     6.5974030   -0.1936940    3.7415650  
H     4.7149350   -0.4056950    2.0884660  
