60


C    -4.2915540   -2.5836660    2.3660960  
C    -5.0503420   -3.3196340    1.4960790  
C    -5.3487740   -2.4739230    0.3734270  
C    -4.7281620   -1.2226330    0.6194920  
N    -4.0692230   -1.3238150    1.8306830  
C    -4.8313220   -0.1198940   -0.2586740  
C    -5.5877050   -0.3239730   -1.4164640  
O    -5.6868070    0.6713200   -2.3364030  
C    -6.2107930   -1.5721730   -1.6763980  
O    -6.9035600   -1.6029720   -2.8708900  
C    -6.0988950   -2.6405060   -0.8070810  
H    -5.3645400   -4.3447670    1.6364530  
H    -3.6799290   -0.5403820    2.3320120  
H    -6.3153160    0.3764860   -3.0185170  
H    -7.4045570   -2.4293570   -2.9358410  
H    -6.5843070   -3.5877390   -1.0328040  
H    -3.8761820   -2.8498910    3.3279730  
C    -0.6154790    0.8818280    0.3714570  
C    -0.7296170    2.2351390    0.5525010  
C    -2.1274360    2.5779510    0.4719370  
C    -2.8449530    1.3100920    0.2265630  
N    -1.8850400    0.2991910    0.2374650  
C    -4.1840770    1.1801050    0.0111800  
C    -4.9846960    2.4262470    0.1192060  
O    -6.1999310    2.4347790    0.0703830  
C    -4.2361310    3.7891470    0.3682830  
O    -4.8928000    4.8189420    0.3926450  
C    -2.7881590    3.7666850    0.5583070  
H     0.0820920    2.9146400    0.7700740  
H    -2.2823480    4.7118110    0.7294750  
H    -2.0381130   -0.5578960   -0.2799440  
C     0.5611110    0.0475220    0.3802010  
C     1.8694000    0.3773980    0.1427700  
C     2.6588520   -0.8214010    0.2634310  
C     1.7075520   -1.9084810    0.5906650  
N     0.4456210   -1.3316750    0.6047470  
C     2.0471810   -3.2041340    0.8020800  
C     3.4510540   -3.5754890    0.6760790  
O     3.8563580   -4.7180360    0.8172280  
C     4.4890140   -2.4446420    0.3469160  
O     5.6750340   -2.7168540    0.3710230  
C     3.9996760   -1.0608990    0.0975570  
H     2.2307360    1.3534300   -0.1439000  
H     1.3249610   -3.9828720    1.0264100  
H    -0.3461180   -1.7485450    1.0745190  
C     5.2916520    2.7992910    1.9449900  
C     4.6592990    1.6276740    1.6720470  
C     5.2213750    1.1080570    0.4425380  
C     6.2546580    2.0864830    0.0217570  
N     6.2282430    3.0981540    0.9642600  
C     7.0579580    1.9554750   -1.0646770  
C     6.9020570    0.7691910   -1.8957060  
O     7.5934620    0.5417360   -2.8756710  
C     5.7750040   -0.2557850   -1.5157900  
O     5.5361920   -1.1706170   -2.2820580  
C     4.9880310   -0.0381360   -0.2711670  
H     3.8889870    1.1642200    2.2691360  
H     7.8226580    2.6775940   -1.3336830  
H     5.1540160    3.4734310    2.7801690  
H     6.8725160    3.8729650    0.9907020  
