62


C     4.4626020   -1.0438190   -1.7154550  
C     4.8853430   -0.1393700   -0.7612520  
C     5.9982630   -0.7643530   -0.0793580  
C     6.1922710   -2.0379670   -0.6708230  
N     5.2439220   -2.1781180   -1.6651340  
C     7.1820800   -2.9327500   -0.2438020  
C     7.9926700   -2.5328570    0.8059340  
O     8.9768640   -3.3616630    1.2633290  
C     7.8096420   -1.2627200    1.4147500  
O     8.6941130   -1.0080790    2.4483560  
C     6.8315440   -0.3843690    0.9911450  
H     5.1510670   -2.9751550   -2.2747540  
H     7.3306140   -3.9076340   -0.6970350  
H     9.4255920   -2.8968260    1.9904780  
H     8.5262800   -0.1215000    2.8001480  
H     6.7218840    0.5888650    1.4605690  
H     3.6802290   -0.9462130   -2.4552090  
C     0.6359720    0.9186170   -0.2849880  
C     0.8125520    2.2932580   -0.1092110  
C     2.2023740    2.5578520   -0.1712610  
C     2.8598220    1.3126170   -0.3936110  
N     1.8912970    0.3459920   -0.4632910  
C     4.2608780    1.1696880   -0.5023660  
C     4.9879010    2.3548590   -0.3664980  
O     6.3466980    2.3380490   -0.4703710  
C     4.3478630    3.6095260   -0.1345120  
O     5.2390290    4.6620100   -0.0281140  
C     2.9808270    3.7316100   -0.0426060  
H     0.0106680    2.9969660    0.0453580  
H     2.0537190   -0.6471880   -0.5505150  
H     6.6484320    3.2614060   -0.4019690  
H     4.7489460    5.4959790    0.0217570  
H     2.5154400    4.6988190    0.1331060  
C    -3.5350330    2.1207040    0.2193410  
C    -4.2093920    0.9254910    0.1099490  
C    -3.1383090   -0.0630630   -0.1151000  
C    -1.8886100    0.7337150   -0.1082060  
N    -2.1492190    2.0071830    0.0893040  
C    -0.5711640    0.1247770   -0.3009520  
C    -0.5896610   -1.2407470   -0.4913760  
O     0.5355980   -1.9787970   -0.6902650  
C    -1.8150920   -2.0511820   -0.5002820  
O    -1.7088330   -3.2739910   -0.6775190  
C    -3.1253300   -1.3955650   -0.3001670  
H     0.2044860   -2.9027540   -0.7771040  
H    -4.0239190   -2.0014580   -0.3090560  
H    -3.9619940    3.1020980    0.3899440  
C    -5.6162890    0.6819770    0.1920060  
C    -6.6448260    1.5751950    0.4008230  
C    -7.8491370    0.8002830    0.3920110  
C    -7.3811940   -0.6107290    0.1573260  
N    -6.0877340   -0.6734510    0.0422370  
C    -8.3068550   -1.7098140    0.0805080  
C    -9.6226500   -1.4274490    0.2277160  
O   -10.6004670   -2.3381400    0.1813130  
C   -10.1270060   -0.0145050    0.4655110  
O   -11.3471660    0.1193780    0.5840830  
C    -9.1709870    1.0831280    0.5398030  
H    -6.5708550    2.6442580    0.5435810  
H    -7.9463700   -2.7182310   -0.0891760  
H   -11.4305420   -1.8251450    0.3208150  
H    -9.5646240    2.0801030    0.7107800  
