62


C    -3.5754160   -1.4509340    2.6979710  
C    -3.2214660   -1.2663710    1.3806080  
C    -3.2961080   -2.5434910    0.7199970  
C    -3.7060710   -3.4739470    1.7062770  
N    -3.8575140   -2.7821580    2.8949560  
C    -3.8887430   -4.8345860    1.4278980  
C    -3.6537860   -5.2573410    0.1298170  
O    -3.8205690   -6.5678340   -0.1964780  
C    -3.2393180   -4.3341180   -0.8718400  
O    -3.0441710   -4.9132740   -2.1067730  
C    -3.0570550   -2.9931170   -0.5943540  
H    -4.1495710   -3.1882960    3.7703920  
H    -4.2049120   -5.5524710    2.1775250  
H    -3.6240200   -6.6607290   -1.1449930  
H    -2.8355660   -4.2316480   -2.7629360  
H    -2.7411250   -2.3043370   -1.3740960  
H    -3.6489940   -0.7320850    3.5011900  
C    -1.6658780    0.6653850    1.1187540  
C    -1.5450890    1.8293770    0.4096840  
C    -2.7147080    1.8902170   -0.4595930  
C    -3.5189550    0.6786400   -0.1667960  
N    -2.8217980   -0.0380520    0.8024330  
C    -4.6984930    0.3773170   -0.7638050  
C    -5.2195210    1.2940830   -1.7774810  
O    -6.2764230    1.1089490   -2.3597770  
C    -4.3684330    2.5667670   -2.1323270  
O    -4.7710850    3.3278100   -2.9974100  
C    -3.1144650    2.7883360   -1.4046170  
H    -5.2680050   -0.5150670   -0.5279720  
H    -2.5258260    3.6594150   -1.6767430  
H    -0.9978480    0.2591430    1.8667160  
C     2.9236320    1.3420210    0.2976280  
C     1.5546070    1.1331860    0.2755330  
C     0.9190020    2.3951720    0.4565310  
C     1.9520350    3.3647420    0.5817560  
N     3.1589260    2.7096970    0.4465090  
C     1.6961350    4.7256720    0.7741400  
C     0.3671900    5.1129610    0.8275190  
O     0.0533210    6.4199740    1.0164880  
C    -0.6865950    4.1615650    0.6981970  
O    -1.9341060    4.7305070    0.8197180  
C    -0.4446570    2.8043300    0.5093990  
H     1.0758650    0.1828740    0.0866030  
H     4.0437530    3.0912320    0.7497190  
H     2.4792950    5.4701260    0.8689530  
H    -0.9180570    6.4905370    1.0062890  
H    -2.6259950    4.0862460    0.5985720  
C     4.0036540    0.4089790    0.1461740  
C     4.0363830   -0.9467160    0.3557750  
C     5.3583660   -1.4186120    0.0517870  
C     6.1319600   -0.2253760   -0.3679580  
N     5.2836290    0.8711540   -0.2273800  
C     7.4146110   -0.2584440   -0.7991650  
C     8.1079700   -1.5477810   -0.8202320  
O     9.2657460   -1.6676960   -1.1894130  
C     7.3237140   -2.8193630   -0.3312550  
O     7.8975090   -3.8998160   -0.3321520  
C     5.9367090   -2.6535270    0.0907900  
H     3.2217210   -1.5420830    0.7426830  
H     7.9644140    0.6235530   -1.1139910  
H     5.3973820   -3.5411110    0.4074580  
H     5.3857360    1.6810910   -0.8254940  
