64


C     4.7630460   -0.8161720   -0.3836400  
C     5.4311200   -1.6921940   -1.2128410  
C     6.8165170   -1.6767110   -0.8439510  
C     6.9484130   -0.7582230    0.2317150  
N     5.6951010   -0.2229210    0.4696780  
C     8.1719410   -0.4975800    0.8575710  
C     9.2904620   -1.1709220    0.3872370  
O    10.5104750   -0.9557690    0.9677610  
C     9.1817270   -2.0802590   -0.6953270  
O    10.3829460   -2.6674030   -1.0574660  
C     7.9699580   -2.3364620   -1.3124110  
H     4.9812610   -2.2442970   -2.0268610  
H     5.4330140    0.2656650    1.3126600  
H     8.2754540    0.1996780    1.6830920  
H    11.1509660   -1.5160350    0.4970100  
H    10.2290470   -3.2816980   -1.7900310  
H     7.9138620   -3.0408380   -2.1405930  
C     2.2956180   -1.3357630   -0.4979210  
C     3.3529480   -0.4755500   -0.2987980  
C     2.7675190    0.8127460    0.0104640  
C     1.3599370    0.6551680   -0.0406890  
N     1.1012350   -0.6564950   -0.3896300  
C     0.4509900    1.7188590    0.1751370  
C     1.0310720    2.9390660    0.5544050  
O     0.2459300    3.9928250    0.9071710  
C     2.4384290    3.1079680    0.5960740  
O     2.8314380    4.3875570    0.9492370  
C     3.3096970    2.0775570    0.3059930  
H     0.2239330   -1.0891250   -0.1178750  
H     0.8378960    4.7512660    1.0542260  
H     3.7918090    4.4672510    0.8534180  
H     4.3847340    2.2432570    0.3091890  
H     2.3110100   -2.3982630   -0.6959880  
C    -2.5268640   -1.3006290    1.4953640  
C    -3.7071840   -0.7474750    1.1064600  
C    -3.3059980    0.4992870    0.4198000  
C    -1.8147420    0.5295930    0.5197850  
N    -1.3808230   -0.5387210    1.1343550  
C    -1.0133240    1.6173260   -0.0241010  
C    -1.7148010    2.5552760   -0.7381510  
O    -1.1434660    3.5666820   -1.4083450  
C    -3.2057770    2.5521880   -0.8447250  
O    -3.7409780    3.4488180   -1.5009790  
C    -3.9857130    1.4787080   -0.1998360  
H    -1.8930330    4.0716310   -1.7951820  
H    -5.0660960    1.5143110   -0.2945310  
H    -2.3824370   -2.2382980    2.0183760  
C    -5.5000160   -1.7236740    2.5734050  
C    -5.0596980   -1.2187100    1.3648820  
C    -6.1914750   -1.2883320    0.4617250  
C    -7.2745350   -1.8397980    1.1916670  
N    -6.8191870   -2.0975370    2.4717310  
C    -8.5345830   -2.0697530    0.6269500  
C    -8.7063790   -1.7428280   -0.7089300  
O    -9.9149410   -1.9412150   -1.3081690  
C    -7.6285790   -1.2095370   -1.4648420  
O    -7.9483870   -0.9536450   -2.7837260  
C    -6.3852020   -0.9868610   -0.9020940  
H    -7.3823270   -2.4518130    3.2291520  
H    -9.3632850   -2.4905830    1.1871680  
H    -9.8283370   -1.6560120   -2.2342510  
H    -7.1830570   -0.5696620   -3.2366560  
H    -5.5729800   -0.5973600   -1.5110020  
H    -4.9670250   -1.8100040    3.5096100  
