64


C     5.3293920   -2.1038910    1.0506320  
C     6.6283480   -1.9455110    1.4506320  
C     7.0785780   -0.6827970    0.9379890  
C     5.9880020   -0.1107200    0.2305360  
N     4.9200510   -1.0014630    0.3059000  
C     6.0647240    1.1474300   -0.3879080  
C     7.2696110    1.8302640   -0.3019740  
O     7.3972280    3.0584020   -0.8849580  
C     8.3728250    1.2676420    0.3913540  
O     9.5020480    2.0658320    0.3858400  
C     8.2890900    0.0333590    1.0100160  
H     7.2013590   -2.6500620    2.0379410  
H     5.2219080    1.6058150   -0.8940430  
H     8.3015970    3.3682820   -0.7056300  
H    10.2055150    1.6326130    0.8912520  
H     9.1461040   -0.3725520    1.5444260  
H     4.6387550   -2.9194600    1.2093990  
C     0.8373930   -0.9025360    2.0406320  
C     2.1964510   -0.9550780    1.8864940  
C     2.4608630   -0.8648320    0.4788690  
C     1.2105110   -0.7561670   -0.1800930  
N     0.2201710   -0.7833170    0.7965930  
C     1.0917500   -0.5991830   -1.5654970  
C     2.2634830   -0.5703070   -2.3041250  
O     2.2117280   -0.4247150   -3.6598250  
C     3.5306390   -0.7077050   -1.6783270  
O     4.5953800   -0.7080880   -2.5506130  
C     3.6402560   -0.8510270   -0.2984890  
H     2.9245900   -1.0591050    2.6783060  
H     0.1342270   -0.5105930   -2.0641130  
H     3.1307770   -0.4185430   -3.9801220  
H     5.4269330   -0.6022020   -2.0583880  
H     0.2297370   -0.9793770    2.9314060  
C    -2.4053870    2.2944180    2.3647060  
C    -3.5736440    1.8363150    1.8114860  
C    -3.2548710    0.6676110    1.0365690  
C    -1.8585440    0.4657340    1.1815230  
N    -1.3651280    1.4713730    1.9824410  
C    -1.1732230   -0.6144230    0.6002010  
C    -1.9382060   -1.5214900   -0.1289200  
O    -1.3570750   -2.6066600   -0.6976010  
C    -3.3378430   -1.3374370   -0.2919840  
O    -3.9225560   -2.3174160   -1.0581700  
C    -4.0216660   -0.2421890    0.2469710  
H    -4.5487240    2.2799770    1.9465920  
H    -0.3959660    1.5714150    2.2437110  
H    -2.0898900   -3.1010720   -1.1157290  
H    -4.7647080   -2.5652230   -0.6082460  
H    -2.2255720    3.1444890    3.0074190  
C    -6.2755850    3.3148280   -1.1575100  
C    -5.3082810    2.4173360   -0.8329070  
C    -5.9660810    1.2060320   -0.3979860  
C    -7.4223360    1.4760710   -0.5021430  
N    -7.5407320    2.7778560   -0.9446740  
C    -8.4055540    0.5915570   -0.1918920  
C    -7.9995180   -0.7327270    0.2385290  
O    -8.7786980   -1.6063330    0.5857850  
C    -6.4625430   -1.0764310    0.2248230  
O    -6.1696970   -2.2628560    0.3662580  
C    -5.4666340   -0.0098620    0.0197480  
H    -4.2432090    2.5744040   -0.8926650  
H    -9.4641230    0.8273400   -0.2289940  
H    -6.1759180    4.3235550   -1.5358610  
H    -8.4127720    3.2281210   -1.1739170  
