62


C    -3.5069400    0.6273070   -0.0935500  
C    -3.1727380    1.6640290   -0.9671550  
C    -4.2022190    2.6314770   -0.8899930  
C    -5.1653700    2.1480510    0.0551400  
N    -4.7153350    0.9430280    0.5142230  
C    -6.3262680    2.8635340    0.3772710  
C    -6.5224920    4.0778750   -0.2574890  
O    -7.6306800    4.8148860    0.0146910  
C    -5.5724140    4.5767760   -1.2036890  
O    -5.9259890    5.7981110   -1.7374620  
C    -4.4309250    3.8777450   -1.5221350  
H    -2.2849190    1.7023220   -1.5832910  
H    -5.1480750    0.3203730    1.1826110  
H    -7.0603240    2.5041560    1.0903540  
H    -7.5881550    5.6204420   -0.5300480  
H    -5.2610270    6.0774450   -2.3843130  
H    -3.7208630    4.2742510   -2.2445930  
C    -2.8575320   -0.5955810    0.2389830  
C    -1.6744830   -1.1395150   -0.2179300  
C    -1.5310590   -2.3854590    0.4625910  
C    -2.7518560   -2.4747960    1.3340800  
N    -3.5197580   -1.4295870    1.2001140  
C    -3.0045980   -3.6087200    2.1787190  
C    -2.0927010   -4.6078480    2.1595320  
O    -2.1803560   -5.7217460    2.8931270  
C    -0.8369910   -4.5498460    1.3092520  
O    -0.0451920   -5.4816360    1.4647600  
C    -0.6036530   -3.4028130    0.4175730  
H    -0.9936430   -0.7156220   -0.9409610  
H    -3.8943610   -3.6461250    2.7971150  
H    -1.3570760   -6.2229270    2.6819620  
C     2.8575240   -0.5955550   -0.2390060  
C     1.6744770   -1.1394960    0.2179060  
C     1.5310670   -2.3854460   -0.4626030  
C     2.7518720   -2.4747810   -1.3340850  
N     3.5197620   -1.4295630   -1.2001250  
C     3.0046300   -3.6087130   -2.1787080  
C     2.0927420   -4.6078490   -2.1595160  
O     2.1804110   -5.7217540   -2.8930970  
C     0.8370240   -4.5498490   -1.3092460  
O     0.0452410   -5.4816550   -1.4647410  
C     0.6036700   -3.4028100   -0.4175790  
H     0.9936290   -0.7156000    0.9409280  
H     3.8943980   -3.6461180   -2.7970970  
H     1.3571330   -6.2229400   -2.6819320  
C     3.5069200    0.6273390    0.0935250  
C     3.1727200    1.6640510    0.9671410  
C     4.2021980    2.6315020    0.8899860  
C     5.1653480    2.1480870   -0.0551530  
N     4.7153060    0.9430760   -0.5142590  
C     6.3262440    2.8635760   -0.3772800  
C     6.5224680    4.0779090    0.2574960  
O     7.6306560    4.8149230   -0.0146750  
C     5.5723900    4.5768000    1.2037010  
O     5.9259620    5.7981310    1.7374840  
C     4.4309010    3.8777650    1.5221390  
H     2.2849000    1.7023380    1.5832780  
H     5.1480820    0.3203950   -1.1826010  
H     7.0602980    2.5042070   -1.0903670  
H     7.5881360    5.6204710    0.5300780  
H     5.2610280    6.0774340    2.3843770  
H     3.7208370    4.2742650    2.2445990  
