62


C     5.7009640   -0.7267190   -2.1051420  
C     5.3410030   -0.1042820   -0.9279390  
C     6.5195820   -0.1333040   -0.0825090  
C     7.5471190   -0.7834140   -0.8137490  
N     7.0156700   -1.1352880   -2.0382910  
C     8.8279760   -1.0013590   -0.2910000  
C     9.0772760   -0.5568160    0.9977730  
O    10.3089030   -0.7392930    1.5536800  
C     8.0576910    0.0854340    1.7514750  
O     8.4571780    0.4598630    3.0193140  
C     6.7937170    0.2978030    1.2342450  
H     7.5183290   -1.5969990   -2.7802040  
H     9.6152220   -1.4986720   -0.8483510  
H    10.2778340   -0.3683520    2.4525160  
H     7.7198570    0.8884940    3.4788110  
H     6.0269410    0.7823670    1.8337300  
H     5.1153990   -0.8865110   -2.9993330  
C     1.1971440   -1.7902750   -1.1225620  
C     2.5443580   -1.6057380   -1.1814870  
C     2.8146870   -0.2443290   -0.7981320  
C     1.5692900    0.3698350   -0.5247570  
N     0.5673050   -0.5965500   -0.7362440  
C     1.4704190    1.6728890   -0.0299270  
C     2.6540280    2.3739040    0.1490190  
O     2.6132680    3.6577870    0.6067700  
C     3.9061220    1.7845200   -0.1482000  
O     4.9812560    2.6232990    0.0561980  
C     4.0206030    0.4759640   -0.6206700  
H     3.2726710   -2.3486020   -1.4738300  
H     0.5287590    2.1616290    0.1811320  
H     3.5270230    3.9919810    0.6023310  
H     5.7871790    2.1883700   -0.2709200  
H     0.5946080   -2.6476910   -1.3814350  
C    -2.3237540   -3.1981130    1.2674910  
C    -1.1805240   -2.6372860    0.7970010  
C    -1.5583420   -1.4422150    0.0709280  
C    -3.0221840   -1.3549760    0.1475550  
N    -3.4290900   -2.4609620    0.8521670  
C    -3.8158680   -0.3212150   -0.3244960  
C    -3.1035120    0.7602800   -1.0267870  
O    -3.6428790    1.7033390   -1.5716740  
C    -1.5326220    0.6789820   -1.1591930  
O    -0.9675220    1.5434460   -1.7998830  
C    -0.8087930   -0.4714980   -0.5548570  
H    -0.1759090   -2.9969910    0.9566040  
H    -2.4616020   -4.0823530    1.8745610  
H    -4.3729540   -2.5637830    1.1999980  
C    -5.2482540   -0.2962380   -0.1415250  
C    -6.1240460   -1.3623720   -0.0684770  
C    -7.4232420   -0.7900410    0.1652750  
C    -7.1608270    0.6845880    0.2450290  
N    -5.9052830    0.9678210    0.0590140  
C    -8.2218940    1.6237520    0.5041260  
C    -9.4748460    1.1304420    0.6416650  
O   -10.5618880    1.8792780    0.8739480  
C    -9.7734670   -0.3504490    0.5436530  
O   -10.9503610   -0.6912170    0.6881480  
C    -8.6790970   -1.2872120    0.3003350  
H    -5.9217220   -2.4009400   -0.2948820  
H    -8.0051370    2.6841770    0.5672630  
H   -11.3061000    1.2361220    0.9201490  
H    -8.9284850   -2.3426560    0.2483630  
