62


C     4.6542350    3.0560870    1.5943890  
C     4.5356660    4.3904560    1.3070840  
C     3.3232100    4.5486750    0.5561390  
C     2.7576840    3.2556700    0.4046540  
N     3.5924310    2.3646530    1.0421510  
C     1.5273450    3.0266400   -0.2621330  
C     0.8565290    4.1663980   -0.7238180  
O    -0.3615120    4.0436910   -1.3401610  
C     1.4174590    5.4577020   -0.5865160  
O     0.6305680    6.4589610   -1.1257730  
C     2.6376070    5.6610010    0.0311820  
H     5.2237640    5.1708720    1.6009160  
H     3.3755940    1.3887800    1.2098210  
H    -0.6381740    4.9417790   -1.5965050  
H     1.0638440    7.3165860   -1.0048700  
H     3.0455130    6.6652930    0.1257770  
H     5.4186970    2.5278990    2.1465120  
C     1.0072370    1.6782490   -0.4162240  
C     1.7100140    0.4948420   -0.4522250  
C     0.7781130   -0.5848930   -0.4267420  
C    -0.5625020    0.0361270   -0.4565960  
N    -0.3525530    1.3999310   -0.4679320  
C    -1.7640020   -0.6277910   -0.4824180  
C    -1.6591790   -2.0975700   -0.4088870  
O    -2.6279410   -2.8396780   -0.4526680  
C    -0.2434810   -2.7767000   -0.2570650  
O    -0.2301770   -3.9727360   -0.0103420  
C     0.9666320   -1.9495750   -0.3649850  
H     2.7804250    0.3928190   -0.4906510  
H    -1.0783170    2.0992690   -0.4305380  
C     4.5619800   -1.4099590    2.2349560  
C     5.3143060   -2.4706760    1.8688140  
C     4.5638850   -3.1124670    0.7970870  
C     3.3242500   -2.2719290    0.6476790  
N     3.3507760   -1.2688470    1.4850060  
C     2.2785020   -2.6157020   -0.3123150  
C     2.5473240   -3.6913900   -1.1183740  
O     1.7288320   -4.0899680   -2.1006380  
C     3.7894600   -4.5189470   -1.0074370  
O     3.9310200   -5.4584880   -1.7911020  
C     4.7952280   -4.1824800    0.0158750  
H     6.2636540   -2.7944220    2.2721510  
H     2.1496570   -4.8897040   -2.4862600  
H     5.6777590   -4.8120850    0.0769830  
H     4.7700610   -0.6835930    3.0124480  
C    -3.2640220    1.1748430   -1.4161640  
C    -3.0518340    0.0506790   -0.6310590  
C    -4.3306000   -0.2488310   -0.0108070  
C    -5.2508300    0.7331800   -0.4539790  
N    -4.5715890    1.5817250   -1.3091990  
C    -6.5879830    0.7748200   -0.0396550  
C    -7.0091080   -0.2034760    0.8460520  
O    -8.3023580   -0.2242520    1.2795620  
C    -6.1020720   -1.1950380    1.3054270  
O    -6.6670890   -2.1042040    2.1807220  
C    -4.7836230   -1.2269600    0.8966110  
H    -4.9870120    2.3407860   -1.8262390  
H    -7.2891000    1.5271220   -0.3864310  
H    -8.3943620   -1.0012460    1.8583000  
H    -6.0442030   -2.8311050    2.3311850  
H    -4.1212930   -2.0152480    1.2372760  
H    -2.5852680    1.6814310   -2.0881720  
