62


C    -5.0711410    0.0074820   -0.1041050  
C    -5.9307820    1.0502720   -0.4779250  
C    -7.2538290    0.6187540   -0.2457080  
C    -7.1790170   -0.7110470    0.2775680  
N    -5.8574120   -1.0502000    0.3523730  
C    -8.3183430   -1.4482650    0.6214770  
C    -9.5485140   -0.8384910    0.4360090  
O   -10.6877330   -1.5037260    0.7511600  
C    -9.6441220    0.4915280   -0.0861190  
O   -10.9439940    0.9355700   -0.2027370  
C    -8.5261870    1.2166780   -0.4239530  
H    -5.5955850    1.9969460   -0.8707090  
H    -5.4672750   -1.9258370    0.6712920  
H    -8.2724060   -2.4565710    1.0185750  
H   -11.4371510   -0.9150340    0.5512160  
H   -10.9526050    1.8350570   -0.5627100  
H    -8.6154820    2.2258490   -0.8196400  
C    -2.0970510    2.9399130   -1.4615530  
C    -0.9405910    2.2903780   -1.1952750  
C    -1.3385680    1.0057740   -0.6280490  
C    -2.8208030    1.0552670   -0.6278650  
N    -3.2547730    2.1881730   -1.1038430  
C    -3.6394370   -0.0646960   -0.1374740  
C    -2.9175250   -1.1743450    0.2556610  
O    -3.5201870   -2.3212270    0.6942260  
C    -1.4720340   -1.2625300    0.2018500  
O    -0.9605160   -2.3706760    0.5086910  
C    -0.6415560   -0.0798210   -0.1836990  
H     0.0699960    2.6241150   -1.3757510  
H    -2.7766820   -2.9423040    0.8584370  
H    -2.2332970    3.9187240   -1.9041340  
C     2.1992640    2.7927580    1.7385060  
C     1.0792150    2.1430820    1.2952070  
C     1.5180710    0.9829550    0.5705840  
C     2.9365090    0.9909050    0.6109920  
N     3.3230050    2.1160300    1.3042250  
C     3.7436620   -0.0374370    0.0659970  
C     3.0324610   -1.1345020   -0.4441260  
O     3.6916900   -2.2177130   -0.9474770  
C     1.6181790   -1.1743590   -0.4879380  
O     1.1321910   -2.3167530   -1.0712910  
C     0.8279570   -0.1067320   -0.0424540  
H     0.0599450    2.4546670    1.4652740  
H     4.2630000    2.2768900    1.6334490  
H     2.9881500   -2.8442240   -1.2173120  
H     0.3516370   -2.6003420   -0.5311950  
H     2.2957370    3.6954100    2.3247230  
C     5.1971950    0.0363690    0.0629510  
C     6.0168630    1.1435410    0.1357330  
C     7.3817690    0.6949340    0.0842050  
C     7.3208750   -0.7845010   -0.0231400  
N     5.9839150   -1.1150470   -0.0117170  
C     8.4096410   -1.5907980   -0.1107750  
C     9.7330250   -0.9752400   -0.0963070  
O    10.7686250   -1.6201790   -0.1706490  
C     9.8216730    0.5914870    0.0221330  
O    10.9238830    1.1207870    0.0394330  
C     8.5761290    1.3511330    0.1078740  
H     5.6995120    2.1755090    0.1231710  
H     8.3462220   -2.6716490   -0.1903810  
H     8.6501120    2.4317870    0.1859370  
H     5.5934350   -2.0230310   -0.2200470  
