60


C     0.5703300   -2.2427730   -2.5761880  
C     1.4407720   -1.3215020   -2.0514650  
C     2.1240710   -1.9481890   -0.9519140  
C     1.6204460   -3.2734190   -0.8707870  
N     0.6591870   -3.4165570   -1.8531330  
C     2.0939220   -4.2167850    0.0472040  
C     3.1264910   -3.8151030    0.8805520  
O     3.6501270   -4.6831890    1.7856480  
C     3.6690580   -2.5027210    0.8160760  
O     4.6700610   -2.2860780    1.7271050  
C     3.1646150   -1.5298460   -0.0594570  
H     1.5813590   -0.3159030   -2.4179600  
H     0.2143470   -4.2857390   -2.1029810  
H     1.7213940   -5.2352590    0.0975930  
H     4.3870460   -4.2013700    2.2104790  
H     5.3636390   -1.7476750    1.2696340  
H    -0.1110590   -2.1593070   -3.4110220  
C     1.0222300    2.3729220   -0.0527060  
C     1.4017150    1.0416320    0.0531810  
C     2.8092680    0.9540690   -0.1148370  
C     3.2824520    2.3453260   -0.3095060  
N     2.1618940    3.1424500   -0.2918430  
C     4.5819560    2.6989480   -0.4828240  
C     5.5765820    1.6428680   -0.4337430  
O     6.7712330    1.8253000   -0.6087540  
C     5.0984540    0.1793070   -0.1034410  
O     5.9876140   -0.6381980    0.1457830  
C     3.6657820   -0.1398230   -0.0897170  
H     0.7540040    0.2147550    0.2806360  
H     4.9104710    3.7161540   -0.6680870  
H     2.1331070    4.1534430   -0.2842610  
C    -3.1772670    0.7486580    0.0843240  
C    -1.8009730    0.8491420   -0.1038570  
C    -1.4718970    2.2137390    0.0993680  
C    -2.7892060    2.8611760    0.4067280  
N    -3.7736320    2.0094570    0.3998790  
C    -2.9008800    4.2679590    0.6721140  
C    -1.7758570    5.0142960    0.5827350  
O    -1.7451990    6.3416340    0.7646810  
C    -0.4334870    4.4109290    0.2598810  
O     0.5081070    5.2125860    0.1754280  
C    -0.2916830    2.9503950    0.0840870  
H    -1.1508690    0.0707190   -0.4702250  
H    -3.8666630    4.7034310    0.9019590  
H    -0.8091720    6.6067470    0.6272740  
C    -2.3551930   -3.5327970    0.9890530  
C    -2.2407660   -2.1868590    0.7801640  
C    -3.5227600   -1.7005560    0.3537380  
C    -4.4165020   -2.8780220    0.3467210  
N    -3.6365300   -3.9628660    0.7105240  
C    -5.7482730   -2.8554320    0.0793660  
C    -6.3638340   -1.5704020   -0.2309380  
O    -7.5643290   -1.4336930   -0.4005280  
C    -5.4278510   -0.3219790   -0.3825940  
O    -5.8898650    0.6659990   -0.9156510  
C    -3.9963520   -0.4301670    0.0393950  
H    -1.3436920   -1.6101320    0.9317410  
H    -6.3820660   -3.7360910    0.1227770  
H    -1.6010630   -4.2343230    1.3205590  
H    -3.9913670   -4.8916740    0.8799050  
