62


C    -1.8947660    2.6824120   -0.5413850  
C    -0.8003300    1.9516580   -0.0965040  
C    -1.2961290    0.6229100    0.2171550  
C    -2.6814300    0.6282870   -0.0710520  
N    -3.0059870    1.8973680   -0.5216360  
C    -3.5420610   -0.4741180    0.1231040  
C    -2.9347550   -1.6278110    0.6266370  
O    -3.6710000   -2.7520290    0.8212650  
C    -1.5494810   -1.6493440    0.9462680  
O    -1.1278360   -2.8559250    1.4557670  
C    -0.7312830   -0.5496970    0.7595390  
H    -3.9201250    2.1585800   -0.8627490  
H    -3.0739500   -3.4373960    1.1704080  
H    -0.1709760   -2.8443890    1.6089200  
H     0.3092070   -0.6019860    1.0707370  
H    -1.9348780    3.6990670   -0.9051310  
C     0.5403970    2.4629930   -0.0086780  
C     1.0168820    3.7467550    0.1039880  
C     2.4482680    3.6935700    0.1580430  
C     2.8158690    2.2616770    0.0436400  
N     1.6389720    1.5814020   -0.0531980  
C     4.1041160    1.7622380    0.0535170  
C     5.1654120    2.7418570    0.3466710  
O     6.3269390    2.4281870    0.5833930  
C     4.8070480    4.2697510    0.3775550  
O     5.7237510    5.0715660    0.4766270  
C     3.4070560    4.6550310    0.2995720  
H     0.4143170    4.6376310    0.2043790  
H     3.1702330    5.7125850    0.3596610  
H     1.5678070    0.5802350   -0.1382550  
C     4.4069520    0.3545870   -0.1265560  
C     3.6623360   -0.6542770   -0.7143960  
C     4.4230120   -1.8697320   -0.6398800  
C     5.6939080   -1.5143610    0.0418250  
N     5.6117730   -0.1704360    0.3323990  
C     6.6944210   -2.3950230    0.2983700  
C     6.5194710   -3.7854330   -0.1132160  
O     7.3640130   -4.6474550    0.0794890  
C     5.1781520   -4.1852580   -0.8324730  
O     5.0141650   -5.3492260   -1.1719510  
C     4.1794740   -3.1451250   -1.0585700  
H     2.7421380   -0.5395660   -1.2689160  
H     7.6188500   -2.1175910    0.7951400  
H     3.2617200   -3.4307540   -1.5646710  
H     6.3504300    0.4397100    0.6640440  
C    -7.2188870   -0.9614980    2.6915570  
C    -5.9278420   -0.9247740    2.2356020  
C    -5.9815730   -0.5909710    0.8411340  
C    -7.3541340   -0.4311650    0.5058950  
N    -8.0829180   -0.6629850    1.6532780  
C    -7.7931390   -0.0884460   -0.7776340  
C    -6.8236730    0.0961170   -1.7509080  
O    -7.1888740    0.4153830   -3.0268190  
C    -5.4491900   -0.0433800   -1.4356280  
O    -4.5974280    0.2001940   -2.5079350  
C    -4.9992940   -0.3823660   -0.1596440  
H    -5.0421780   -1.1239340    2.8204350  
H    -9.0879610   -0.6320980    1.7203520  
H    -8.8418210    0.0210280   -1.0345270  
H    -6.3751700    0.4140980   -3.5611430  
H    -3.7759000   -0.3000360   -2.3722940  
H    -7.6033070   -1.1805750    3.6777280  
