60


C    -5.0062070   -1.6400200    2.6345170  
C    -4.5988580   -1.2017900    1.3844140  
C    -5.7740910   -1.2547170    0.5356410  
C    -6.8435980   -1.7266230    1.3364330  
N    -6.3397690   -1.9528130    2.6063370  
C    -8.1373150   -1.9254710    0.8429090  
C    -8.3596930   -1.6485780   -0.4972360  
O    -9.6012430   -1.8196400   -1.0285820  
C    -7.2971970   -1.1970540   -1.3252680  
O    -7.6691940   -0.9858230   -2.6363780  
C    -6.0198850   -1.0051070   -0.8303020  
H    -6.8831210   -2.2487540    3.4028940  
H    -8.9541750   -2.2868410    1.4589750  
H    -9.5509620   -1.5823250   -1.9708640  
H    -6.9102760   -0.6684880   -3.1479870  
H    -5.2227280   -0.6818860   -1.4950690  
H    -4.4358200   -1.7089250    3.5498250  
C    -2.0692240   -1.3362050    1.5047280  
C    -3.2439300   -0.8017230    1.0602180  
C    -2.8204680    0.3645220    0.2438120  
C    -1.3413120    0.3447650    0.3208300  
N    -0.9157040   -0.6442240    1.0561410  
C    -0.5330240    1.3482920   -0.3499720  
C    -1.1877920    2.3103930   -1.0677790  
O    -0.5687990    3.2654590   -1.7840290  
C    -2.6732780    2.3704340   -1.1134880  
O    -3.1897380    3.2644690   -1.7889910  
C    -3.4715310    1.3493080   -0.4020970  
H    -1.2959750    3.8030720   -2.1720860  
H    -4.5516520    1.4367780   -0.4584420  
H    -1.9396500   -2.2137500    2.1255210  
C     1.6143730    0.1385960   -0.3381180  
C     2.9562400    0.3582820   -0.1378820  
C     3.0986930    1.7856150    0.1577450  
C     1.7338650    2.3562240    0.1114060  
N     0.8705230    1.2974240   -0.2283650  
C     1.4275110    3.6408360    0.4053080  
C     2.5212990    4.5518360    0.7510090  
O     2.3347890    5.7252810    1.0307590  
C     3.9811520    3.9814510    0.7579330  
O     4.9075070    4.7307510    1.0222300  
C     4.1732240    2.5572900    0.4588460  
H     0.4227440    4.0408140    0.3838780  
H     5.1736550    2.1445150    0.4974730  
H     1.1083150   -0.7883790   -0.5597120  
C     3.9827240   -0.6442580   -0.2145310  
C     3.8591060   -1.9949900   -0.4531420  
C     5.1901380   -2.5228050   -0.4250940  
C     6.0577090   -1.3243740   -0.1472880  
N     5.3507230   -0.2395090   -0.0260350  
C     7.4880740   -1.4348100   -0.0405750  
C     8.0300410   -2.6652080   -0.1990690  
O     9.3388420   -2.9295900   -0.1285680  
C     7.1823740   -3.8951070   -0.4793650  
O     7.7898390   -4.9613920   -0.6046710  
C     5.7359650   -3.7582770   -0.5836770  
H     2.9519270   -2.5589730   -0.6204120  
H     8.0912960   -0.5563880    0.1596500  
H     9.4085860   -3.9004090   -0.2849650  
H     5.1608920   -4.6566880   -0.7845830  
