62


C     3.1300290   -0.1686520   -0.2143930  
C     3.0437220   -1.5144200   -0.5135240  
C     4.3756380   -2.0286410   -0.6067770  
C     5.2556300   -0.9434450   -0.3491480  
N     4.4756600    0.1661970   -0.0896270  
C     6.6486000   -1.0782890   -0.3649960  
C     7.1662910   -2.3341280   -0.6423150  
O     8.5173660   -2.5206660   -0.6749880  
C     6.3023320   -3.4347500   -0.8918480  
O     6.9695490   -4.6187650   -1.1454660  
C     4.9271600   -3.2988080   -0.8744890  
H     2.1239700   -2.0754100   -0.6131660  
H     4.8181350    1.1142380   -0.0481570  
H     7.3234670   -0.2509530   -0.1711460  
H     8.6743060   -3.4576080   -0.8836690  
H     6.3263100   -5.3194680   -1.3273670  
H     4.2874860   -4.1572520   -1.0709820  
C     0.8824870    0.8405820   -0.7026320  
C     2.0831450    0.8235270   -0.0519950  
C     2.0911280    1.9977950    0.8171910  
C     0.8009090    2.6929440    0.5953040  
N     0.0919050    1.9291590   -0.3323260  
C     0.4209250    3.8201950    1.2442360  
C     1.3374440    4.4073720    2.2194010  
O     1.0777560    5.4200820    2.8506460  
C     2.7072470    3.6840840    2.4754820  
O     3.4838030    4.1492240    3.2948100  
C     2.9943680    2.4601210    1.7213940  
H    -0.5273830    4.3153940    1.0712740  
H     3.9236270    1.9455400    1.9434990  
H     0.5172180    0.1622310   -1.4616860  
C    -3.6316280   -0.4114090   -0.3351620  
C    -2.3516470    0.0639340   -0.1027100  
C    -2.2142730    1.3170180   -0.7781680  
C    -3.5078010    1.5713020   -1.4498680  
N    -4.3037030    0.4830320   -1.1649000  
C    -3.8001270    2.6831760   -2.1720410  
C    -2.7723650    3.7076890   -2.3108700  
O    -2.9501930    4.7597060   -2.9040510  
C    -1.3608890    3.4459320   -1.6654830  
O    -0.4644650    4.2516000   -1.8535540  
C    -1.1805230    2.2163410   -0.8765280  
H    -1.6286920   -0.3550040    0.5795270  
H    -4.7627260    2.8523530   -2.6437430  
H    -5.2943360    0.4116160   -1.3488100  
C    -1.8801620   -4.1901140    1.1620100  
C    -3.0526580   -4.8053370    1.5048980  
C    -4.1143080   -3.9024060    1.1631890  
C    -3.5157150   -2.7337340    0.6239640  
N    -2.1538700   -2.9341900    0.6468880  
C    -4.2680530   -1.6239650    0.1538770  
C    -5.6656110   -1.7757320    0.2106730  
O    -6.4906670   -0.7808350   -0.2386870  
C    -6.2681220   -2.9347260    0.7522010  
O    -7.6477870   -2.8881950    0.7401730  
C    -5.5162820   -3.9878900    1.2362610  
H    -3.1543420   -5.7867010    1.9464560  
H    -1.4817350   -2.3396720    0.1879380  
H    -7.4073620   -1.0697510   -0.0760190  
H    -8.0115260   -3.6687750    1.1834700  
H    -6.0020090   -4.8694090    1.6486860  
H    -0.8585970   -4.5313470    1.2497840  
