60


C     5.5226700   -0.2907860   -2.5418900  
C     6.7926430   -0.7641560   -2.3882390  
C     6.9054440   -1.2970960   -1.0546690  
C     5.6542180   -1.1225230   -0.4187410  
N     4.8195230   -0.5069070   -1.3512340  
C     5.3936270   -1.5257970    0.8932690  
C     6.4354700   -2.1256150    1.5858330  
O     6.2442980   -2.5394860    2.8681590  
C     7.7029450   -2.3134640    0.9698430  
O     8.6296810   -2.9242020    1.7886410  
C     7.9467150   -1.9100540   -0.3299970  
H     7.5690290   -0.7390510   -3.1406270  
H     4.4328590   -1.3863530    1.3763070  
H     7.0830890   -2.9212190    3.1804120  
H     9.4768040   -3.0022940    1.3253600  
H     8.9245240   -2.0642640   -0.7813800  
H     5.0292460    0.1856280   -3.3764090  
C     2.4111440   -0.9293090   -1.4167430  
C     1.2643340   -0.2468600   -1.1385750  
C     1.6292480    1.0588890   -0.6534480  
C     3.1014250    1.1071750   -0.6813610  
N     3.5208580   -0.1457090   -1.1286970  
C     3.8772480    2.1663100   -0.3380830  
C     3.2013690    3.3878460    0.0636070  
O     3.7830730    4.4036250    0.4083160  
C     1.6314160    3.4075530    0.0368060  
O     1.0896370    4.4890540    0.2289760  
C     0.8820510    2.1519550   -0.2247100  
H     0.2679010   -0.6206120   -1.3083910  
H     4.9610650    2.1382520   -0.3509840  
H     2.5563640   -1.9264660   -1.8091330  
C    -0.5508340    2.1266840   -0.0376630  
C    -1.4186680    1.0470590    0.0874450  
C    -2.7379680    1.5440230    0.2882050  
C    -2.6195730    3.0179750    0.2710010  
N    -1.2882020    3.2995760    0.0883800  
C    -3.6546380    3.8908480    0.4059650  
C    -4.9891080    3.3451260    0.5417470  
O    -5.9966190    4.0275210    0.6548940  
C    -5.1626530    1.7794200    0.5280670  
O    -6.3012650    1.3449290    0.5957560  
C    -3.9646760    0.9024730    0.4538250  
H    -1.1360160    0.0096430    0.0676090  
H    -3.5283380    4.9685490    0.4023380  
H    -0.8392730    4.2072500    0.1119780  
C    -3.1526620   -1.3695460    1.1826800  
C    -4.0815350   -0.5311870    0.6038280  
C    -5.1570940   -1.4653520    0.1665150  
C    -4.6519010   -2.8074330    0.5626900  
N    -3.4900000   -2.7280510    1.1678060  
C    -5.3821220   -4.0141960    0.2996540  
C    -6.5661590   -3.9089000   -0.3529580  
O    -7.3508460   -4.9492330   -0.6728970  
C    -7.0992720   -2.5752580   -0.7850930  
O    -8.1726510   -2.5552380   -1.3856270  
C    -6.3325900   -1.3452660   -0.4806150  
H    -4.9770100   -4.9696350    0.6141050  
H    -8.1249890   -4.5571310   -1.1347750  
H    -6.7765050   -0.4022960   -0.7715680  
H    -2.2395320   -1.0713640    1.6824590  
