62


C    -5.7218230   -1.4399400    2.7856040  
C    -4.6756510   -0.7609200    2.2205530  
C    -4.7694420   -0.9341550    0.7985550  
C    -5.9214680   -1.7316100    0.5619610  
N    -6.4743250   -2.0332730    1.7885250  
C    -6.3644680   -2.0835990   -0.7174250  
C    -5.6388690   -1.5938070   -1.7902440  
O    -6.0194450   -1.8813660   -3.0670650  
C    -4.4936720   -0.7796240   -1.5923370  
O    -3.8704860   -0.4000440   -2.7659510  
C    -4.0183610   -0.4568210   -0.3139480  
H    -3.9132450   -0.2199500    2.7594180  
H    -7.3124520   -2.5740610    1.9299360  
H    -7.2432560   -2.6967450   -0.8903350  
H    -5.3741320   -1.4213790   -3.6370950  
H    -3.7163540    0.5677140   -2.7239090  
H    -5.9943920   -1.5600320    3.8246220  
C    -0.4061010   -1.1350740    2.1282140  
C     0.3228530   -0.0200650    1.8832720  
C    -0.4651750    0.7501460    0.9232200  
C    -1.7032550   -0.0635310    0.7367880  
N    -1.6513770   -1.1642630    1.4287390  
C    -2.7957980    0.3550240   -0.1465770  
C    -2.5497960    1.5063800   -0.8321940  
O    -3.4250080    2.0353450   -1.7376000  
C    -1.3052160    2.3123260   -0.7175740  
O    -1.1939160    3.2825740   -1.4675700  
C    -0.2369380    1.9063180    0.2503210  
H     1.2778700    0.2627260    2.3027250  
H    -2.9638450    2.8364710   -2.0812470  
H    -0.1546420   -1.9721130    2.7683140  
C     3.9961860    0.7729410   -0.4491930  
C     4.5375700    2.0283860   -0.2635270  
C     3.4665000    2.9189990    0.0647420  
C     2.2737390    2.1495850    0.0714210  
N     2.6234450    0.8533250   -0.2355250  
C     0.9990110    2.7059490    0.3217880  
C     0.9668270    4.0735920    0.6107720  
O    -0.2138760    4.6639820    0.9338370  
C     2.1551320    4.8483150    0.6288360  
O     1.9409270    6.1753050    0.9454230  
C     3.3914440    4.2955620    0.3564070  
H     5.5907760    2.2699200   -0.3089390  
H     1.9707050    0.0995180   -0.3885340  
H    -0.0431470    5.6155430    1.0457720  
H     2.7777240    6.6608480    0.9003830  
H     4.2868840    4.9134730    0.3718100  
C     5.7072790   -0.6487990   -1.6255090  
C     4.6368110   -0.4860820   -0.7927460  
C     4.3047950   -1.8182830   -0.2861860  
C     5.2775550   -2.7549870   -0.9031800  
N     6.1082070   -1.9773140   -1.6854750  
C     5.2950290   -4.0956300   -0.6921420  
C     4.3075650   -4.6708880    0.2170090  
O     4.2452170   -5.8648130    0.4661550  
C     3.2896000   -3.6941290    0.9094110  
O     2.4729840   -4.1443670    1.6970460  
C     3.3630240   -2.2648560    0.5849170  
H     6.0138290   -4.7632610   -1.1573220  
H     2.6487830   -1.6119590    1.0754430  
H     6.2302130    0.1023820   -2.2020910  
H     6.8365360   -2.3356790   -2.2830610  
