60


C     4.4463080   -3.9970210   -1.2145760  
C     3.8058490   -2.8188680   -0.9296280  
C     4.7237130   -2.0059840   -0.1806210  
C     5.9218710   -2.7556300   -0.0479420  
N     5.7207020   -3.9648310   -0.6817950  
C     7.0566570   -2.2662540    0.6089970  
C     6.9778700   -0.9923700    1.1465190  
O     8.0510240   -0.4667800    1.8045990  
C     5.7882590   -0.2251630    1.0371900  
O     5.8755850    0.9987590    1.6724470  
C     4.6536480   -0.7020570    0.3805970  
H     2.8014330   -2.5601200   -1.2331030  
H     6.4055420   -4.6998630   -0.7617450  
H     7.9755350   -2.8351340    0.7069670  
H     7.7998090    0.4279190    2.0931000  
H     5.0828200    1.5280810    1.4952660  
H     4.0997030   -4.8640980   -1.7587900  
C     2.1613410   -0.3219470    0.6243090  
C     3.4170940    0.0978350    0.2973340  
C     3.2728500    1.4773040   -0.1643120  
C     1.8325350    1.8131420   -0.0607510  
N     1.1968850    0.6748930    0.4307470  
C     1.2955570    3.0100640   -0.4015580  
C     2.1849520    4.0535130   -0.9090440  
O     1.7912340    5.1641600   -1.2284340  
C     3.7133680    3.7168640   -1.0480870  
O     4.4702350    4.5670290   -1.4876010  
C     4.1713830    2.3829230   -0.6415360  
H     0.2363380    3.2300550   -0.3204610  
H     5.2254770    2.1546220   -0.7660530  
H     1.8519530   -1.2837870    1.0110870  
C    -0.9342440    0.9558040    1.6663100  
C    -0.1903520    0.5122540    0.6154390  
C    -1.0956190   -0.1592020   -0.3018380  
C    -2.4432030   -0.0538900    0.3117200  
N    -2.2736450    0.6735320    1.4761550  
C    -3.6123870   -0.5476990   -0.2366780  
C    -3.4221140   -1.2746720   -1.5080330  
O    -4.3413240   -1.7889140   -2.1372500  
C    -1.9904300   -1.4071090   -2.1571370  
O    -1.8977440   -2.0148870   -3.2100300  
C    -0.8632070   -0.7834900   -1.4834010  
H     0.1194360   -0.8475320   -1.9393470  
H    -0.6072110    1.4787490    2.5555280  
H    -2.9319720    0.5395450    2.2412030  
C    -7.6114320    0.2874590   -2.0189630  
C    -8.3597560    0.3529530   -0.8928680  
C    -7.4737700    0.0848860    0.2187160  
C    -6.1176960   -0.1319260   -0.3658840  
N    -6.2699680    0.0417620   -1.7178840  
C    -4.9632490   -0.3932980    0.3592480  
C    -5.1661620   -0.4957080    1.8102860  
O    -4.2587640   -0.6923830    2.6175910  
C    -6.6023960   -0.3250750    2.4343160  
O    -6.7190110   -0.4557240    3.6409780  
C    -7.7112980    0.0027820    1.5515440  
H    -9.4167940    0.5639620   -0.8246130  
H    -8.6931920    0.1503770    1.9897030  
H    -7.9069800    0.4097880   -3.0525340  
H    -5.6252390   -0.4026700   -2.3631810  
