62


C     4.6051640   -0.8139180   -2.3154450  
C     4.6469740   -0.4978410   -0.9702970  
C     5.4806480   -1.5000630   -0.3450330  
C     5.9062510   -2.3876790   -1.3640810  
N     5.3550980   -1.9462380   -2.5519710  
C     6.7227950   -3.4979830   -1.1125500  
C     7.1176260   -3.7135320    0.1975920  
O     7.9169520   -4.7752300    0.5020100  
C     6.6968850   -2.8353190    1.2336870  
O     7.1733590   -3.1844100    2.4829620  
C     5.8887340   -1.7445630    0.9812140  
H     5.5358080   -2.3439090   -3.4604210  
H     7.0501550   -4.1785910   -1.8917820  
H     8.0843650   -4.7444640    1.4599080  
H     6.8838040   -2.5280300    3.1337300  
H     5.5931490   -1.0764530    1.7851230  
H     4.1439340   -0.2770570   -3.1333830  
C     0.4383250    0.5628240   -1.2496070  
C     0.4309590    1.7269210   -0.4732720  
C     1.8078620    1.9176610   -0.0347630  
C     2.5608520    0.8465990   -0.5698810  
N     1.6936120    0.0563900   -1.3112460  
C     3.9332800    0.6255140   -0.3393480  
C     4.5453390    1.5485830    0.5131380  
O     5.8726570    1.4381110    0.8001440  
C     3.8092230    2.6206640    1.0786710  
O     4.5690020    3.4404350    1.8895310  
C     2.4670790    2.8234140    0.8173100  
H     1.9833530   -0.7739400   -1.8089670  
H     6.1092020    2.2042120    1.3527780  
H     4.0519240    4.2213000    2.1377920  
H     1.9465420    3.6735140    1.2422180  
H    -0.3726640    0.1190600   -1.8078320  
C    -3.8911290    0.6527440   -0.0551600  
C    -2.5204020    0.5603580   -0.0970010  
C    -2.0394380    1.9177440   -0.1618160  
C    -3.2671180    2.7383890   -0.1302730  
N    -4.3475560    2.0023050   -0.0811300  
C    -3.2301280    4.1799320   -0.1382140  
C    -2.0164150    4.7720870   -0.1396520  
O    -1.8280680    6.1034010   -0.1080150  
C    -0.7394470    3.9760810   -0.1562900  
O     0.3061960    4.6248540   -0.1259000  
C    -0.7802200    2.4802690   -0.2370900  
H    -1.9240830   -0.3382530   -0.0346200  
H    -4.1516300    4.7510440   -0.1201330  
H    -0.8543370    6.2283040   -0.1218190  
C    -4.8830510   -0.3839890    0.0294630  
C    -4.7710020   -1.7564780    0.0730000  
C    -6.0956030   -2.3016050    0.1558670  
C    -7.0244360   -1.1381050    0.1578160  
N    -6.2284170   -0.0198690    0.0787800  
C    -8.3769110   -1.2412260    0.2263370  
C    -8.9713810   -2.5712040    0.3021460  
O   -10.1777070   -2.7599050    0.3661230  
C    -8.0092670   -3.8162830    0.3005250  
O    -8.4942100   -4.9378410    0.3627030  
C    -6.5701200   -3.5797280    0.2240790  
H    -3.8497000   -2.3204060    0.0483360  
H    -9.0398870   -0.3815550    0.2271430  
H    -5.9161880   -4.4467130    0.2247620  
H    -6.5199240    0.9468940    0.0632420  
