60


C     5.1329730    2.4239280    1.8677290  
C     4.5589010    1.1955670    1.6548620  
C     5.2186060    0.6033000    0.5221430  
C     6.2065620    1.5325410    0.0990860  
N     6.1183830    2.6349850    0.9258610  
C     7.0960710    1.2788260   -0.9494370  
C     6.9980920    0.0420830   -1.5663370  
O     7.8449530   -0.2887990   -2.5767490  
C     6.0196370   -0.9115120   -1.1702850  
O     6.0518610   -2.0703390   -1.9074610  
C     5.0919650   -0.6460910   -0.1584210  
H     3.7757860    0.7588720    2.2574170  
H     6.7260300    3.4381000    0.8860450  
H     7.8564450    1.9855260   -1.2657510  
H     7.6151630   -1.2071700   -2.8187650  
H     5.9224150   -2.8167030   -1.2742730  
H     4.9235560    3.1682880    2.6228870  
C     0.7727580    0.0414640    0.2997520  
C     0.3968000   -1.2188610    0.7295660  
C     1.5634670   -2.0478800    0.7488900  
C     2.6914250   -1.1901710    0.3148040  
N     2.1488060    0.0421850    0.0561090  
C     4.0042180   -1.5890010    0.1950760  
C     4.2332430   -3.0187120    0.4096460  
O     5.2924100   -3.5897730    0.1440590  
C     3.0827690   -3.9228460    0.9859990  
O     3.3506920   -5.0712730    1.3034480  
C     1.7449780   -3.3567840    1.0899160  
H    -0.5887730   -1.5178170    1.0478250  
H     0.9434590   -3.9946960    1.4483030  
H     2.6692500    0.8861800   -0.1495660  
C    -3.6492580    0.8777360   -0.0094380  
C    -2.4310110    0.2114940    0.0144110  
C    -1.4304450    1.2206310    0.0731190  
C    -2.2143770    2.5025100    0.0620350  
N    -3.4989090    2.2952310    0.0308970  
C    -1.5741780    3.7874530    0.0761080  
C    -0.2220010    3.8130870    0.0495000  
O     0.5040130    4.9384290    0.0195130  
C     0.6039830    2.5535910    0.0331210  
O     1.8259010    2.7117290   -0.0650010  
C    -0.0458040    1.2238310    0.1347240  
H    -2.2809280   -0.8543570   -0.0590140  
H    -2.1712730    4.6921920    0.0785580  
H     1.4420190    4.6496730   -0.0281780  
C    -4.9554190    0.2915050   -0.0815850  
C    -5.2648480   -1.0522570   -0.1215160  
C    -6.7015670   -1.1207030   -0.1934490  
C    -7.1365650    0.3128540   -0.1869590  
N    -6.1256880    1.1265650   -0.1218110  
C    -8.5305640    0.6726360   -0.2482600  
C    -9.4391820   -0.3296610   -0.3119600  
O   -10.7643080   -0.1408310   -0.3729290  
C    -9.0301520   -1.7826320   -0.3199890  
O    -9.9251100   -2.6248010   -0.3796700  
C    -7.6022410   -2.1303920   -0.2570760  
H    -4.5829500   -1.8911030   -0.1014490  
H    -8.8218360    1.7169150   -0.2423740  
H   -11.1571960   -1.0412410   -0.4096970  
H    -7.3456330   -3.1853650   -0.2656810  
