60


C     2.6994120   -1.1301010   -0.1644240  
C     3.4281750   -0.0118040    0.2655570  
C     4.8051170   -0.3236960    0.1475840  
C     4.8883650   -1.6555290   -0.3613270  
N     3.6087480   -2.1076760   -0.5420610  
C     6.1100780   -2.2959530   -0.5977750  
C     7.2656900   -1.5852890   -0.3152900  
O     8.4801360   -2.1561390   -0.5236050  
C     7.2025500   -0.2518550    0.1959030  
O     8.4435970    0.3057940    0.4193930  
C     6.0006930    0.3790910    0.4276850  
H     3.0265090    0.8938840    0.6964080  
H     3.3008970   -3.0388930   -0.7966470  
H     6.1800420   -3.3075050   -0.9827410  
H     9.1582460   -1.5081440   -0.2632450  
H     8.3417930    1.1993890    0.7794330  
H     5.9740630    1.3945690    0.8170240  
C    -0.7175590    1.6392700   -0.0008850  
C    -1.7265820    0.6950060    0.0479890  
C    -1.1360220   -0.6002620   -0.0766100  
C     0.3126860   -0.3793510   -0.1553420  
N     0.5030750    0.9809400   -0.1003500  
C     1.2777170   -1.3677960   -0.2286090  
C     0.7466560   -2.7402330   -0.3851720  
O     1.4545210   -3.7130910   -0.6122660  
C    -0.8018630   -3.0025070   -0.2796810  
O    -1.1818210   -4.1510430   -0.4405770  
C    -1.7046640   -1.8656730   -0.0802540  
H    -2.7743170    0.8925310    0.1975950  
H     1.3813510    1.4660090   -0.2020730  
C    -5.4608070   -0.4333750   -2.1065620  
C    -4.1484670   -0.5840210   -1.7911540  
C    -4.1291830   -1.5295220   -0.6810100  
C    -5.5691510   -1.8562820   -0.4688890  
N    -6.3414240   -1.2092800   -1.3006750  
C    -5.9980680   -2.8055410    0.5246750  
C    -5.0452640   -3.4064630    1.2731010  
O    -5.2998370   -4.3055340    2.2377190  
C    -3.5854860   -3.0735430    1.1196170  
O    -2.8146000   -3.5588930    1.9402780  
C    -3.1396460   -2.1173480    0.0502000  
H    -3.2923290   -0.1345610   -2.2732610  
H    -7.0533930   -3.0211390    0.6495940  
H    -4.4255730   -4.5207580    2.6307900  
H    -5.8871680    0.1807830   -2.8915480  
C    -4.0195940    4.6303320   -0.4951030  
C    -3.3353650    3.4582310   -0.5301210  
C    -1.9779950    3.7953300   -0.1304770  
C    -2.0338590    5.2741610    0.0985370  
N    -3.2289700    5.7516230   -0.1000010  
C    -0.8771930    6.0340740    0.4892410  
C     0.2970230    5.3754450    0.6104250  
O     1.4593770    5.9686050    0.9306040  
C     0.4025850    3.8995540    0.3649440  
O     1.5362670    3.4150360    0.4191750  
C    -0.8205890    3.0862010    0.0636450  
H    -3.7134570    2.4942370   -0.8354480  
H    -0.9601750    7.1026630    0.6525400  
H     2.1386800    5.2619310    0.9125800  
H    -5.0626480    4.7945630   -0.7376710  
