60


C     2.6988380   -1.1234970   -0.3179880  
C     3.5856480   -0.1755210    0.2294610  
C     4.8785790   -0.7259680    0.2034860  
C     4.7636000   -2.0361330   -0.3683020  
N     3.4494640   -2.2431520   -0.6649070  
C     5.8683010   -2.8782560   -0.5428660  
C     7.1007820   -2.3967910   -0.1353600  
O     8.2047510   -3.1637260   -0.2772010  
C     7.2357370   -1.0879530    0.4422850  
O     8.5322080   -0.7857530    0.7843340  
C     6.1542590   -0.2604690    0.6151380  
H     3.3038210    0.7800390    0.6433610  
H     3.0105410   -3.0788530   -1.0329450  
H     5.7921970   -3.8707770   -0.9728350  
H     8.9656650   -2.6609340    0.0651690  
H     8.5779280    0.1012880    1.1721540  
H     6.2721440    0.7277570    1.0530490  
C    -0.4295130    2.1285410   -0.1444750  
C     0.7929020    1.4871610   -0.2007520  
C     0.5084040    0.0895760   -0.3706200  
C    -0.9553500    0.0333640   -0.3965630  
N    -1.5035780    1.2118610   -0.2528490  
C    -1.6883410   -1.2148960   -0.5760920  
C    -0.9438790   -2.3343260   -0.8330900  
O    -1.4877130   -3.5291270   -1.1541590  
C     0.5275060   -2.3135190   -0.8251260  
O     1.0928330   -3.3810100   -1.1242900  
C     1.2830050   -1.0557680   -0.4929620  
H     1.7598940    1.9654850   -0.2260530  
H    -0.7215830   -4.1272440   -1.2942610  
C    -3.8997640   -0.1932960   -1.0678850  
C    -5.2128900   -0.4711700   -0.8912540  
C    -5.3130240   -1.7143540   -0.1645320  
C    -3.9206380   -2.1652420    0.0751170  
N    -3.0857060   -1.2113700   -0.5288350  
C    -3.6013420   -3.2527920    0.8169470  
C    -4.6883650   -4.0711520    1.3613950  
O    -4.4815410   -5.0687680    2.0341950  
C    -6.1681010   -3.6417410    1.0665150  
O    -7.0824750   -4.3270550    1.4975600  
C    -6.3811970   -2.4161680    0.2970090  
H    -6.0391820    0.1393170   -1.2261830  
H    -2.5874450   -3.5691280    1.0187010  
H    -7.4047990   -2.0917890    0.1360250  
H    -3.4296910    0.6639690   -1.5245410  
C     1.5852860    5.5175750    1.9534100  
C     1.2804960    4.2632250    1.5292400  
C     0.1085400    4.4203090    0.6821440  
C    -0.1683710    5.8826940    0.7281570  
N     0.7013500    6.5204860    1.4658100  
C    -1.2897630    6.4669500    0.0415540  
C    -2.1041090    5.6387510   -0.6508680  
O    -3.1867120    6.0480340   -1.3341150  
C    -1.8464610    4.1574180   -0.7501350  
O    -2.6006150    3.5197740   -1.4794710  
C    -0.6797520    3.5514440   -0.0221900  
H     1.7717080    3.3372890    1.7895600  
H    -1.4629390    7.5361360    0.0943080  
H    -3.5442770    5.2384150   -1.7604370  
H     2.3932710    5.8173240    2.6107890  
