62


C     2.8946320   -1.9783140    0.4021470  
C     3.8549120   -2.9290470    0.5182390  
C     5.1372180   -2.2884270    0.3411240  
C     4.8974690   -0.9148720    0.1127080  
N     3.4912820   -0.7259920    0.1528380  
C     5.9334280   -0.0032860   -0.0988410  
C     7.2342600   -0.4969810   -0.0786530  
O     8.2744510    0.3582180   -0.2811770  
C     7.4888540   -1.8702910    0.1483490  
O     8.8240310   -2.2066270    0.1392200  
C     6.4531280   -2.7691900    0.3582830  
H     3.6818250   -3.9801940    0.7065880  
H     5.7469130    1.0462650   -0.2742620  
H     9.0955720   -0.1611150   -0.2339710  
H     8.9256770   -3.1573510    0.2952720  
H     6.6618550   -3.8225990    0.5320410  
H     1.8208100   -2.0608410    0.4650320  
C     2.7821880    0.4262460   -0.0100300  
C     1.3890120    0.5711120    0.0604490  
C     1.1473140    1.9336530   -0.1802150  
C     2.5210330    2.5238810   -0.3757950  
N     3.4656640    1.6173460   -0.2763670  
C     2.7295270    3.9107420   -0.6183840  
C     1.6217360    4.6954860   -0.6551720  
O     1.6477790    6.0034150   -0.8717610  
C     0.1991620    4.1529400   -0.4815040  
O    -0.6795750    4.9998840   -0.6345340  
C    -0.0057900    2.7243530   -0.2137180  
H     0.6638510   -0.1918280    0.2906510  
H     3.7289070    4.3065360   -0.7591350  
H     0.6926320    6.2700330   -0.8727000  
C    -1.3285940    2.1953300   -0.0152010  
C    -1.7675740    0.9044220   -0.2269670  
C    -3.1433850    0.8760470    0.1656250  
C    -3.4177320    2.2752910    0.6172850  
N    -2.3741250    3.0412060    0.5134040  
C    -4.7144690    2.6711820    1.1054760  
C    -5.6921700    1.7399920    1.0757370  
O    -6.9590530    1.9692150    1.4593290  
C    -5.4540380    0.3402070    0.5646310  
O    -6.4684830   -0.3801300    0.5097590  
C    -4.1070310   -0.1076100    0.1770940  
H    -1.2227210    0.0893710   -0.6740300  
H    -4.8865570    3.6849680    1.4483180  
H    -7.4373410    1.1279590    1.2897710  
C    -0.9224180   -2.9226320    1.6335030  
C    -1.7387440   -1.8355740    1.4424220  
C    -2.7101220   -2.1961280    0.4454030  
C    -2.4292180   -3.5391870    0.0762120  
N    -1.3255140   -3.9475900    0.7981600  
C    -3.2013880   -4.2601200   -0.8392560  
C    -4.3066100   -3.6138740   -1.3697610  
O    -5.1178640   -4.2583730   -2.2496620  
C    -4.6262080   -2.2765900   -1.0119590  
O    -5.7462810   -1.7911450   -1.6506690  
C    -3.8301160   -1.5269560   -0.1389760  
H    -1.6600810   -0.8926520    1.9625000  
H    -0.9446110   -4.8805890    0.7911370  
H    -2.9864370   -5.2867980   -1.1175140  
H    -5.8336150   -3.6258240   -2.4547560  
H    -6.2839500   -1.3276060   -0.9709850  
H    -0.0935110   -3.0590310    2.3142180  
