64


C    -2.1590840   -0.8625290    0.7196680  
C    -3.4597460   -0.4324950    0.6539380  
C    -3.4188970    0.8794750    0.0388210  
C    -2.0648310    1.1802740   -0.2418450  
N    -1.2926710    0.1017810    0.2038020  
C    -1.6786550    2.3602060   -0.8889220  
C    -2.6734150    3.2734230   -1.2100930  
O    -2.3437240    4.4402640   -1.8355290  
C    -4.0296110    3.0056150   -0.8944110  
O    -4.9018720    4.0111410   -1.2645630  
C    -4.4101800    1.8249260   -0.2812340  
H    -0.6505850    2.5836450   -1.1481110  
H    -3.1656610    4.9472130   -1.9521130  
H    -5.7916900    3.7999200   -0.9451090  
H    -5.4556160    1.6286070   -0.0559870  
H    -1.7551600   -1.7836370    1.1138740  
C     0.7428740   -1.2053570   -0.3145340  
C     0.0845870   -0.0784710    0.0663450  
C     1.1428510    0.8694970    0.4667800  
C     2.4023700    0.1244810    0.2118840  
N     2.1507190   -1.0765660   -0.2312410  
C     3.7181380    0.7248250    0.4667050  
C     3.6848670    1.9809250    1.0327700  
O     4.8085650    2.6852980    1.3518790  
C     2.4511500    2.7046410    1.3517030  
O     2.5394370    3.8317280    1.8641980  
C     1.1453470    2.0861120    1.0389630  
H     4.4638560    3.5273990    1.7288790  
H     0.2528680    2.6577910    1.2729690  
H     0.3148840   -2.1391550   -0.6560980  
C     4.9378550    0.0173800    0.1569680  
C     5.1313380   -1.2383060   -0.4204960  
C     6.5283980   -1.4583470   -0.5111710  
C     7.1720930   -0.3026190    0.0256060  
N     6.1918200    0.5673790    0.4200680  
C     8.5659020   -0.1796470    0.0908800  
C     9.3216750   -1.2362320   -0.3906620  
O    10.6808130   -1.1726960   -0.3528560  
C     8.6960920   -2.4003960   -0.9303840  
O     9.5954570   -3.3556110   -1.3640480  
C     7.3258290   -2.5220060   -0.9951970  
H     4.3340420   -1.8978010   -0.7236070  
H     6.3169540    1.4799590    0.8339200  
H     9.0625600    0.6954290    0.4965540  
H    11.0198960   -2.0017290   -0.7334050  
H     9.1126380   -4.1154110   -1.7215880  
H     6.8675680   -3.4173330   -1.4102240  
C    -4.7652990   -1.7383050    2.3886930  
C    -4.6369940   -1.1448680    1.1519950  
C    -5.8834130   -1.3875150    0.4574970  
C    -6.7178340   -2.1280540    1.3333610  
N    -6.0072840   -2.3307900    2.4999790  
C    -8.0044440   -2.5513070    0.9763040  
C    -8.4553740   -2.2277090   -0.2939150  
O    -9.7018020   -2.6162230   -0.6943790  
C    -7.6283010   -1.5004470   -1.1903220  
O    -8.2135410   -1.2609780   -2.4215780  
C    -6.3592540   -1.0832690   -0.8341020  
H    -6.3539000   -2.8053360    3.3186250  
H    -8.6441450   -3.1203220    1.6433920  
H    -9.8089990   -2.3249790   -1.6163120  
H    -7.5554160   -0.8780300   -3.0202680  
H    -5.7393250   -0.5360770   -1.5406030  
H    -4.0657220   -1.7595900    3.2124070  
