62


C     4.1477950   -1.6741420    2.6611470  
C     2.9838140   -1.5076590    1.9521670  
C     3.0251320   -2.4132470    0.8383960  
C     4.2514010   -3.1219210    0.9429450  
N     4.9199190   -2.6387020    2.0490540  
C     4.6218250   -4.1434970    0.0645050  
C     3.7126340   -4.4869970   -0.9236900  
O     4.0045970   -5.4838160   -1.7997580  
C     2.4610670   -3.8268470   -1.0439730  
O     1.7056270   -4.2910370   -2.0865090  
C     2.1058240   -2.7508680   -0.2099860  
H     2.1912580   -0.8195970    2.2053720  
H     5.8076830   -2.9781640    2.3845150  
H     5.5608520   -4.6815850    0.1457240  
H     3.2146630   -5.5768050   -2.3665550  
H     0.7647190   -4.2987480   -1.7809480  
H     4.4893870   -1.1819800    3.5606970  
C     1.1829330    1.6202520   -0.2333890  
C     1.8479680    0.4218360   -0.2917200  
C     0.8289930   -0.5986300   -0.3435480  
C    -0.4428670    0.1520930   -0.3139080  
N    -0.2354500    1.4334660   -0.2148280  
C    -1.7602790   -0.5037000   -0.3669990  
C    -1.7009880   -1.8731570   -0.5009870  
O    -2.8076650   -2.6437970   -0.6765060  
C    -0.4527370   -2.6271370   -0.5891090  
O    -0.5596230   -3.8533120   -0.8377810  
C     0.8742370   -1.9679570   -0.3906880  
H     2.9130970    0.2613330   -0.3529890  
H    -2.4517660   -3.5462670   -0.8310720  
C     4.9100190    3.4032360    1.4571230  
C     3.9380890    2.5077570    1.1439140  
C     2.9511360    3.2659840    0.3887030  
C     3.5093150    4.6473390    0.3616940  
N     4.6556180    4.7221810    0.9823920  
C     2.8145430    5.7374790   -0.2703720  
C     1.6184400    5.4727500   -0.8417530  
O     0.8617150    6.3943090   -1.4637360  
C     1.0242780    4.0883660   -0.8569760  
O    -0.0338220    3.9581990   -1.4678880  
C     1.7510540    2.9547530   -0.1917910  
H     3.8911550    1.4622420    1.4127580  
H     3.2503910    6.7304370   -0.2752480  
H     0.0854460    5.8987490   -1.8057630  
H     5.8193130    3.2247140    2.0193040  
C    -3.0207810    1.6228070   -0.7592920  
C    -2.9718230    0.2877750   -0.3423410  
C    -4.3273350   -0.0472160    0.0787570  
C    -5.1166070    1.1127960   -0.1139890  
N    -4.2870200    2.0961860   -0.6371250  
C    -6.4708870    1.1938060    0.2157490  
C    -7.0590060    0.0667210    0.7722200  
O    -8.3780220    0.0834540    1.1134840  
C    -6.2881820   -1.1012750    0.9925020  
O    -7.0009720   -2.1403400    1.5592570  
C    -4.9457660   -1.1697830    0.6636410  
H    -4.5759080    3.0320100   -0.8799280  
H    -7.0618400    2.0909090    0.0623350  
H    -8.5912090   -0.7928420    1.4788420  
H    -6.4258700   -2.9150880    1.6454670  
H    -4.3884130   -2.0841630    0.8293970  
H    -2.2185370    2.2433570   -1.1265980  
