62


C     4.2546520    0.1096230   -0.3129440  
C     5.4775070   -0.2319040   -0.8670860  
C     5.7139400   -1.6055330   -0.5777620  
C     4.5964320   -2.0738720    0.1693700  
N     3.7067880   -1.0268990    0.2861030  
C     4.5048950   -3.3856790    0.6486930  
C     5.5530300   -4.2438800    0.3571480  
O     5.5175450   -5.5294390    0.7965310  
C     6.6733520   -3.7980450   -0.4053830  
O     7.6205270   -4.7784340   -0.6101940  
C     6.7634690   -2.5044020   -0.8732980  
H     6.1027200    0.4281570   -1.4525720  
H     2.9495680   -0.9962940    0.9537460  
H     3.6581630   -3.7480720    1.2220370  
H     6.3300470   -5.9675690    0.4880350  
H     8.3538380   -4.4232450   -1.1342750  
H     7.6277120   -2.1830400   -1.4503510  
C     3.5467300    1.3577790   -0.3261380  
C     3.9993040    2.6360570   -0.5403640  
C     2.8798520    3.5324360   -0.4558610  
C     1.7014350    2.6866990   -0.1684800  
N     2.1683310    1.3805690   -0.0300230  
C     0.4133110    3.1212590   -0.0806660  
C     0.2041920    4.5850380   -0.2081600  
O    -0.8814880    5.1096790   -0.0409490  
C     1.4457150    5.5019330   -0.5142810  
O     1.2552390    6.7004650   -0.6701380  
C     2.7611470    4.8844970   -0.6005870  
H     5.0303080    2.9206500   -0.6951730  
H     3.6095660    5.5269200   -0.8152630  
H     1.5636640    0.6036520   -0.2686560  
C    -0.3838480    0.3856300    3.3051980  
C    -1.6019220   -0.0841980    2.8876320  
C    -1.9016820    0.5605660    1.6399810  
C    -0.8045920    1.4108220    1.3427200  
N     0.1070570    1.2775480    2.3700390  
C    -0.7256790    2.2193160    0.1894440  
C    -1.8175430    2.1372480   -0.6803210  
O    -1.8116020    2.8573270   -1.8313300  
C    -2.9197340    1.2946030   -0.4027660  
O    -3.9122460    1.3502640   -1.3714290  
C    -2.9963840    0.4882990    0.7347060  
H    -2.2107970   -0.8102940    3.4060900  
H     0.9429940    1.8329130    2.4657710  
H    -2.6956140    2.7645320   -2.2297050  
H    -4.7705340    1.1684030   -0.9572150  
H     0.1827550    0.1575760    4.1970300  
C    -4.8048270   -0.5711900    2.1823060  
C    -4.1545020   -0.3733180    0.9984390  
C    -4.8239980   -1.3165360    0.0702080  
C    -5.8654350   -1.9811150    0.9085290  
N    -5.8486390   -1.5344030    2.1338600  
C    -6.7435830   -2.9859340    0.3693250  
C    -6.5812420   -3.3415560   -0.9278130  
O    -7.3226490   -4.2689300   -1.5563950  
C    -5.5258530   -2.7095030   -1.7902380  
O    -5.4363630   -3.0856340   -2.9577330  
C    -4.6465330   -1.6650850   -1.2192410  
H    -7.4966160   -3.4415630    1.0028060  
H    -6.9722250   -4.3059780   -2.4732990  
H    -3.9109700   -1.2200440   -1.8807810  
H    -4.6106780   -0.0671050    3.1211610  
