62


C    -6.2354810    0.6018290    1.9145550  
C    -7.4606680    0.0178510    1.7711760  
C    -7.3092630   -1.1026570    0.8793400  
C    -5.9478100   -1.1608200    0.4975310  
N    -5.3077870   -0.1065380    1.1459990  
C    -5.4312210   -2.1299460   -0.3666000  
C    -6.3219510   -3.0710390   -0.8617450  
O    -5.8804250   -4.0425030   -1.7095970  
C    -7.6941230   -3.0346190   -0.4941720  
O    -8.4493670   -4.0387340   -1.0680260  
C    -8.1928730   -2.0705540    0.3624010  
H    -8.3754420    0.3467740    2.2451240  
H    -4.3874840   -2.1633930   -0.6587650  
H    -6.6505100   -4.5834090   -1.9561050  
H    -9.3791000   -3.9283690   -0.8200110  
H    -9.2476250   -2.0630180    0.6299510  
H    -5.9119790    1.4611520    2.4835890  
C    -2.9776900   -0.3075780    1.8957580  
C    -1.7782120    0.2344030    1.5830800  
C    -1.9798470    1.1491120    0.4754840  
C    -3.4253810    1.1065870    0.1569210  
N    -3.9784720    0.1908840    1.0470250  
C    -4.0488940    1.8440980   -0.7929920  
C    -3.2317370    2.7546930   -1.5834760  
O    -3.6874030    3.4888150   -2.4461360  
C    -1.6826890    2.7896470   -1.3130720  
O    -0.9848340    3.4705620   -2.0421060  
C    -1.1231580    1.9683220   -0.2055370  
H    -0.8329280    0.0075190    2.0499020  
H    -5.1163100    1.7954670   -0.9784750  
H    -3.2510320   -1.0311730    2.6514730  
C     2.0205960   -1.1082630   -0.2732060  
C     3.1608970   -0.3805710   -0.0727910  
C     2.6712200    1.0091200    0.1124900  
C     1.1964750    0.9010370   -0.0374650  
N     0.8374680   -0.3388860   -0.2500820  
C     0.3263510    2.0578360    0.0590900  
C     0.9293220    3.2497120    0.3507060  
O     0.2532850    4.3972600    0.5173820  
C     2.4014710    3.3767930    0.5533750  
O     2.8597180    4.4888410    0.8223190  
C     3.2581020    2.1790110    0.4242130  
H     0.9367780    5.0805260    0.6923020  
H     4.3199990    2.3146000    0.6045920  
H     1.9475700   -2.1718610   -0.4635960  
C     4.5241800   -0.8349540   -0.0174990  
C     5.0344410   -2.0815040    0.3149030  
C     6.4523590   -2.0211200    0.1950720  
C     6.7788860   -0.6998490   -0.2225140  
N     5.5976720    0.0104760   -0.3072200  
C     8.0925450   -0.2871580   -0.4642110  
C     9.1002470   -1.2205960   -0.2706920  
O    10.3972730   -0.8735800   -0.4926470  
C     8.7956320   -2.5424900    0.1640930  
O     9.9099730   -3.3423860    0.3163340  
C     7.4979130   -2.9479380    0.4001920  
H     4.4456090   -2.9221990    0.6555460  
H     5.4987050    0.8799230   -0.8099260  
H     8.3470960    0.7169000   -0.7872990  
H    10.9444780   -1.6553570   -0.3018920  
H     9.6390740   -4.2286980    0.5981310  
H     7.2873450   -3.9635040    0.7287560  
