60


C     3.5513390   -0.6258820   -1.8533560  
C     3.9106520   -1.9410560   -1.9320930  
C     4.8271850   -2.1986010   -0.8556840  
C     4.9989560   -0.9823340   -0.1491740  
N     4.2024290   -0.0183490   -0.7725010  
C     5.8052230   -0.8817940    0.9901240  
C     6.4629050   -2.0272650    1.4105600  
O     7.2671340   -1.9818430    2.5121580  
C     6.3101810   -3.2523190    0.7088690  
O     7.0277910   -4.3013180    1.2515910  
C     5.5050200   -3.3497060   -0.4103040  
H     3.5765240   -2.6439530   -2.6832930  
H     5.9555720    0.0468660    1.5266670  
H     7.6548440   -2.8670260    2.6219300  
H     6.9251800   -5.0855870    0.6926320  
H     5.3929800   -4.2994650   -0.9295910  
H     2.9270230   -0.0286200   -2.5026050  
C     0.5065090    2.0197240    0.1548680  
C     1.0213670    3.2705060    0.3881880  
C     2.4482060    3.2134210    0.2118330  
C     2.7486640    1.8144280   -0.1537060  
N     1.5358000    1.1495080   -0.2273880  
C     3.9994550    1.3151460   -0.3687240  
C     5.1327120    2.2592140   -0.2651290  
O     6.2846080    1.9338950   -0.4867480  
C     4.8221040    3.7538440    0.1306740  
O     5.7671590    4.5176240    0.2636420  
C     3.4354990    4.1475880    0.3337490  
H     0.4472830    4.1591980    0.6091000  
H     3.2357410    5.1802030    0.6015770  
H     1.4704340    0.1420960   -0.1761510  
C    -1.8213070    2.0903010    1.0665750  
C    -0.8595730    1.5535710    0.2489180  
C    -1.4962410    0.4496360   -0.4713300  
C    -2.8983200    0.4078330    0.0015140  
N    -3.0244200    1.4421330    0.9183000  
C    -3.8434170   -0.4937640   -0.3886020  
C    -3.4301720   -1.4811580   -1.4157550  
O    -4.2116470   -2.2651920   -1.9197530  
C    -1.9450480   -1.4614180   -1.9214040  
O    -1.5909030   -2.2957360   -2.7371080  
C    -1.0416540   -0.4315440   -1.4017860  
H    -0.0292370   -0.4209010   -1.7907800  
H    -1.7215760    2.9008470    1.7762820  
H    -3.8512970    1.6075700    1.4723210  
C    -7.2035000    2.4502170   -0.3710470  
C    -6.0024310    1.8358440   -0.5453250  
C    -6.1050320    0.5139230    0.0384950  
C    -7.4869080    0.4089930    0.5702390  
N    -8.0894950    1.6271190    0.3077620  
C    -8.0114480   -0.6925630    1.1633840  
C    -7.1610580   -1.8693130    1.3042240  
O    -7.5467890   -2.9174010    1.7953430  
C    -5.6720450   -1.7686970    0.8163830  
O    -4.9118970   -2.6859900    1.0647130  
C    -5.2211630   -0.5297130    0.1283910  
H    -5.1445450    2.2480340   -1.0548190  
H    -9.0347380   -0.7502070    1.5212390  
H    -7.5181220    3.4371490   -0.6841570  
H    -9.0598660    1.8362380    0.4843410  
