60


C    -6.4152660   -0.0463120    2.9817340  
C    -5.1731880    0.2212160    2.4674560  
C    -5.0419870   -0.5394050    1.2569910  
C    -6.2583120   -1.2535690    1.0845340  
N    -7.0729950   -0.9358680    2.1521590  
C    -6.5035240   -2.0919130   -0.0083470  
C    -5.4903980   -2.2182910   -0.9475390  
O    -5.6550800   -3.0447830   -2.0201980  
C    -4.2724700   -1.5107290   -0.8013180  
O    -3.3578270   -1.7522100   -1.8167780  
C    -4.0202360   -0.6602420    0.2763120  
H    -4.4399170    0.8884350    2.8968060  
H    -8.0024750   -1.2955250    2.3008440  
H    -7.4283840   -2.6455020   -0.1344850  
H    -4.8095430   -3.0393330   -2.5040500  
H    -2.4584990   -1.6857570   -1.4563400  
H    -6.8928070    0.3234020    3.8781760  
C    -1.9347580    0.1984270    1.4749580  
C    -2.7476510    0.0633820    0.3900050  
C    -2.1024840    0.9103750   -0.6394180  
C    -0.8788960    1.4348950    0.0284860  
N    -0.7980780    1.0294830    1.2618590  
C     0.0558890    2.3114980   -0.6546630  
C    -0.2967140    2.7268230   -1.9006540  
O     0.4523790    3.5444080   -2.6589630  
C    -1.5532620    2.2561660   -2.5741660  
O    -1.7784530    2.6718710   -3.7109320  
C    -2.4469620    1.3087370   -1.8781300  
H    -0.0533080    3.6481420   -3.4956260  
H    -3.3362410    0.9784980   -2.4045800  
H    -2.0628020   -0.2623610    2.4467250  
C     3.4156030   -0.2107300    0.5195260  
C     4.2382930    0.6914170    1.1448940  
C     3.5677190    1.9684760    1.0507300  
C     2.2981810    1.6598090    0.3220540  
N     2.2168410    0.4057390    0.0037610  
C     1.3232310    2.6889430    0.0028500  
C     1.6466960    3.9612150    0.3547790  
O     0.8592650    5.0221050    0.1318120  
C     2.9242600    4.3001410    1.0804450  
O     3.1119940    5.4842230    1.3645650  
C     3.8744060    3.2332650    1.4179700  
H     5.1663660    0.4951650    1.6622770  
H     1.3513090    5.7879970    0.5047020  
H     4.7864800    3.5228390    1.9308070  
C     7.0540440   -2.6514050   -0.2378060  
C     6.1866410   -1.6289530   -0.0002470  
C     4.8616800   -2.1943220    0.0932540  
C     5.0272770   -3.6487900   -0.1324300  
N     6.3834780   -3.8623880   -0.2957700  
C     4.0161600   -4.5535200   -0.1994960  
C     2.6541750   -4.0655110   -0.0435310  
O     1.6693350   -4.7762700   -0.1728080  
C     2.4458540   -2.5531880    0.3285920  
O     1.3352650   -2.2082900    0.6822670  
C     3.6189940   -1.6309260    0.3019360  
H     6.4455700   -0.5852660    0.0777790  
H     4.1702710   -5.6091580   -0.4013420  
H     8.1268740   -2.6206960   -0.3748040  
H     6.7993970   -4.7499570   -0.5312460  
