60


C     3.9906910    0.6078720   -0.0496240  
C     3.5916440   -0.7253470    0.1071320  
C     4.7329820   -1.5455880   -0.0575270  
C     5.8355810   -0.6751270   -0.3153180  
N     5.3580950    0.6072020   -0.3057190  
C     7.1357450   -1.1490340   -0.5265250  
C     7.3289410   -2.5200720   -0.4772750  
O     8.5690820   -3.0371930   -0.6750890  
C     6.2381050   -3.4076050   -0.2202970  
O     6.6080610   -4.7359420   -0.2066880  
C     4.9592120   -2.9420660   -0.0116890  
H     2.5984990   -1.0590080    0.3628720  
H     5.8877690    1.4641960   -0.3889260  
H     7.9774710   -0.4938660   -0.7234780  
H     8.4981250   -4.0056520   -0.6074110  
H     5.8299150   -5.2919020   -0.0522940  
H     4.1428100   -3.6347320    0.1815880  
C    -0.3860060    1.6655550    0.0762290  
C     0.7806590    0.9334750   -0.0514680  
C     1.8334760    1.8914660    0.0744150  
C     1.1282250    3.1814850    0.2741050  
N    -0.1758350    3.0378880    0.2815390  
C     1.8156770    4.4350560    0.4282900  
C     3.1621890    4.4117620    0.3389150  
O     3.9419060    5.4979560    0.4264470  
C     3.9266970    3.1260500    0.1124070  
O     5.1532540    3.2616890    0.0053780  
C     3.2209690    1.8249840    0.0385750  
H     0.8786660   -0.1104690   -0.2994460  
H     1.2578400    5.3515690    0.5827060  
H     4.8610400    5.1705300    0.3073380  
C    -1.9930030   -0.1724000    0.0013350  
C    -3.3325030   -0.4076830   -0.0830960  
C    -3.9788050    0.9066800   -0.1098400  
C    -2.8967380    1.9143110   -0.0184390  
N    -1.6837890    1.1900130    0.0365360  
C    -3.1099680    3.2518660   -0.0007570  
C    -4.4925580    3.7374580   -0.0606650  
O    -4.7694800    4.9261320   -0.0477350  
C    -5.6491990    2.6859540   -0.1336040  
O    -6.8073850    3.0680600   -0.1539800  
C    -5.2843320    1.2640260   -0.1657710  
H    -2.3039810    3.9686020    0.0691530  
H    -6.0864950    0.5413480   -0.2552150  
H    -1.1892150   -0.8936630    0.0257670  
C    -2.7519280   -3.8837140    2.5330860  
C    -3.5935950   -4.7653040    1.9377310  
C    -4.1985280   -4.0894650    0.8082440  
C    -3.6258670   -2.7226590    0.7912680  
N    -2.7265320   -2.6742790    1.8397070  
C    -3.9635910   -1.7317540   -0.0930710  
C    -4.9723160   -2.0813480   -1.1142150  
O    -5.3490660   -1.2961770   -1.9678900  
C    -5.5755190   -3.5357100   -1.1212760  
O    -6.4109070   -3.8116340   -1.9667030  
C    -5.1177430   -4.4871320   -0.1117110  
H    -3.7829240   -5.7831020    2.2461310  
H    -5.5473590   -5.4839790   -0.1221020  
H    -2.1316070   -4.0095960    3.4106430  
H    -2.3294150   -1.8151370    2.1909280  
