64


C     5.6847170   -3.4858100    0.1969750  
C     6.9777530   -3.1507440    0.5061480  
C     7.0417850   -1.7180000    0.5434760  
C     5.7369290   -1.2346480    0.2525010  
N     4.9380000   -2.3371370    0.0343290  
C     5.4080670    0.1395830    0.1729490  
C     6.4781910    1.0078810    0.3844530  
O     6.2802440    2.3760250    0.2970960  
C     7.7846600    0.5511390    0.6773220  
O     8.7004520    1.5741010    0.8602440  
C     8.0810150   -0.7943140    0.7664490  
H     7.7922670   -3.8412210    0.6763380  
H     3.9449350   -2.2950200   -0.1372960  
H     7.1393610    2.7973300    0.4824830  
H     9.5731780    1.1978160    1.0458420  
H     9.0929540   -1.1266140    0.9885080  
H     5.2269530   -4.4571020    0.0721650  
C     1.3912400   -0.9344810    1.8824660  
C     2.7332290   -0.8041010    1.6565500  
C     2.8972290    0.0740260    0.5253600  
C     1.5955130    0.4577940    0.1159060  
N     0.6802760   -0.1778130    0.9529440  
C     1.3549840    1.3654210   -0.9210920  
C     2.4677800    1.9037120   -1.5457390  
O     2.3192920    2.8119140   -2.5481380  
C     3.7861570    1.5301040   -1.1651740  
O     4.7714670    2.1389910   -1.9127420  
C     4.0336240    0.5991630   -0.1542620  
H     3.5182030   -1.2637730    2.2395230  
H     0.3584960    1.6654570   -1.2245480  
H     3.2272050    3.0555090   -2.8130840  
H     5.4727610    2.4377340   -1.2934280  
H     0.8536830   -1.5095510    2.6229330  
C    -1.5147340    0.5186190    1.8491130  
C    -0.7194270   -0.0540470    0.9002680  
C    -1.5901680   -0.5632350   -0.1499290  
C    -2.9660110   -0.2291060    0.2752940  
N    -2.8481510    0.4278770    1.4910560  
C    -4.1054770   -0.5385890   -0.4095040  
C    -3.9208360   -1.2441180   -1.6995150  
O    -4.8417520   -1.4878060   -2.4572950  
C    -2.4649570   -1.6631670   -2.1326840  
O    -2.3275950   -2.3211120   -3.1518690  
C    -1.3388470   -1.2454920   -1.2980220  
H    -0.3357140   -1.5096600   -1.6160620  
H    -1.2212030    0.9955210    2.7747350  
H    -3.6342720    0.7215360    2.0508370  
C    -5.8964030    3.4208960    0.4728010  
C    -7.1342860    2.9807920    0.8579540  
C    -7.1243360    1.5472100    0.7605020  
C    -5.8323930    1.1711390    0.3117410  
N    -5.0944370    2.3322990    0.1674740  
C    -5.4543260   -0.1674830    0.0666180  
C    -6.4351970   -1.1354600    0.2968030  
O    -6.1326350   -2.4510180    0.1315820  
C    -7.7305430   -0.7742440    0.7491760  
O    -8.5701670   -1.8559050    0.9416460  
C    -8.0833560    0.5407960    0.9864370  
H    -7.9599100    3.6029120    1.1753690  
H    -4.2027110    2.3852600   -0.3010820  
H    -6.9585660   -2.9539160    0.2408520  
H    -9.4746750   -1.5410490    1.0857110  
H    -9.0833320    0.7881530    1.3370200  
H    -5.5033570    4.4251870    0.4003550  
