64


C    -5.1498830    0.1439880   -0.0702730  
C    -5.2277660   -1.2067430   -0.3841990  
C    -6.5664140   -1.6364560   -0.1281500  
C    -7.2780490   -0.5023440    0.3478830  
N    -6.3958660    0.5526240    0.3823300  
C    -8.6347470   -0.5526280    0.6938450  
C    -9.2847190   -1.7682930    0.5556720  
O   -10.6061710   -1.8740380    0.8770520  
C    -8.5884090   -2.9144380    0.0806980  
O    -9.3755520   -4.0478210    0.0015150  
C    -7.2506010   -2.8635440   -0.2585610  
H    -4.4471510   -1.7993110   -0.8414600  
H    -6.6256410    1.5203270    0.5532530  
H    -9.1822170    0.3107650    1.0573360  
H   -10.8716340   -2.7943150    0.7071640  
H    -8.8509350   -4.7826500   -0.3488930  
H    -6.7402790   -3.7542500   -0.6202040  
C    -0.8520750   -0.6795750    0.2074450  
C    -0.3795250    0.6044270   -0.0074710  
C    -1.5475030    1.4487480   -0.1688910  
C    -2.6798650    0.6091920   -0.0528700  
N    -2.2176910   -0.6771060    0.1673110  
C    -4.0162160    1.0627270   -0.1471250  
C    -4.1581800    2.4453890   -0.3189950  
O    -5.4085000    3.0039260   -0.3791940  
C    -3.0364550    3.2978290   -0.4600480  
O    -3.3764140    4.6201410   -0.6618560  
C    -1.7383010    2.8242470   -0.4053820  
H    -2.8164910   -1.4469750    0.4296270  
H    -5.2912450    3.9536680   -0.5596160  
H    -2.5850240    5.1361990   -0.8757270  
H    -0.8994790    3.4987120   -0.5545300  
H    -0.3002930   -1.5846680    0.4169540  
C     1.0120220    0.9815200   -0.0281780  
C     2.1267060    0.2478900   -0.3534510  
C     3.2843590    1.0695490   -0.1430380  
C     2.7825560    2.3733380    0.3429830  
N     1.3984970    2.2868860    0.3275820  
C     3.5615580    3.4107290    0.7401460  
C     5.0058460    3.2573730    0.6465240  
O     5.7982530    4.1124280    1.0112020  
C     5.5785690    1.9243330    0.0326000  
O     6.7820200    1.8360260   -0.1438180  
C     4.6298470    0.8463740   -0.3088120  
H     2.1256530   -0.7585070   -0.7441310  
H     3.1643780    4.3472160    1.1191830  
H     0.8188980    2.8667570    0.9180320  
C     4.6518870   -0.8888880   -2.0819940  
C     5.2925510   -2.0660220   -2.3418810  
C     6.2009170   -2.3047850   -1.2540420  
C     6.0742270   -1.2156210   -0.3554300  
N     5.1118140   -0.3481190   -0.8784770  
C     6.7906600   -1.1481190    0.8449010  
C     7.6640430   -2.1859660    1.1302630  
O     8.3917250   -2.1629020    2.2865350  
C     7.8122990   -3.2767900    0.2352850  
O     8.7175560   -4.2338240    0.6587520  
C     7.0942120   -3.3475480   -0.9441580  
H     5.1489200   -2.6863440   -3.2164080  
H     6.7115210   -0.3154910    1.5325060  
H     8.9640420   -2.9490090    2.2798930  
H     8.8393650   -4.8909440   -0.0420820  
H     7.2130580   -4.1985940   -1.6123180  
H     3.9226460   -0.3434170   -2.6631000  
