60


C     4.7042030   -2.3514930   -1.7785380  
C     4.3873450   -1.3378600   -0.8938290  
C     5.6305470   -0.9589450   -0.2514020  
C     6.6489900   -1.7801160   -0.7972840  
N     6.0508950   -2.6192110   -1.7198480  
C     7.9874810   -1.7018750   -0.3953390  
C     8.3074970   -0.7776490    0.5866990  
O     9.5967500   -0.6559720    1.0119590  
C     7.2991600    0.0407080    1.1625130  
O     7.7694490    0.8957330    2.1393060  
C     5.9779360   -0.0429540    0.7629280  
H     6.5368700   -3.2819470   -2.3039210  
H     8.7664420   -2.3299000   -0.8153630  
H     9.6120790    0.0361500    1.6955100  
H     7.0436680    1.4453460    2.4701300  
H     5.2246340    0.5824030    1.2360730  
H     4.0615480   -2.8765900   -2.4708410  
C     1.8686590   -1.4878000   -0.6044370  
C     3.0478090   -0.8137610   -0.6780790  
C     2.6459680    0.6052450   -0.5836670  
C     1.1592480    0.5788390   -0.4385350  
N     0.7280230   -0.6502050   -0.4602870  
C     0.3558840    1.7998680   -0.3080260  
C     1.0729870    2.9807940   -0.3657330  
O     0.5599690    4.2066900   -0.2645190  
C     2.5658530    3.0120830   -0.5548590  
O     3.1087810    4.1182460   -0.5901260  
C     3.3260270    1.7601310   -0.6749100  
H     1.3355310    4.8098080   -0.3529600  
H     4.3991580    1.8328100   -0.8195190  
H     1.7225760   -2.5608830   -0.6311250  
C    -1.0844050    1.7322960   -0.1485110  
C    -1.8811710    0.6126300   -0.0906230  
C    -3.2303550    1.0946290    0.0670700  
C    -3.0876160    2.5830920    0.0797510  
N    -1.8485310    2.9506710   -0.0432370  
C    -4.2265540    3.4576220    0.1927370  
C    -5.4469150    2.8836730    0.2892850  
O    -6.5950180    3.5669270    0.4117460  
C    -5.6292840    1.3863760    0.3123430  
O    -6.7663310    0.9710380    0.5217530  
C    -4.4516360    0.4895160    0.1515920  
H    -1.5527300   -0.4102640   -0.1658630  
H    -4.0887580    4.5330280    0.1964560  
H    -7.2947410    2.8806330    0.4934490  
C    -2.9223950   -2.9421000    2.5593460  
C    -3.1576590   -1.7056030    2.0486110  
C    -4.0943020   -1.8600090    0.9566640  
C    -4.3962050   -3.3113110    0.8788940  
N    -3.6420170   -3.9105150    1.8688380  
C    -5.2673560   -3.8825220    0.0076950  
C    -5.9634180   -3.0177910   -0.9339340  
O    -6.7909280   -3.4251850   -1.7344760  
C    -5.6205390   -1.4855300   -0.9217790  
O    -6.0844560   -0.7787480   -1.7983260  
C    -4.6959150   -0.9592520    0.1165000  
H    -2.7146580   -0.7808060    2.3839970  
H    -5.4853280   -4.9459590   -0.0089100  
H    -2.2803200   -3.2326820    3.3802930  
H    -3.6695120   -4.8917260    2.0969200  
