62


C     4.4108180   -0.7867430   -0.0572360  
C     4.8916440   -2.0081830    0.3678260  
C     6.3118760   -2.0039560    0.1896980  
C     6.6575180   -0.7375750   -0.3521000  
N     5.4908520   -0.0057500   -0.4658960  
C     7.9743550   -0.3828950   -0.6670770  
C     8.9643150   -1.3228290   -0.4252200  
O    10.2644620   -1.0313170   -0.7171490  
C     8.6398100   -2.5911680    0.1287850  
O     9.7359300   -3.4118390    0.3161330  
C     7.3386700   -2.9380870    0.4386040  
H     4.2942850   -2.7972710    0.8045850  
H     5.3999090    0.8474590   -0.9965120  
H     8.2423730    0.5827350   -1.0834170  
H    10.7960730   -1.8086890   -0.4735710  
H     9.4473500   -4.2564860    0.6920300  
H     7.1151000   -3.9160490    0.8604530  
C     1.9248960   -1.0217330   -0.3839150  
C     3.0471450   -0.2900670   -0.1181730  
C     2.5917400    1.0812550    0.1093870  
C     1.1152600    1.0689140   -0.0482000  
N     0.7838540   -0.2293220   -0.3386760  
C     0.2766550    2.1569760    0.0669930  
C     0.9553250    3.4336860    0.2723970  
O     0.3983210    4.5309410    0.1907980  
C     2.4939520    3.4556290    0.5958150  
O     2.9985340    4.5119290    0.9372460  
C     3.2550430    2.2175140    0.4468040  
H     4.3203230    2.2484030    0.6489790  
H     1.8454190   -2.0720900   -0.6285200  
H    -0.1663170   -0.5551610   -0.4400310  
C    -2.6569050   -0.6221840    2.0288500  
C    -1.5307290    0.0717560    1.6789160  
C    -1.9069760    1.0257480    0.6661990  
C    -3.2993620    0.8645310    0.4561240  
N    -3.7427780   -0.1585420    1.2929680  
C    -4.0431040    1.6740150   -0.4079260  
C    -3.3550530    2.6836630   -1.0607950  
O    -4.0113430    3.5273600   -1.8979190  
C    -1.9558970    2.8709470   -0.8784280  
O    -1.4401160    3.9016130   -1.6212980  
C    -1.1972850    2.0362650   -0.0516570  
H    -0.5529820   -0.0611840    2.1193200  
H    -5.1109980    1.5577290   -0.5539750  
H    -3.3405410    4.1679020   -2.2052960  
H    -0.7892770    4.3753530   -1.0477370  
H    -2.7972860   -1.4224910    2.7413530  
C    -5.8854920   -0.4859220    2.4784040  
C    -5.0643140   -0.6284530    1.4003470  
C    -5.7871120   -1.4010320    0.3995680  
C    -7.1100300   -1.6959360    0.9995180  
N    -7.0955520   -1.1263400    2.2620790  
C    -8.0920520   -2.3953360    0.3783570  
C    -7.8326810   -2.9096300   -0.9656790  
O    -8.6537430   -3.5520590   -1.6005950  
C    -6.4265100   -2.6226030   -1.6113090  
O    -6.1861030   -3.0605850   -2.7243120  
C    -5.4540640   -1.8381940   -0.8414790  
H    -9.0592190   -2.5979420    0.8281150  
H    -4.4917900   -1.6289420   -1.2973850  
H    -5.6919740    0.0306740    3.4089980  
H    -7.8713420   -1.1328570    2.9056580  
