64


C    -3.3035120    0.8566760   -1.8850540  
C    -4.5891870    1.2873830   -1.7108200  
C    -5.1323350    0.5625890   -0.5966950  
C    -4.1153740   -0.3084950   -0.1293400  
N    -2.9950960   -0.1177580   -0.9347810  
C    -4.2930730   -1.1527740    0.9727340  
C    -5.5244970   -1.1243240    1.6078870  
O    -5.7535160   -1.9318980    2.6880280  
C    -6.5568100   -0.2647320    1.1502880  
O    -7.7269630   -0.3511160    1.8858120  
C    -6.3758970    0.5720420    0.0649620  
H    -5.0935660    2.0324800   -2.3108980  
H    -3.5193260   -1.8227690    1.3281670  
H    -6.6674250   -1.7671290    2.9765070  
H    -8.3845470    0.2524670    1.5102870  
H    -7.1790820    1.2285150   -0.2650610  
H    -2.5660990    1.1334160   -2.6253230  
C     0.8936460    1.7381350   -0.2687280  
C     1.6299110    0.5501590   -0.2435540  
C     0.7255750   -0.5342870   -0.4097940  
C    -0.5696870    0.0429640   -0.5524280  
N    -0.4409110    1.4002370   -0.4523290  
C    -1.7260660   -0.7247100   -0.7826350  
C    -1.5410960   -2.1004460   -0.8950870  
O    -2.5913510   -2.9124350   -1.1562810  
C    -0.2534690   -2.6965960   -0.7317170  
O    -0.2792970   -4.0681590   -0.8388760  
C     0.8916330   -1.9522150   -0.4651030  
H     2.7044150    0.4752320   -0.2001020  
H    -1.1616680    2.1005130   -0.5825800  
H    -2.2179860   -3.8149490   -1.2019440  
H     0.4888710   -4.3407240   -1.3885330  
C     4.6468670    3.6660740    1.1992210  
C     3.6524160    2.7771680    0.9320920  
C     2.5705940    3.5043790    0.3052560  
C     3.0143430    4.9096490    0.2408180  
N     4.2881370    4.9372460    0.7711370  
C     2.2919330    5.9553470   -0.2559380  
C     0.9588670    5.6834160   -0.7349790  
O     0.2093800    6.5227140   -1.2160470  
C     0.4210210    4.2070280   -0.6181580  
O    -0.7578130    4.0251910   -0.8918890  
C     1.3316850    3.1128100   -0.1771860  
H     3.6667230    1.7300980    1.1880000  
H     2.6715150    6.9706020   -0.3098440  
H     5.6051630    3.5037350    1.6738420  
H     4.8331030    5.7746790    0.9026770  
C     3.7421580   -1.3834580    2.8703240  
C     4.7042850   -2.2690500    2.4579800  
C     4.2461740   -2.8422430    1.2250250  
C     2.9879710   -2.2498840    0.9315970  
N     2.7059520   -1.3729580    1.9578990  
C     2.2075340   -2.5858700   -0.2012360  
C     2.7579750   -3.5751380   -1.0151830  
O     2.0650880   -4.0060140   -2.1333810  
C     4.0087760   -4.1784800   -0.7441840  
O     4.3758640   -5.1309900   -1.6786400  
C     4.7629750   -3.8226340    0.3559660  
H     5.6243750   -2.4988000    2.9774190  
H     1.8880020   -0.7837280    1.9953560  
H     2.6181600   -4.6809380   -2.5679310  
H     5.2390870   -5.5019000   -1.4439630  
H     5.7205480   -4.3006690    0.5510400  
H     3.7000330   -0.7587440    3.7515970  
