60


C     5.8560640   -2.9910460   -2.0341220  
C     7.1163150   -2.6152980   -1.6528690  
C     6.9761350   -1.4544160   -0.8203650  
C     5.5884960   -1.1736230   -0.7248390  
N     4.9313420   -2.1273950   -1.4726070  
C     5.0759520   -0.0568580   -0.0202880  
C     6.0227540    0.7607890    0.6130210  
O     5.6013830    1.8055710    1.3713070  
C     7.4092110    0.4796940    0.5357510  
O     8.1924610    1.3763700    1.2350500  
C     7.8926010   -0.6066670   -0.1681350  
H     8.0392150   -3.1023070   -1.9355840  
H     3.9360030   -2.1584390   -1.6280690  
H     6.3911700    2.3035680    1.6475030  
H     9.1274130    1.2177470    1.0377850  
H     8.9621320   -0.8009230   -0.2144630  
H     5.5290210   -3.8092540   -2.6598250  
C     1.4658120   -2.3734250    1.1604640  
C     2.7332280   -1.9724570    0.9022560  
C     2.6620770   -0.6098180    0.4032140  
C     1.2329460   -0.2526800    0.3885020  
N     0.5593750   -1.3625280    0.8237170  
C     0.7058740    0.9874980    0.0542900  
C     1.6956220    2.0335160   -0.2113020  
O     1.4287560    3.2272060   -0.3131170  
C     3.1938860    1.6230690   -0.4073620  
O     3.9228790    2.4089710   -0.9769150  
C     3.6484130    0.2736720    0.0393350  
H     3.6353020   -2.5439890    1.0584320  
H     1.0999010   -3.3099660    1.5584660  
H    -0.4149160   -1.3477330    1.0919280  
C    -0.7121370    1.2717430    0.0365880  
C    -1.7973170    0.4094290   -0.0146890  
C    -2.9923930    1.1995150   -0.0452230  
C    -2.5484090    2.6131810   -0.0208000  
N    -1.1725870    2.5836630    0.0531430  
C    -3.3812800    3.6832930   -0.0826730  
C    -4.8152020    3.4365930   -0.1768570  
O    -5.6413160    4.3314490   -0.2690620  
C    -5.3208590    1.9490260   -0.1356690  
O    -6.5203090    1.7436070   -0.0622400  
C    -4.3228090    0.8553980   -0.1140290  
H    -1.7680240   -0.6578400   -0.1687890  
H    -3.0319730    4.7109320   -0.0867100  
H    -0.5290200    3.3635830   -0.0226920  
C    -3.8049880   -2.4317780    2.7698400  
C    -4.5185230   -3.4007840    2.1419160  
C    -5.0074900   -2.8412340    0.8971680  
C    -4.5067190   -1.4495410    0.8494840  
N    -3.7317540   -1.2780260    1.9914380  
C    -4.8005810   -0.5350820   -0.1210220  
C    -5.6302380   -1.0234090   -1.2512500  
O    -5.8475740   -0.3507400   -2.2415060  
C    -6.1843540   -2.4950880   -1.2068520  
O    -6.9127430   -2.8728650   -2.1112130  
C    -5.7977390   -3.3498680   -0.0868450  
H    -4.6998310   -4.4023520    2.5044520  
H    -6.1869660   -4.3631350   -0.0637600  
H    -3.3071390   -2.4614790    3.7306640  
H    -3.4812960   -0.3650440    2.3425630  
