62


C     3.3526510   -0.5321980   -0.0303870  
C     3.8577900    0.2992960    0.9408540  
C     5.2674900    0.4492660    0.7125220  
C     5.5859620   -0.3228320   -0.4294070  
N     4.4224770   -0.9747040   -0.8421370  
C     6.8744470   -0.3854830   -0.9651900  
C     7.8690070    0.3400520   -0.3234850  
O     9.1423130    0.3165350   -0.8059580  
C     7.5731020    1.1024730    0.8381780  
O     8.6678860    1.7549920    1.3661420  
C     6.2942670    1.1624560    1.3617320  
H     3.2922800    0.7062300    1.7678800  
H     4.2655170   -1.1836630   -1.8216010  
H     7.1223060   -0.9723240   -1.8436640  
H     9.6850740    0.8759130   -0.2235680  
H     8.4020650    2.2608070    2.1483200  
H     6.0897940    1.7560950    2.2502820  
C    -0.6889430    1.3580590    0.3775480  
C     0.6635450    1.1284900    0.3526630  
C     0.8468600   -0.2513360    0.0020850  
C    -0.4451560   -0.8007590   -0.1919450  
N    -1.3706290    0.2010780    0.0275050  
C    -0.6515820   -2.1327250   -0.5937870  
C     0.4863070   -2.9088720   -0.8144020  
O     0.3507270   -4.2100930   -1.1912460  
C     1.7819180   -2.3648980   -0.6500870  
O     2.7855020   -3.2751690   -0.9021860  
C     1.9998120   -1.0460050   -0.2371210  
H     1.4337530    1.8692100    0.5066370  
H    -2.3579120    0.0515440    0.1836940  
H     1.2491400   -4.5850610   -1.2366360  
H     3.6350000   -2.9056490   -0.5941760  
C    -2.3953650   -3.2910020   -1.9656180  
C    -3.6862650   -3.6856970   -1.8610240  
C    -4.1420500   -3.3287580   -0.5346100  
C    -2.9844680   -2.6859490    0.1387720  
N    -1.9479430   -2.6712480   -0.7866400  
C    -3.0027260   -2.2351810    1.4225860  
C    -4.2375700   -2.3704380    2.1914640  
O    -4.3419440   -1.9962230    3.3499560  
C    -5.4805500   -3.0266540    1.4883920  
O    -6.5252240   -3.1333540    2.1107960  
C    -5.3286440   -3.4912780    0.1064110  
H    -4.2694930   -4.1786110   -2.6251650  
H    -2.1341890   -1.8178890    1.9204640  
H    -6.1865940   -3.9639480   -0.3621410  
H    -1.7068280   -3.3877110   -2.7926480  
C    -1.1550210    3.2978870    1.8536740  
C    -1.9316430    4.4069720    1.8719950  
C    -2.7432330    4.3901910    0.6726140  
C    -2.3632260    3.1615910   -0.0668180  
N    -1.3935270    2.5201430    0.7095430  
C    -2.8812070    2.7982350   -1.2663240  
C    -3.8949860    3.6607850   -1.8734680  
O    -4.4106080    3.4160490   -2.9527890  
C    -4.3306680    4.9554640   -1.0961990  
O    -5.1830220    5.6804680   -1.5837090  
C    -3.6830190    5.2426500    0.1870660  
H    -1.9537170    5.1596220    2.6466860  
H    -2.5771920    1.9074920   -1.8049480  
H    -3.9786220    6.1476440    0.7090490  
H    -0.4290720    2.9449490    2.5734640  
