60


C     4.0712000    0.4113270   -0.0616330  
C     5.3728540    0.1641240    0.3420810  
C     5.6378210   -1.2175750    0.1250350  
C     4.4558680   -1.7880470   -0.4248120  
N     3.5011130   -0.7919920   -0.4885100  
C     4.3688730   -3.1346920   -0.7942670  
C     5.4904460   -3.9232270   -0.5907060  
O     5.4631080   -5.2371840   -0.9307770  
C     6.6782800   -3.3739630   -0.0212280  
O     7.6925050   -4.2953690    0.1203970  
C     6.7626010   -2.0458980    0.3385280  
H     6.0357570    0.8926930    0.7885060  
H     2.6931990   -0.8344300   -1.0939650  
H     3.4735160   -3.5756010   -1.2195720  
H     6.3320060   -5.6173860   -0.7120630  
H     8.4772530   -3.8679980    0.4947800  
H     7.6782390   -1.6448730    0.7672710  
C     3.3156950    1.6302710   -0.0351470  
C     3.7371530    2.9361170   -0.0114790  
C     2.5784610    3.7824710    0.0109390  
C     1.4060570    2.8765710    0.0118520  
N     1.9066870    1.5863840   -0.0787830  
C     0.1041310    3.2870580    0.0622220  
C    -0.1349560    4.7486990    0.1324530  
O    -1.2482390    5.2154830    0.2964450  
C     1.0930470    5.7197250    0.0432550  
O     0.8833080    6.9243830    0.0311520  
C     2.4277610    5.1392730    0.0049120  
H     4.7639620    3.2670600   -0.0706530  
H     3.2737290    5.8190230   -0.0244580  
H     1.3884390    0.7904690    0.2688830  
C    -1.1463390   -0.1061730    2.6656030  
C    -0.4879370    0.9405840    2.1045720  
C    -1.2506250    1.3651840    0.9439860  
C    -2.4219950    0.4652540    0.8846450  
N    -2.3080140   -0.3932830    1.9560270  
C    -3.4142050    0.5373800   -0.0589140  
C    -3.3330490    1.6219620   -1.0403490  
O    -4.2139820    1.8483110   -1.8550540  
C    -2.0501680    2.5281060   -1.0443280  
O    -1.8952640    3.2797340   -1.9860880  
C    -1.0529560    2.3829830    0.0479600  
H     0.4021170    1.4149980    2.4904890  
H    -0.9019580   -0.6812060    3.5486000  
H    -2.8977000   -1.1991430    2.1054050  
C    -5.8610290    0.0748060   -0.2268670  
C    -6.7052510   -0.9829270   -0.2289810  
C    -5.9047700   -2.1822910   -0.1177980  
C    -4.4915130   -1.7287560   -0.0553770  
N    -4.5196860   -0.3390720   -0.0948730  
C    -3.4251160   -2.5737400   -0.0013950  
C    -3.6729410   -4.0134220    0.0308130  
O    -2.7723490   -4.8380070    0.0748340  
C    -5.1629420   -4.5088560    0.0128980  
O    -5.3897970   -5.7064280    0.0759550  
C    -6.2237910   -3.5021310   -0.0859020  
H    -7.7817870   -0.9397490   -0.3081300  
H    -2.3940870   -2.2401130   -0.0321100  
H    -7.2488260   -3.8562160   -0.1399790  
H    -6.0728750    1.1296520   -0.3103540  
