60


C    -6.6561550    0.7315840   -3.4445520  
C    -5.5674670    0.8012330   -2.6140150  
C    -6.0047190    0.4008920   -1.3054380  
C    -7.3860810    0.0908110   -1.4110540  
N    -7.7554200    0.3080480   -2.7228530  
C    -8.1493390   -0.3632500   -0.3294450  
C    -7.5033760   -0.5044590    0.8876030  
O    -8.2009860   -0.9315640    1.9791630  
C    -6.1247140   -0.1953040    1.0215460  
O    -5.6534370   -0.3657030    2.3093320  
C    -5.3534020    0.2528400   -0.0506280  
H    -4.5677300    1.0864720   -2.9090190  
H    -8.6784530    0.1584950   -3.0988270  
H    -9.2049750   -0.6018720   -0.4083870  
H    -7.5811290   -0.9485180    2.7288720  
H    -4.7363970   -0.0577460    2.3707510  
H    -6.7421280    0.9478160   -4.5000310  
C    -3.3084220    1.7316680   -0.3066620  
C    -3.9270620    0.5889550    0.1136700  
C    -2.8731190   -0.2411950    0.7009010  
C    -1.6169510    0.5337340    0.6042180  
N    -1.9530030    1.7224940    0.0037240  
C    -0.3737980    0.0957680    1.0006730  
C    -0.3218170   -1.2472570    1.6295720  
O     0.6667070   -1.6919480    2.1797840  
C    -1.6313470   -2.1149030    1.6511110  
O    -1.5651170   -3.2672540    2.0454780  
C    -2.8878180   -1.5052570    1.2075960  
H    -3.7887700   -2.1084350    1.2548100  
H    -3.7435910    2.5880630   -0.8037270  
H    -1.2658340    2.3843350   -0.3298250  
C     0.8251920    0.8928500    0.8299010  
C     0.9610060    2.2596070    0.8986360  
C     2.3517530    2.5287390    0.6171970  
C     2.9351910    1.1763580    0.3428710  
N     2.0564560    0.2323370    0.4888080  
C     4.3330290    1.0018430   -0.0117310  
C     5.1007030    2.1249600   -0.0096660  
O     6.4074230    2.1357490   -0.3010880  
C     4.5429350    3.4938350    0.2940990  
O     5.3298310    4.4410680    0.2504850  
C     3.1188750    3.6428120    0.6046570  
H     0.2297620    2.9832170    1.2341540  
H     6.6782050    3.0787760   -0.2225610  
H     2.7548830    4.6443540    0.8120900  
C     3.3590460   -1.7835930   -3.2590210  
C     4.1279200   -2.8568280   -2.9669770  
C     4.8649170   -2.4772450   -1.7653920  
C     4.3734280   -1.0944800   -1.4588440  
N     3.5084670   -0.6912970   -2.3410630  
C     4.8692310   -0.3396290   -0.3202120  
C     5.8399530   -0.9323270    0.4260360  
O     6.4036630   -0.3670440    1.5025580  
C     6.3597290   -2.3140960    0.1277550  
O     7.2309250   -2.7631510    0.8704910  
C     5.8156200   -3.0667950   -1.0162860  
H     4.2037940   -3.7947780   -3.4991070  
H     7.0481060   -1.0310380    1.8351640  
H     6.2207450   -4.0576810   -1.1974870  
H     2.6682860   -1.6650000   -4.0855390  
