60


C     4.7844150   -1.9095300   -2.0176310  
C     4.3926390   -1.1415320   -0.9447860  
C     5.5596310   -0.8690570   -0.1467960  
C     6.6412500   -1.5106280   -0.7982710  
N     6.1364800   -2.1378430   -1.9242260  
C     7.9515900   -1.4635390   -0.3054200  
C     8.1676250   -0.7536200    0.8644290  
O     9.4222720   -0.6724440    1.3857730  
C     7.0898040   -0.1046340    1.5309340  
O     7.4700150    0.5537070    2.6804100  
C     5.7979290   -0.1544140    1.0440000  
H     6.6810350   -2.6672300   -2.5875080  
H     8.7856900   -1.9502110   -0.8001010  
H     9.3706470   -0.1244200    2.1881900  
H     6.7136390    1.0301170    3.0540110  
H     4.9883280    0.3480840    1.5680290  
H     4.1982920   -2.3035210   -2.8352690  
C     2.0559810   -1.5129850   -0.1478750  
C     0.9024190   -0.8050370    0.0329090  
C     1.1585120    0.5446790   -0.3854670  
C     2.5728760    0.5712800   -0.8179510  
N     3.0666240   -0.7234560   -0.6755980  
C     3.2355530    1.6673460   -1.2691590  
C     2.5196880    2.9325630   -1.2875890  
O     3.0069450    3.9791930   -1.6842490  
C     1.0435310    2.9588990   -0.7497150  
O     0.5185410    4.0584100   -0.6184700  
C     0.3677710    1.6849500   -0.4184450  
H    -0.0092610   -1.1860080    0.4657730  
H     4.2660210    1.6397760   -1.6053910  
H     2.2661150   -2.5515880    0.0706560  
C    -1.0517720    1.6734410   -0.1278760  
C    -1.9497230    0.6244940   -0.1764120  
C    -3.2407250    1.1209220    0.1826130  
C    -3.0635000    2.5736300    0.4303630  
N    -1.7278360    2.8377230    0.2421270  
C    -4.0646390    3.4307580    0.7581290  
C    -5.4091200    2.8949890    0.8956610  
O    -6.3830460    3.5832910    1.1629790  
C    -5.6205540    1.3493210    0.6996250  
O    -6.7234990    0.8855230    0.9356390  
C    -4.4707090    0.5123490    0.2780360  
H    -1.7309630   -0.3891450   -0.4626460  
H    -3.9119850    4.4947110    0.9091200  
H    -1.2848260    3.7456740    0.1792220  
C    -2.6722240   -3.1446060    2.0265260  
C    -3.4281760   -4.1200260    1.4741460  
C    -4.3530660   -3.4236150    0.5867330  
C    -3.9938230   -1.9721650    0.7425290  
N    -3.0054880   -1.8254120    1.5790460  
C    -4.7122940   -0.9205230    0.0347840  
C    -5.6956880   -1.3422750   -0.8171970  
O    -6.4025070   -0.5124100   -1.5922590  
C    -6.0598210   -2.7884810   -1.0003030  
O    -6.9558950   -3.0565070   -1.7991300  
C    -5.3386700   -3.8232450   -0.2372240  
H    -3.3817510   -5.1864560    1.6457440  
H    -7.0496080   -1.0787240   -2.0679020  
H    -5.6400430   -4.8555230   -0.3872810  
H    -1.8726730   -3.2509660    2.7505680  
