62


C    -2.5413370   -1.6410330    0.7233650  
C    -1.2958560   -1.0966910    0.5566810  
C    -1.4726170    0.1261840   -0.1736280  
C    -2.8626210    0.2750560   -0.4182430  
N    -3.5032000   -0.8227520    0.1402660  
C    -3.4074440    1.3844380   -1.0728640  
C    -2.5279810    2.3659540   -1.5034930  
O    -2.9982920    3.4697460   -2.1461340  
C    -1.1275550    2.2364820   -1.3047300  
O    -0.3691480    3.2462870   -1.8619050  
C    -0.5984710    1.1268430   -0.6496410  
H    -0.3667190   -1.5184750    0.9134730  
H    -4.4713840    1.4942500   -1.2452690  
H    -2.2242390    4.0276090   -2.3447440  
H     0.3833750    3.4650750   -1.2822870  
H    -2.8437110   -2.5650130    1.1957740  
C     1.5720360   -0.0609670   -1.0056280  
C     2.9041380    0.1016630   -0.7715810  
C     3.0382210    1.3636370   -0.0461610  
C     1.6631450    1.8946180    0.1215020  
N     0.8109300    0.9929270   -0.4875900  
C     1.3628930    3.0603460    0.7638440  
C     2.4577290    3.8536890    1.3167680  
O     2.2842790    4.8941230    1.9320010  
C     3.9241760    3.3334740    1.1017510  
O     4.8591190    4.0049400    1.5042930  
C     4.1152150    2.0459310    0.4180310  
H     0.3442100    3.3867760    0.9529570  
H     5.1325690    1.6852660    0.3047130  
H     1.0628640   -0.8681450   -1.5147440  
C     4.1769150   -1.2393880   -2.4875580  
C     3.9788380   -0.7861820   -1.2155890  
C     5.0186720   -1.4034790   -0.3934810  
C     5.8296620   -2.2454730   -1.3077580  
N     5.2546080   -2.1110450   -2.5574480  
C     6.9041440   -2.9813160   -0.9271120  
C     7.2906840   -2.9680080    0.4812970  
O     8.2423320   -3.5967050    0.9173420  
C     6.4265070   -2.1086370    1.4750120  
O     6.7158640   -2.1039660    2.6602140  
C     5.2954010   -1.3439310    0.9348580  
H     7.4867290   -3.5876310   -1.6139730  
H     4.7118130   -0.7509590    1.6316660  
H     3.6182210   -0.9960560   -3.3819570  
H     5.6171600   -2.5191880   -3.4048370  
C    -6.1883230   -0.9443010    3.5717200  
C    -7.3380100   -1.2328810    2.8840420  
C    -6.9907190   -1.3147650    1.4928280  
C    -5.5973120   -1.0645820    1.4061190  
N    -5.1315900   -0.8471240    2.6832550  
C    -4.9044490   -1.0590450    0.1820800  
C    -5.6378720   -1.3076030   -0.9760100  
O    -5.0155620   -1.3213870   -2.1870060  
C    -7.0357330   -1.5445070   -0.8981610  
O    -7.6194240   -1.7672730   -2.1308230  
C    -7.7125030   -1.5571170    0.3068920  
H    -8.3192160   -1.3710090    3.3166290  
H    -4.1809030   -0.6063840    2.9181040  
H    -5.6999330   -1.4979120   -2.8563060  
H    -8.5665850   -1.9343810   -2.0169110  
H    -8.7838860   -1.7447060    0.3331350  
H    -6.0263930   -0.7997220    4.6304320  
