62


C    -4.6065060   -0.6839540   -0.1904150  
C    -5.1253120   -1.9363630    0.0539580  
C    -6.5551970   -1.8319510    0.0247020  
C    -6.8654220   -0.4734790   -0.2443020  
N    -5.6667620    0.2145180   -0.3321890  
C    -8.1790900   -0.0064490   -0.3612930  
C    -9.2033200   -0.9270020   -0.1951600  
O   -10.5034310   -0.5245560   -0.3028300  
C    -8.9131820   -2.2872020    0.0911470  
O   -10.0382500   -3.0772490    0.2380930  
C    -7.6133690   -2.7453540    0.2048090  
H    -4.5430850   -2.8188070    0.2827360  
H    -5.5654270    1.1171250   -0.7724710  
H    -8.4209970    1.0303240   -0.5725880  
H   -11.0598770   -1.3082930   -0.1533970  
H    -9.7706510   -3.9893640    0.4236300  
H    -7.4168370   -3.7933530    0.4229160  
C    -2.1854400   -0.9282030   -0.8662990  
C    -3.2265940   -0.2350310   -0.2931100  
C    -2.6632210    1.0090540    0.1873500  
C    -1.2795090    0.9942470   -0.1161290  
N    -1.0143110   -0.2065010   -0.7369520  
C    -0.4030550    2.0657500    0.1942360  
C    -1.0075000    3.1797320    0.8013030  
O    -0.2642000    4.2824190    1.1226860  
C    -2.3830300    3.1918920    1.1320310  
O    -2.7857870    4.3579660    1.7521420  
C    -3.2119570    2.1238320    0.8467440  
H    -0.1525930   -0.4119920   -1.2181280  
H    -0.8569150    4.9067170    1.5800080  
H    -3.6838070    4.2556920    2.1007690  
H    -4.2621890    2.1462960    1.1267200  
H    -2.1931000   -1.8863180   -1.3654800  
C     1.0261230    2.0002900   -0.0833910  
C     1.8424920    0.8988590   -0.2443930  
C     3.1871410    1.3594630   -0.4622560  
C     3.1159250    2.8387350   -0.4259010  
N     1.7905030    3.1577630   -0.2325780  
C     4.1800430    3.6742120   -0.5491610  
C     5.4960620    3.0829840   -0.7208310  
O     6.5230160    3.7382750   -0.8164420  
C     5.6053310    1.5142910   -0.7835720  
O     6.7079750    1.0225180   -0.9658060  
C     4.3803230    0.6959720   -0.6417990  
H     1.5576130   -0.1307880   -0.0933400  
H     4.0968910    4.7557940   -0.5124010  
H     1.4380940    4.0729570    0.0086430  
C     3.6842030   -1.5473930   -1.5509680  
C     4.4720440   -0.7629460   -0.7578050  
C     5.3840550   -1.6791600   -0.0617980  
C     5.0387910   -3.0457540   -0.5247550  
N     3.9918300   -2.8942910   -1.4147140  
C     5.6568050   -4.1841830   -0.1193440  
C     6.7287890   -4.0768750    0.8634290  
O     7.3421550   -5.0421370    1.2936550  
C     7.0919470   -2.6432980    1.3956980  
O     7.9638350   -2.5306630    2.2417960  
C     6.3623130   -1.4867280    0.8574340  
H     5.3863070   -5.1713180   -0.4818540  
H     6.6563960   -0.5040710    1.2067160  
H     2.9120170   -1.2377040   -2.2428330  
H     3.6227250   -3.6338200   -1.9919440  
