62


C     2.6901700   -1.3519150   -0.2339460  
C     3.6840630   -0.4465220    0.1585080  
C     4.9271230   -1.1197930    0.1221600  
C     4.6613100   -2.4589050   -0.2991730  
N     3.3149320   -2.5658510   -0.5043990  
C     5.6735990   -3.4168740   -0.4437260  
C     6.9693660   -3.0206470   -0.1594960  
O     7.9925170   -3.9064720   -0.2815540  
C     7.2545490   -1.6847600    0.2639250  
O     8.5948990   -1.4631940    0.5028590  
C     6.2616000   -0.7425180    0.4069760  
H     3.5202870    0.5717050    0.4732530  
H     2.7827230   -3.3903350   -0.7517140  
H     5.4795310   -4.4350760   -0.7632650  
H     8.8131050   -3.4410770   -0.0419520  
H     8.7313260   -0.5428400    0.7726880  
H     6.4998300    0.2689670    0.7291390  
C    -0.1423810    2.1590740   -0.2062420  
C     1.0103570    1.4036860   -0.2233650  
C     0.5939670    0.0289920   -0.2954810  
C    -0.8839650    0.1049200   -0.3005700  
N    -1.3045840    1.3362020   -0.2338220  
C    -1.7583670   -1.0768290   -0.3681220  
C    -1.0865000   -2.2626400   -0.5030570  
O    -1.7010300   -3.4566580   -0.6738680  
C     0.3924210   -2.3732380   -0.5305580  
O     0.8403090   -3.5210400   -0.7152700  
C     1.2636660   -1.1779870   -0.3476540  
H     2.0181880    1.7776500   -0.3220630  
H    -0.9625010   -4.0989220   -0.7776580  
C    -3.9075340    0.2058770   -0.6957060  
C    -3.2032980   -0.9251380   -0.3513530  
C    -4.2573990   -1.8832730    0.0652510  
C    -5.5295510   -1.1265400   -0.1334920  
N    -5.3086590    0.0793400   -0.5854500  
C    -6.8174140   -1.6911760    0.1650180  
C    -6.8563430   -2.9440840    0.6774500  
O    -7.9811920   -3.5948300    1.0150560  
C    -5.5957250   -3.7211460    0.9271610  
O    -5.7079400   -4.8491010    1.4071390  
C    -4.2869010   -3.1226050    0.5946450  
H    -7.7138490   -1.1062600   -0.0085420  
H    -7.6801810   -4.4658790    1.3572810  
H    -3.4105950   -3.7319410    0.7702870  
H    -3.4882150    1.1465130   -1.0217080  
C     2.3319510    5.1002330    1.9212820  
C     1.6506620    6.2287350    1.5464950  
C     0.5712640    5.8057260    0.7003120  
C     0.6572870    4.3968210    0.5864750  
N     1.7478730    3.9958950    1.3280370  
C    -0.2754590    3.6048570   -0.1313840  
C    -1.3219800    4.3130760   -0.7514220  
O    -2.2431980    3.6686220   -1.5127190  
C    -1.4067840    5.7269420   -0.6530160  
O    -2.4817490    6.2600050   -1.3405160  
C    -0.4842720    6.4758820    0.0507170  
H     1.8864890    7.2425860    1.8394370  
H     1.9546610    3.0311380    1.5395250  
H    -2.8696600    4.3423830   -1.8327300  
H    -2.5068130    7.2195210   -1.2129870  
H    -0.5787610    7.5586580    0.1042560  
H     3.1996860    4.9860760    2.5555000  
