62


C     0.9561140    0.5250950   -0.5550010  
C     2.1202060   -0.1541880   -0.2935770  
C     3.2012380    0.7577360   -0.5561600  
C     2.6202970    1.9886820   -0.9602750  
N     1.2477070    1.8209620   -0.9532520  
C     3.3785570    3.1253680   -1.2574590  
C     4.7551180    3.0099080   -1.1444630  
O     5.5493430    4.0781390   -1.4272720  
C     5.3609300    1.7873130   -0.7455040  
O     6.7342690    1.8460590   -0.7150080  
C     4.6157370    0.6465610   -0.4479320  
H     2.1920660   -1.1628110    0.0868800  
H     0.5688410    2.4868780   -1.2898200  
H     2.9383360    4.0698950   -1.5589420  
H     6.4688310    3.7975120   -1.2715310  
H     7.0837420    1.0524940   -0.2719220  
C    -0.8184570   -1.1190910   -1.0932160  
C    -2.1382770   -1.3168320   -0.8506150  
C    -2.6133790   -0.2010060   -0.0636020  
C    -1.4429670    0.6783190    0.1401790  
N    -0.3687350    0.0702890   -0.5084550  
C    -1.4504370    1.8449740    0.8410090  
C    -2.7143130    2.2936730    1.3935060  
O    -2.8473070    3.3303970    2.0264000  
C    -3.9927280    1.4076120    1.1517640  
O    -5.0560140    1.8266820    1.5766260  
C    -3.8612250    0.1067920    0.4410040  
H    -2.7301470   -2.1408360   -1.2173000  
H    -0.5654430    2.4471580    1.0122750  
H    -0.1178620   -1.7149730   -1.6616790  
C    -4.9436580   -2.1728390    0.4250250  
C    -4.9922660   -0.8037590    0.3527410  
C    -6.4340480   -0.5193030    0.1385270  
C    -7.0654860   -1.8696680    0.0948250  
N    -6.1855200   -2.8207750    0.2767390  
C    -8.4750990   -2.0514630   -0.1195900  
C    -9.2350830   -0.9451310   -0.3027540  
O   -10.5587420   -0.9614470   -0.5199640  
C    -8.6296520    0.4304020   -0.2808530  
O    -9.3786380    1.3868180   -0.4682670  
C    -7.1777440    0.5889000   -0.0393590  
H    -8.8933150   -3.0516940   -0.1376060  
H   -10.8189880   -0.0184840   -0.6148290  
H    -6.7937030    1.5998920    0.0090270  
H    -4.0675910   -2.7787150    0.6220220  
C     7.5537850   -0.4362380    2.8031480  
C     6.6628380    0.2287060    1.9993780  
C     6.2043920   -0.7108320    1.0080560  
C     6.8606480   -1.9422190    1.2745050  
N     7.6758030   -1.7416800    2.3697910  
C     6.6404450   -3.0998370    0.5189790  
C     5.7387060   -3.0088240   -0.5284670  
O     5.4882570   -4.1014870   -1.3057020  
C     5.0754540   -1.7871890   -0.8190580  
O     4.2376860   -1.8643010   -1.9113140  
C     5.2864370   -0.6267300   -0.0755620  
H     6.3458990    1.2551570    2.1190380  
H     8.2611860   -2.4441240    2.7941460  
H     7.1392650   -4.0422430    0.7202240  
H     4.8558930   -3.8243420   -1.9913900  
H     3.8096850   -1.0010650   -2.0424310  
H     8.1111910   -0.0875100    3.6608990  
