62


C    -3.7024910   -0.6210400    0.1981560  
C    -3.5798320    0.7551240    0.0576520  
C    -4.8947120    1.2973330   -0.0857880  
C    -5.7993280    0.2030390   -0.0259570  
N    -5.0511610   -0.9403480    0.1343210  
C    -7.1873890    0.3654480   -0.1234120  
C    -7.6709250    1.6542030   -0.2838510  
O    -9.0156090    1.8704440   -0.3843820  
C    -6.7805140    2.7607090   -0.3466020  
O    -7.4165550    3.9782870   -0.5098540  
C    -5.4117990    2.5991380   -0.2509410  
H    -2.6651440    1.3251740    0.1443690  
H    -5.4016200   -1.8661990    0.3308770  
H    -7.8820370   -0.4669730   -0.0785660  
H    -9.1439420    2.8287010   -0.4909780  
H    -6.7547730    4.6845480   -0.5454330  
H    -4.7507020    3.4623460   -0.3017280  
C     0.4985860   -0.6109130   -1.0458900  
C     0.8874550   -1.8313280   -0.5130260  
C    -0.3044930   -2.3982810    0.0922350  
C    -1.3487650   -1.4596570   -0.0869920  
N    -0.8265650   -0.3850130   -0.7814460  
C    -2.6749260   -1.6458990    0.3725350  
C    -2.9151280   -2.8800920    0.9866060  
O    -4.1754750   -3.2016380    1.4230690  
C    -1.8809950   -3.8279030    1.1797880  
O    -2.3025050   -4.9771420    1.8225490  
C    -0.5844090   -3.6032720    0.7642840  
H    -1.3932120    0.3425120   -1.1931880  
H    -4.1233360   -4.1001770    1.7957120  
H    -1.6062430   -5.6490160    1.7712420  
H     0.1791650   -4.3607960    0.8987330  
H     1.0621320    0.0822220   -1.6543840  
C     4.7168800    0.1649180    0.0878020  
C     5.5708730   -0.8786630   -0.1437360  
C     4.7640160   -2.0311030   -0.4528000  
C     3.3617100   -1.5788590   -0.4003610  
N     3.3928960   -0.2066660   -0.1248610  
C     2.2523260   -2.3609500   -0.5611100  
C     2.5320770   -3.7948460   -0.8332030  
O     1.6493760   -4.6216800   -0.9869940  
C     4.0268380   -4.2880680   -0.9459170  
O     4.2176040   -5.4748480   -1.1735320  
C     5.0916690   -3.3233960   -0.7449060  
H     6.6502030   -0.8358170   -0.1505350  
H     6.1177240   -3.6721570   -0.8023380  
H     2.6109610    0.2401030    0.3400520  
C     6.1641740    1.7795130    1.2517490  
C     6.2180300    3.1008960    1.5255960  
C     5.0582460    3.7243530    0.9206390  
C     4.3062300    2.6383070    0.2454770  
N     5.0195740    1.4562840    0.4947170  
C     3.1814830    2.8410760   -0.4847240  
C     2.6398470    4.1994770   -0.5730730  
O     1.6236200    4.4584660   -1.1971930  
C     3.4010400    5.3536720    0.1664420  
O     2.9567510    6.4882170    0.1160830  
C     4.6327740    5.0123950    0.8869490  
H     6.9802060    3.6013760    2.1052310  
H     2.6642560    2.0598070   -1.0271070  
H     5.1743190    5.8198360    1.3701280  
H     6.8299010    0.9818690    1.5491200  
