62


C     4.2189880   -1.0372230   -1.5550640  
C     4.7155780   -0.1059030   -0.6510060  
C     5.9281470   -0.6952490   -0.1040100  
C     6.0805630   -1.9698600   -0.7031960  
N     5.0257730   -2.1435900   -1.5848250  
C     7.1253630   -2.8474520   -0.3929410  
C     8.0479990   -2.4270420    0.5520990  
O     9.0958790   -3.2311140    0.8903830  
C     7.9118630   -1.1567460    1.1704940  
O     8.9060670   -0.8748160    2.0883650  
C     6.8745460   -0.2986600    0.8612720  
H     4.9212320   -2.9221860   -2.2168370  
H     7.2362110   -3.8207940   -0.8599580  
H     9.6331570   -2.7398520    1.5363560  
H     8.8375290    0.0532880    2.3585820  
H     6.8149300    0.6805180    1.3226450  
H     3.3731050   -0.9502280   -2.2213020  
C     0.4212790    1.0694800   -0.3161980  
C     1.6251610    0.3821040   -0.3991610  
C     2.6946860    1.3281190   -0.3465960  
C     2.0546250    2.6551310   -0.2073470  
N     0.7008530    2.4358800   -0.2315420  
C     2.7200250    3.8356650   -0.0725910  
C     4.1648480    3.7985050   -0.0348600  
O     4.8723100    4.7865450    0.1125300  
C     4.8819570    2.4009750   -0.1764910  
O     6.1027670    2.3911430   -0.1257590  
C     4.0727830    1.1730680   -0.3756150  
H     1.7440300   -0.6882990   -0.3888350  
H     2.2177130    4.7925100    0.0262950  
H    -0.0345500    3.1078870   -0.0477850  
C    -1.4669030   -2.8425890   -1.3816410  
C    -0.6028980   -1.7914180   -1.2456610  
C    -1.3157260   -0.7180980   -0.6108790  
C    -2.6729180   -1.2185870   -0.3806800  
N    -2.6879470   -2.5339000   -0.8255280  
C    -3.7366790   -0.5245570    0.1561440  
C    -3.4580070    0.8882660    0.4508820  
O    -4.2832560    1.6624850    0.9093350  
C    -2.0198170    1.4708840    0.1734060  
O    -1.8971660    2.6820750    0.3337230  
C    -0.9334670    0.5795560   -0.2576390  
H     0.4145920   -1.7699990   -1.5992790  
H    -1.3039240   -3.8094390   -1.8388930  
H    -3.5456070   -3.0500550   -0.9604560  
C    -5.1881870   -2.4335770    0.9299620  
C    -5.0281620   -1.1381570    0.4498400  
C    -6.3696250   -0.5969960    0.3091530  
C    -7.2722810   -1.6142410    0.7050830  
N    -6.5211550   -2.7146340    1.0804030  
C    -8.6636920   -1.4626700    0.6742620  
C    -9.1596480   -0.2467040    0.2334000  
O   -10.5035520   -0.0327250    0.1904610  
C    -8.2723490    0.7867030   -0.1721570  
O    -8.9136790    1.9381760   -0.5820510  
C    -6.9010800    0.6268500   -0.1447660  
H    -6.8934620   -3.5626120    1.4796720  
H    -9.3489060   -2.2456470    0.9822300  
H   -10.6391830    0.8820320   -0.1132040  
H    -8.2617920    2.6440630   -0.7081190  
H    -6.2476350    1.4442170   -0.4286460  
H    -4.4369150   -3.1433100    1.2471110  
