60


C    -3.8995190    0.0313510    0.0650660  
C    -4.3359640   -1.2417360    0.4438800  
C    -5.7119820   -1.3453950    0.0997360  
C    -6.0862350   -0.1024940   -0.4900390  
N    -4.9769660    0.7035050   -0.4915350  
C    -7.3831080    0.1508550   -0.9540910  
C    -8.3163510   -0.8650240   -0.8262510  
O    -9.5923680   -0.6751560   -1.2621750  
C    -7.9594790   -2.1157890   -0.2419140  
O    -9.0044430   -3.0173620   -0.1893330  
C    -6.6832560   -2.3648780    0.2175120  
H    -3.7154930   -2.0433250    0.8190120  
H    -4.8618590    1.6152960   -0.9177900  
H    -7.6724750    1.0944970   -1.4041140  
H   -10.0825980   -1.4983990   -1.0929710  
H    -8.6932240   -3.8534350    0.1878760  
H    -6.4340280   -3.3275060    0.6596900  
C    -0.4475080   -0.8628100    2.6121570  
C     0.4388710    0.0428650    2.1260810  
C    -0.2256330    0.7824910    1.0777320  
C    -1.5824120    0.2154390    0.9821830  
N    -1.6476810   -0.8068550    1.9080670  
C    -2.5947730    0.6511500    0.1528280  
C    -2.2724260    1.8632350   -0.6189860  
O    -3.1040190    2.5104470   -1.2451820  
C    -0.7885280    2.3758890   -0.6672680  
O    -0.5151170    3.1910340   -1.5318180  
C     0.1893160    1.8385060    0.2942860  
H     1.4674120    0.1518370    2.4281620  
H    -0.3232760   -1.5877550    3.4054390  
H    -2.5293450   -1.1640360    2.2485510  
C     4.2222670    0.0343010   -0.0463940  
C     5.0091220    1.1488590   -0.0853520  
C     4.1029030    2.2694010    0.0739680  
C     2.7474770    1.6376430    0.1784370  
N     2.8253020    0.3421290    0.1096020  
C     1.5342810    2.4331010    0.3183220  
C     1.7206150    3.7861000    0.4123530  
O     0.7219420    4.6527100    0.6189280  
C     3.0683470    4.4378640    0.3318390  
O     3.1196080    5.6643060    0.4349420  
C     4.2680570    3.6054900    0.1431180  
H     6.0865060    1.1959200   -0.1591120  
H     1.1409020    5.5421430    0.6166930  
H     5.2244650    4.1144870    0.0723360  
C     7.1371340   -2.1995810   -2.5797760  
C     6.3958880   -1.1914840   -2.0561200  
C     5.5921070   -1.8129660   -1.0139320  
C     5.9875510   -3.2557220   -1.0679900  
N     6.8923290   -3.4732790   -1.9801190  
C     5.3901270   -4.2387130   -0.2040770  
C     4.4482870   -3.8170850    0.6703390  
O     3.8166100   -4.6208490    1.5408810  
C     4.0449490   -2.3682160    0.7795370  
O     3.2617950   -2.0791280    1.6789930  
C     4.6460460   -1.3572430   -0.1455320  
H     6.3792590   -0.1530230   -2.3521780  
H     5.6987020   -5.2763570   -0.2659280  
H     3.2336100   -4.0278140    2.0641480  
H     7.8614940   -2.1414670   -3.3836810  
