60


C    -6.8392120   -1.2762280    2.3554000  
C    -6.9525490   -2.5569810    1.8834800  
C    -5.8497760   -2.7784240    0.9914590  
C    -5.0962870   -1.5742020    0.9678790  
N    -5.7140420   -0.6807800    1.8134080  
C    -3.9305710   -1.4366340    0.1922460  
C    -3.5219060   -2.5392060   -0.5578670  
O    -2.3932730   -2.4668740   -1.3361440  
C    -4.2590970   -3.7474250   -0.5231940  
O    -3.7126480   -4.7427200   -1.3119030  
C    -5.4097300   -3.8794170    0.2319770  
H    -7.7283240   -3.2639300    2.1420410  
H    -5.4359160    0.2790920    1.9500110  
H    -2.3373500   -3.3165490   -1.8099970  
H    -4.3292610   -5.4872960   -1.3732750  
H    -5.9554450   -4.8201510    0.2435070  
H    -7.4685200   -0.7269560    3.0409940  
C    -1.7946130   -0.1936190    0.3973590  
C    -1.2686300    1.0441330    0.1718900  
C    -2.3943080    1.8970320   -0.2205260  
C    -3.5925320    1.0216660   -0.2356150  
N    -3.1693590   -0.2398250    0.1773800  
C    -4.8363580    1.4231660   -0.6074840  
C    -5.0265590    2.8146870   -1.0069460  
O    -6.1068750    3.2649620   -1.3574990  
C    -3.7763890    3.7633830   -0.9817630  
O    -3.9102680    4.9291260   -1.3157870  
C    -2.4818680    3.2050550   -0.5675620  
H    -5.6896670    0.7553400   -0.6488860  
H    -1.6313670    3.8757810   -0.5428420  
H    -1.2948050   -1.0903650    0.7357840  
C     2.1487110   -1.1198250   -1.4583170  
C     3.1785130   -0.3342210   -1.0264760  
C     2.5687430    0.7689150   -0.2873170  
C     1.1077770    0.5423280   -0.3278600  
N     0.9222260   -0.6268610   -1.0422310  
C     0.1602650    1.3638590    0.2262760  
C     0.6593960    2.5741420    0.9042010  
O    -0.0790700    3.3824550    1.4437810  
C     2.2107490    2.8399610    0.9406710  
O     2.6112620    3.8603880    1.4766620  
C     3.1029030    1.8627330    0.3193610  
H     4.1699100    2.0559940    0.3531690  
H     2.1964230   -2.0343930   -2.0349150  
H     0.0190240   -1.0075690   -1.2896060  
C     5.1836080   -0.7007360   -2.5169430  
C     4.6028170   -0.5391900   -1.2929530  
C     5.6792860   -0.6563230   -0.3099890  
C     6.9248800   -0.8970120   -1.0794780  
N     6.5487570   -0.9302940   -2.4093360  
C     8.1538540   -1.0522220   -0.5259380  
C     8.2710310   -1.0001550    0.9290840  
O     9.3331620   -1.1302210    1.5172400  
C     6.9592390   -0.7771180    1.7673560  
O     7.0306770   -0.7559090    2.9850760  
C     5.6910880   -0.6069370    1.0470440  
H     9.0544000   -1.2228280   -1.1079320  
H     4.7949820   -0.4452630    1.6374580  
H     4.7165840   -0.6638740   -3.4925760  
H     7.1876280   -1.0034620   -3.1856200  
