62


C     2.2986550    2.7478020   -0.8725690  
C     1.1155000    2.1515180   -0.5102460  
C     0.1050730    3.1674810   -0.5400200  
C     0.7487180    4.3755480   -0.9189110  
N     2.0819810    4.0860690   -1.1191390  
C     0.0788600    5.5975870   -1.0293510  
C    -1.2801540    5.6128830   -0.7522950  
O    -1.9789640    6.7768210   -0.8656970  
C    -1.9558050    4.4304330   -0.3673290  
O    -3.3045050    4.6174480   -0.1567750  
C    -1.2934110    3.1941460   -0.2511840  
H     0.9978370    1.1117940   -0.2434030  
H     2.7852160    4.7483870   -1.4076940  
H     0.5732720    6.5157920   -1.3297690  
H    -2.9141450    6.5689230   -0.6934570  
H    -3.7563410    3.7532110   -0.1397660  
H     3.2852470    2.3196330   -0.9790420  
C    -2.0127220    1.9877610    0.1071210  
C    -1.7876110    0.6833610   -0.2545410  
C    -2.7894150   -0.1505730    0.3390360  
C    -3.6651670    0.7575810    1.1068100  
N    -3.2033570    2.0622680    0.8872430  
C    -4.7036270    0.3615970    1.8771520  
C    -5.0263240   -1.0610950    1.8852560  
O    -5.9122200   -1.5434450    2.5712200  
C    -4.2214780   -2.0071810    0.9244740  
O    -4.6763500   -3.1433250    0.7687820  
C    -3.0091100   -1.5148450    0.2682750  
H    -1.0249290    0.3504880   -0.9392520  
H    -5.3086300    1.0352040    2.4757280  
H    -3.2445870    2.7265130    1.6537140  
C     1.4514130   -1.9997010    0.5738290  
C     0.1321610   -1.6497240    0.7795170  
C    -0.6689950   -2.3623120   -0.1719930  
C     0.2245020   -3.1575850   -0.9365270  
N     1.5070790   -2.8866620   -0.4971610  
C    -0.2032770   -4.0542340   -1.9199700  
C    -1.5717890   -4.1628520   -2.1111740  
O    -2.0679640   -5.0367150   -3.0248160  
C    -2.4936140   -3.3704890   -1.3705110  
O    -3.8050470   -3.5909330   -1.7109950  
C    -2.0719810   -2.4257260   -0.4310890  
H    -0.2089360   -0.9350080    1.5141760  
H     2.3181120   -3.4406530   -0.7286830  
H     0.4777960   -4.6698620   -2.4983070  
H    -3.0399560   -4.9639150   -2.9549130  
H    -4.3219260   -3.5907440   -0.8690210  
C     2.7663840   -1.4250620    2.6423370  
C     2.6479390   -1.5883740    1.2912980  
C     3.9405250   -1.2163330    0.7188270  
C     4.8100730   -0.8308840    1.8597820  
N     4.0298980   -0.9604490    2.9901100  
C     6.1026320   -0.4331550    1.7403850  
C     6.6832970   -0.3491400    0.4040410  
O     7.8349700    0.0012330    0.1965000  
C     5.7687120   -0.7143490   -0.8226650  
O     6.2249790   -0.6185830   -1.9508470  
C     4.3925280   -1.1510550   -0.5612150  
H     6.7239640   -0.1608760    2.5881200  
H     3.7712110   -1.3984530   -1.4164250  
H     2.0259850   -1.6116340    3.4085540  
H     4.3574710   -0.8255420    3.9338220  
