60


C    -6.7466070    2.5597430   -0.3820210  
C    -5.5540180    1.8848470   -0.3151700  
C    -5.8535870    0.5114330   -0.0190720  
C    -7.2692960    0.4171730    0.0690820  
N    -7.7824270    1.6812740   -0.1395820  
C    -7.9430360   -0.7857320    0.2941460  
C    -7.1667680   -1.9297360    0.4050240  
O    -7.7572370   -3.1367770    0.6083810  
C    -5.7513500   -1.8773010    0.3082950  
O    -5.1447400   -3.1016730    0.4687830  
C    -5.0623440   -0.6694230    0.1353490  
H    -4.5787340    2.3238570   -0.4636520  
H    -8.7634020    1.9100660   -0.1749220  
H    -9.0241700   -0.8562470    0.3566620  
H    -7.0284950   -3.7872710    0.6136280  
H    -4.4419680   -3.1661700   -0.2173490  
H    -6.9444020    3.6032470   -0.5823320  
C    -2.2010760    1.9030330    2.3386810  
C    -3.3019150    1.2517650    1.8861760  
C    -2.8757470    0.3320000    0.8544140  
C    -1.4117810    0.5088840    0.7436330  
N    -1.0597080    1.4598430    1.6690280  
C    -0.6108780   -0.1633460   -0.1461790  
C    -1.2446950   -1.1976520   -0.9545860  
O    -0.6426140   -1.8887020   -1.7621990  
C    -2.7777760   -1.4876460   -0.7259180  
O    -3.2042570   -2.5063640   -1.2642810  
C    -3.5870060   -0.5890140    0.1096350  
H    -4.3131020    1.3773790    2.2384360  
H    -2.1101380    2.6524470    3.1130620  
H    -0.1423100    1.8731390    1.7449210  
C     1.7437720   -0.9172840   -0.3749060  
C     2.9908240   -0.4086350   -0.5665520  
C     2.8373760    1.0407640   -0.6572160  
C     1.3879140    1.3182090   -0.5110120  
N     0.7657230    0.0876550   -0.3146090  
C     0.8384690    2.5595150   -0.6004540  
C     1.7217940    3.7019750   -0.8301720  
O     1.3101570    4.8482780   -0.9182090  
C     3.2602950    3.4290570   -0.9706840  
O     4.0163170    4.3678140   -1.1561660  
C     3.7275170    2.0395840   -0.8843100  
H    -0.2283680    2.7471160   -0.5607920  
H     4.7887080    1.8578800   -1.0197750  
H     1.4441200   -1.9478460   -0.2588690  
C     4.4016310   -2.2478150   -1.5498010  
C     4.2211810   -1.1850280   -0.7114570  
C     5.4711870   -1.0275840    0.0289830  
C     6.3837040   -2.0898560   -0.4632220  
N     5.6657680   -2.7995030   -1.4078290  
C     7.6540950   -2.2769920   -0.0257300  
C     8.1678870   -1.3899040    1.0151500  
O     9.2975080   -1.4800340    1.4695360  
C     7.2081320   -0.2780450    1.5762120  
O     7.6070530    0.4563810    2.4651780  
C     5.8592110   -0.1693240    1.0078020  
H     8.3067360   -3.0585620   -0.4024990  
H     5.2109180    0.6068810    1.4012040  
H     3.7043380   -2.6627720   -2.2660980  
H     6.0346270   -3.5554010   -1.9635830  
