60


C     4.6110470    0.1187390    2.8593420  
C     3.5778530   -0.3914480    2.1125670  
C     4.1552490   -1.0857570    0.9962840  
C     5.5639640   -0.9710030    1.1374850  
N     5.8094160   -0.2160270    2.2665210  
C     6.4724360   -1.5838800    0.2709340  
C     5.9446570   -2.3638400   -0.7472450  
O     6.7734630   -2.9994450   -1.6145250  
C     4.5431910   -2.5240410   -0.9094890  
O     4.2094800   -3.3074020   -1.9822360  
C     3.6179480   -1.8592860   -0.0853220  
H     2.5287840   -0.2870210    2.3459790  
H     6.7233680   -0.0161100    2.6420870  
H     7.5483420   -1.4969240    0.3831170  
H     6.1931170   -3.5169020   -2.2058560  
H     3.4432760   -3.8671900   -1.7090990  
H     4.5894120    0.6970340    3.7721470  
C     0.4936750    1.2926430   -0.2114450  
C     1.6661110    0.5839220   -0.2010940  
C     1.3436530   -0.8131490   -0.2795750  
C    -0.1232690   -0.8897280   -0.3515650  
N    -0.5887560    0.4086620   -0.3517990  
C    -0.8786690   -2.0433650   -0.3283250  
C    -0.1063230   -3.2983790   -0.3991870  
O    -0.5943840   -4.4084410   -0.4568880  
C     1.4649150   -3.2096290   -0.5261000  
O     2.0338160   -4.2576820   -0.8207790  
C     2.1645230   -1.9307070   -0.3042510  
H     2.6595390    1.0037270   -0.1895300  
H    -1.5349530    0.6218780   -0.0554090  
C     0.2816530    2.7159440   -0.1636580  
C     1.0981690    3.6934930    0.3403360  
C     0.4344890    4.9593150    0.1658090  
C    -0.8575720    4.6590820   -0.4965440  
N    -0.9289330    3.2732410   -0.6151270  
C    -1.7520580    5.5967950   -0.8880760  
C    -1.4495460    7.0030050   -0.6134560  
O    -2.1977160    7.9140520   -0.9276910  
C    -0.1063790    7.3408720    0.1300260  
O     0.1551060    8.5069230    0.3803540  
C     0.7872910    6.2353810    0.4842970  
H     2.0450970    3.5296310    0.8346630  
H    -2.6899880    5.3626150   -1.3822440  
H     1.7220310    6.4804870    0.9791480  
H    -1.4732760    2.8348750   -1.3461960  
C    -2.3226690   -2.0372670   -0.2347120  
C    -3.2095060   -1.1111300   -0.7426360  
C    -4.5194180   -1.5598140   -0.3392810  
C    -4.2477760   -2.7978720    0.4620520  
N    -2.9779560   -3.0750240    0.5137400  
C    -5.3135920   -3.5449370    1.0779590  
C    -6.5797750   -3.1062210    0.8847790  
O    -7.6696420   -3.7015240    1.3858880  
C    -6.8864900   -1.8725640    0.0634250  
O    -8.0713110   -1.5566690   -0.0512160  
C    -5.7846040   -1.1179570   -0.5395090  
H    -2.9999130   -0.3006900   -1.4276090  
H    -5.0894280   -4.4319650    1.6595640  
H    -8.4278430   -3.1573500    1.0737730  
H    -6.0435300   -0.2338530   -1.1141000  
