62


C    -6.7425320    1.1747730   -0.0602300  
C    -5.4235620    1.3737100    0.2496100  
C    -4.8056200    0.0765940    0.3084620  
C    -5.8195220   -0.8823810    0.0323320  
N    -6.9849740   -0.1806050   -0.1944510  
C    -5.5978140   -2.2634150    0.0460610  
C    -4.3129880   -2.6921280    0.3477500  
O    -4.0227110   -4.0183770    0.3892550  
C    -3.2671850   -1.7669610    0.6101290  
O    -2.0709010   -2.3403460    1.0032670  
C    -3.5036820   -0.3904720    0.5937030  
H    -4.9485570    2.3289230    0.4181100  
H    -7.8761140   -0.5947310   -0.4177690  
H    -6.3795950   -2.9885360   -0.1548410  
H    -3.0752730   -4.0740120    0.6269680  
H    -1.3463490   -2.2378620    0.3481120  
H    -7.5399140    1.8912370   -0.1977780  
C    -1.5281440    0.3394620    1.9153870  
C    -0.4390860    1.1378670    1.7779860  
C    -0.6008330    1.8790700    0.5494770  
C    -1.9156370    1.4728890   -0.0049520  
N    -2.4339430    0.5108640    0.8663490  
C    -2.4258910    1.9523580   -1.1684780  
C    -1.6603840    2.9629880   -1.8916820  
O    -2.0776810    3.5204320   -2.8959080  
C    -0.2165390    3.3273470   -1.3802970  
O     0.4744060    4.0638870   -2.0634360  
C     0.2570000    2.7120530   -0.1227100  
H     0.3910640    1.2141170    2.4638720  
H    -3.3770050    1.6355120   -1.5786140  
H    -1.7660880   -0.3693560    2.6947110  
C     3.0528620   -0.5703660    0.0285760  
C     4.2071230    0.1466820    0.3756990  
C     3.8413880    1.5185270    0.4933370  
C     2.4489000    1.5952710    0.2158050  
N     2.0152210    0.3346080   -0.0760300  
C     1.6911160    2.7846900    0.2365620  
C     2.3993880    3.9457340    0.5309930  
O     1.7556940    5.1344170    0.6023700  
C     3.8021810    3.8965610    0.8093120  
O     4.3371940    5.1355810    1.0961960  
C     4.5229900    2.7204090    0.7985940  
H     5.1750370   -0.2718620    0.6143260  
H     1.0621840    0.0412300   -0.2402780  
H     2.4240760    5.8237270    0.7620450  
H     5.2965690    5.0600330    1.2062130  
H     5.5877790    2.7256810    1.0220690  
C     5.7673690   -3.9574260   -0.7212130  
C     4.8637400   -4.9728080   -0.6911380  
C     3.5605580   -4.3862450   -0.4780510  
C     3.7823400   -2.9353870   -0.3656860  
N     5.1444530   -2.7364790   -0.4826450  
C     2.8025840   -1.9820810   -0.1754790  
C     1.4268820   -2.5139270   -0.2062590  
O     0.4246380   -1.7978350   -0.2215160  
C     1.1753020   -4.0703560   -0.2299330  
O     0.0109000   -4.4414240   -0.1339910  
C     2.3134130   -4.9440400   -0.3824010  
H     5.0756870   -6.0255120   -0.8089560  
H     2.1418680   -6.0141670   -0.4268820  
H     6.8370240   -3.9921080   -0.8797470  
H     5.5456880   -1.8356620   -0.7015860  
