60


C     4.6268390   -1.9902110   -1.3949360  
C     5.7839780   -2.6963910   -1.2653350  
C     6.6991260   -1.8890090   -0.5025050  
C     6.0419750   -0.6710320   -0.2061870  
N     4.7549390   -0.7426960   -0.7634360  
C     6.6321490    0.3236590    0.5799350  
C     7.9194460    0.0963600    1.0435170  
O     8.5384320    1.0425660    1.8043890  
C     8.5993470   -1.1109480    0.7373890  
O     9.8689250   -1.1890710    1.2705660  
C     8.0040210   -2.1012420   -0.0233810  
H     5.9776420   -3.6743600   -1.6848980  
H     6.1469360    1.2627840    0.8125910  
H     9.4328200    0.7165250    2.0040370  
H    10.3002460   -2.0023570    0.9691440  
H     8.5321030   -3.0287680   -0.2344880  
H     3.7218510   -2.2194670   -1.9376590  
C     0.5389560   -1.1737710    0.2527010  
C     1.8598060   -1.3791290    0.0635830  
C     2.4452910   -0.1263940   -0.3696170  
C     1.3458140    0.8544710   -0.4287780  
N     0.1903500    0.1655930   -0.0214400  
C     1.4803220    2.1484330   -0.8259670  
C     2.8133580    2.6263810   -1.1633680  
O     3.0532220    3.7834300   -1.4675420  
C     4.0098970    1.6089150   -1.1294020  
O     5.1050480    1.9812410   -1.4992310  
C     3.7346520    0.2093030   -0.6930720  
H     2.3914030   -2.3027380    0.2356030  
H     0.6561360    2.8423010   -0.9318620  
H    -0.2263140   -1.8479510    0.6085680  
C    -1.0993590    0.6484120    0.1162570  
C    -2.2789610   -0.0374730    0.0036930  
C    -3.3436050    0.8875560    0.2968660  
C    -2.6941450    2.1847040    0.5909670  
N    -1.3236190    1.9883110    0.4278090  
C    -3.3440410    3.3223970    0.9281860  
C    -4.8046740    3.2853360    0.9865010  
O    -5.4804900    4.2630850    1.2594410  
C    -5.5255650    1.9227930    0.6880920  
O    -6.7319580    1.8583950    0.8437070  
C    -4.7084020    0.7477370    0.3020710  
H    -2.3941180   -1.0555620   -0.3354020  
H    -2.8429960    4.2649230    1.1257430  
H    -0.6269040    2.5786150    0.8596940  
C    -4.6546080   -3.2274920    2.2155290  
C    -5.5259790   -3.8811080    1.4060160  
C    -5.9556420   -2.9444590    0.3870740  
C    -5.2454810   -1.6747350    0.6716300  
N    -4.4408770   -1.9244690    1.7715710  
C    -5.4034820   -0.5103820   -0.0219260  
C    -6.3287990   -0.5482000   -1.1772460  
O    -6.4778170    0.3988350   -1.9279610  
C    -7.1004090   -1.8834040   -1.4848050  
O    -7.8901480   -1.9013890   -2.4152880  
C    -6.8336280   -3.0511190   -0.6457860  
H    -5.8469940   -4.9079980    1.5034510  
H    -7.3726410   -3.9671940   -0.8670510  
H    -4.1345980   -3.5857340    3.0944600  
H    -3.9910150   -1.1966650    2.3057190  
