60


C    -5.4665850    1.8595780   -1.4782220  
C    -5.0813430    0.9022160   -0.5371550  
C    -6.2771270    0.1197940   -0.2517600  
C    -7.3227640    0.6741240   -1.0291670  
N    -6.7858970    1.7206700   -1.7685110  
C    -8.6422460    0.2154590   -0.9939470  
C    -8.9242320   -0.8403010   -0.1405440  
O   -10.1878960   -1.3361290   -0.0665100  
C    -7.8964220   -1.4068480    0.6581760  
O    -8.3258120   -2.4459260    1.4554870  
C    -6.5943100   -0.9439090    0.6157550  
H    -7.2829160    2.2486910   -2.4707650  
H    -9.4337860    0.6498720   -1.5954800  
H   -10.1761830   -2.0704730    0.5721480  
H    -7.5712320   -2.8305330    1.9261620  
H    -5.8262710   -1.4168120    1.2164620  
H    -4.8525980    2.5821290   -1.9951770  
C    -1.9074100    3.9308370    0.2815760  
C    -3.1241420    3.3673280    0.0627690  
C    -2.9058660    1.9263190    0.1173580  
C    -1.4692930    1.8056710    0.3985050  
N    -0.8829210    2.9731210    0.4845840  
C    -0.8208540    0.5108180    0.5612840  
C    -1.6247220   -0.5893810    0.5299110  
O    -1.1864600   -1.8436140    0.7646860  
C    -3.0827740   -0.4941070    0.2489460  
O    -3.7116030   -1.5547650    0.2735990  
C    -3.7230990    0.8339900   -0.0431210  
H    -4.0699650    3.8712840   -0.0739700  
H    -1.9822600   -2.4112670    0.6590720  
H    -1.6546540    4.9825830    0.3327660  
C     1.2903320    1.3085590    1.5968940  
C     2.6162420    1.0171140    1.5869120  
C     2.8123660   -0.0772880    0.6711810  
C     1.4750710   -0.4200500    0.1366570  
N     0.5687140    0.4440050    0.7651200  
C     1.2528520   -1.3413560   -0.8326820  
C     2.3934950   -2.0911350   -1.3498390  
O     2.2991630   -2.9082540   -2.2512250  
C     3.8094340   -1.8383880   -0.7198250  
O     4.7433830   -2.5461430   -1.0513850  
C     3.9368730   -0.7465920    0.2675630  
H     3.3831940    1.5369840    2.1412610  
H     0.2757590   -1.5610060   -1.2401480  
H     0.7606570    2.0888040    2.1203830  
C     5.4678370   -0.5580780    2.2223910  
C     6.7666220   -0.2815810    2.4919970  
C     7.4203250   -0.0047510    1.2311960  
C     6.3786920   -0.1496020    0.1847720  
N     5.1960330   -0.4919340    0.8488750  
C     6.5922910    0.0740960   -1.1340870  
C     7.9365350    0.4570600   -1.5660900  
O     8.2158210    0.6881780   -2.7321930  
C     9.0611770    0.5869610   -0.4759990  
O    10.1901810    0.8989510   -0.8220250  
C     8.6975900    0.3397660    0.9203410  
H     7.2323880   -0.2821260    3.4669710  
H     5.8255350   -0.0293980   -1.8927410  
H     9.4729330    0.4530230    1.6720410  
H     4.6664310   -0.8290980    2.8965810  
