60


C     5.0059810    3.2293400    1.5246780  
C     4.1120570    2.3378200    0.9890540  
C     4.8772190    1.3912080    0.2307120  
C     6.2443390    1.7614400    0.3454300  
N     6.2877640    2.8879600    1.1395960  
C     7.2818180    1.0438820   -0.2614240  
C     6.9439700   -0.0724320   -1.0111510  
O     7.9198580   -0.7978420   -1.6259690  
C     5.5878250   -0.4635220   -1.1564830  
O     5.3914580   -1.5829250   -1.9298320  
C     4.5652760    0.2521040   -0.5425630  
H     3.0406820    2.3547180    1.1303320  
H     7.1263680    3.3795640    1.4069040  
H     8.3253200    1.3261620   -0.1676190  
H     7.4907900   -1.5263300   -2.1067280  
H     4.4406020   -1.7181590   -2.0681370  
H     4.8326680    4.0876790    2.1579680  
C     2.2252560    0.5620440   -1.3624200  
C     0.9862590    0.0121310   -1.1835300  
C     1.1382780   -1.1439880   -0.3499030  
C     2.5867480   -1.2388180   -0.0634090  
N     3.2077440   -0.1688240   -0.7173950  
C     3.1786540   -2.1941260    0.6955660  
C     2.3317300   -3.2459240    1.2409430  
O     2.7506290   -4.1464790    1.9475730  
C     0.8025200   -3.2283990    0.8876000  
O     0.1469650   -4.2034360    1.2358230  
C     0.2332510   -2.0685380    0.1635950  
H     0.0805070    0.3713400   -1.6428340  
H     4.2405590   -2.2067350    0.9152940  
H     2.5091060    1.4410450   -1.9259570  
C    -1.2035480   -1.9373770    0.0397800  
C    -1.9731340   -0.8332580   -0.3029190  
C    -3.3475630   -1.2011350   -0.2064700  
C    -3.3665610   -2.6242250    0.2081320  
N    -2.0510130   -3.0009300    0.3359670  
C    -4.4862160   -3.3724670    0.3904440  
C    -5.7760390   -2.7464850    0.1591200  
O    -6.8447540   -3.3266360    0.2721730  
C    -5.8044490   -1.2362750   -0.2805070  
O    -6.8846290   -0.7104540   -0.5052640  
C    -4.5259990   -0.5148740   -0.4147330  
H    -1.6056500    0.1539200   -0.5189060  
H    -4.4618730   -4.4139910    0.6931670  
H    -1.6914680   -3.8767250    0.6972240  
C    -5.4024630    1.3741330   -1.7704860  
C    -5.2724660    2.7184580   -1.8757250  
C    -4.3354420    3.1468980   -0.8642500  
C    -3.9210600    1.9177220   -0.1395320  
N    -4.5790760    0.8510360   -0.7575490  
C    -3.0948040    1.9231630    0.9385150  
C    -2.5216580    3.1953930    1.3753750  
O    -1.7455660    3.2809950    2.3156530  
C    -2.9090360    4.4973960    0.5875150  
O    -2.4127020    5.5621560    0.9229890  
C    -3.8558800    4.3713600   -0.5200580  
H    -5.7820010    3.3545840   -2.5849370  
H    -2.8277180    1.0322720    1.4936700  
H    -4.1560290    5.2798460   -1.0335040  
H    -6.0190420    0.6972050   -2.3408090  
