62


C    -5.6421480   -2.2381900   -0.2212250  
C    -7.0012020   -2.1108410   -0.1734820  
C    -7.2952570   -0.7141540   -0.0078200  
C    -6.0571970   -0.0280110    0.0488770  
N    -5.0425290   -0.9791750   -0.0864650  
C    -5.9728860    1.3635030    0.1685820  
C    -7.1621130    2.0704730    0.2543170  
O    -7.1352660    3.4276390    0.3807620  
C    -8.4126510    1.3978320    0.2112150  
O    -9.5029820    2.2400450    0.3056960  
C    -8.4911830    0.0242330    0.0797810  
H    -7.7143820   -2.9226130   -0.2239370  
H    -5.0316990    1.8963190    0.2263730  
H    -8.0564370    3.7291140    0.4630260  
H   -10.3146960    1.7148690    0.3647020  
H    -9.4585430   -0.4723630    0.0385640  
H    -5.0215770   -3.1220610   -0.2691520  
C    -2.2058850   -2.2271010   -3.0855760  
C    -1.0577700   -1.7731240   -2.5112240  
C    -1.4266190   -1.1130550   -1.2803480  
C    -2.8944760   -1.2195070   -1.1832540  
N    -3.3069850   -1.9079990   -2.3070140  
C    -3.6579670   -0.7440800   -0.1524880  
C    -2.9525870   -0.0698440    0.9486950  
O    -3.5015330    0.3021870    1.9695280  
C    -1.4031830    0.1738790    0.8032420  
O    -0.8564630    0.9066200    1.6076060  
C    -0.6916240   -0.4611410   -0.3223850  
H    -0.0567160   -1.9005540   -2.8946090  
H    -2.3391560   -2.7744070   -4.0092020  
H    -4.2711480   -2.1199880   -2.5167080  
C     1.3094290    0.3825580   -1.5470430  
C     2.6487350    0.4808550   -1.3723260  
C     2.9677380   -0.1269670   -0.0946320  
C     1.6833570   -0.5996170    0.4671260  
N     0.6932550   -0.2522060   -0.4576460  
C     1.5578430   -1.3017590    1.6204090  
C     2.7662700   -1.5876830    2.3823070  
O     2.7690600   -2.2594110    3.4028470  
C     4.1304510   -1.0038130    1.8651970  
O     5.1110370   -1.1057650    2.5779540  
C     4.1628520   -0.3159430    0.5443960  
H     3.3540380    0.9277790   -2.0567940  
H     0.6117520   -1.6703230    1.9997150  
H     0.6922050    0.7271310   -2.3657600  
C     5.5220500    3.7907490   -0.4241490  
C     6.7973090    3.4754030   -0.8129280  
C     6.9321810    2.0497480   -0.7030890  
C     5.6863600    1.5492010   -0.2428640  
N     4.8447590    2.6319180   -0.0884930  
C     5.4499340    0.1816470    0.0191260  
C     6.5216410   -0.6834980   -0.2121960  
O     6.3554290   -2.0229840   -0.0319420  
C     7.7691020   -0.1989400   -0.6809150  
O     8.7135060   -1.1924940   -0.8737290  
C     7.9866550    1.1432730   -0.9272520  
H     7.5551530    4.1754920   -1.1369300  
H     3.9117160    2.5867690    0.2905410  
H     7.2301700   -2.4369690   -0.1336170  
H     9.5821910   -0.7865290   -1.0097590  
H     8.9543830    1.4873840   -1.2870520  
H     5.0279590    4.7499760   -0.3602970  
