60


C    -0.5625740    2.5934620    0.0807710  
C    -1.6236850    3.4169100   -0.2802000  
C    -2.7779210    2.9665440    0.4113450  
C    -2.3794230    1.8579070    1.2182860  
N    -1.0481480    1.6100830    0.9555410  
C    -3.2652560    1.1838580    2.0640930  
C    -4.5820020    1.6176300    2.0790940  
O    -5.4857870    0.9982500    2.8714840  
C    -5.0076800    2.7106420    1.2581600  
O    -6.3431380    3.0002620    1.3966820  
C    -4.1311280    3.3816170    0.4355190  
H    -1.5696390    4.2269880   -0.9947700  
H    -0.4184940    1.0925610    1.5552020  
H    -2.9704180    0.3428800    2.6823730  
H    -6.3569910    1.3996860    2.7004640  
H    -6.6273440    3.6151020    0.7035040  
H    -4.4702220    4.2148080   -0.1749590  
C     0.8093190    2.5735400   -0.3064270  
C     1.5711710    3.4835190   -1.0014420  
C     2.8692150    2.8985410   -1.1238210  
C     2.7631110    1.5723520   -0.4146470  
N     1.5547190    1.4052370    0.0632980  
C     3.8592430    0.6315310   -0.3305860  
C     4.9935160    1.0245480   -1.0000580  
O     6.0640720    0.2595980   -1.1465280  
C     5.1465240    2.3742250   -1.6907930  
O     6.2410360    2.5823610   -2.2217380  
C     4.0305780    3.2950840   -1.7133700  
H     1.2647060    4.4500480   -1.3754750  
H     6.7146380    0.8194740   -1.6381990  
H     4.1595790    4.2431760   -2.2244660  
C     0.7120600   -2.4896860    0.0457380  
C     1.4315540   -3.4302100    0.7389330  
C     2.7361130   -2.8788900    0.9984120  
C     2.7434590   -1.5348480    0.3705100  
N     1.5106380   -1.3785800   -0.2330290  
C     3.7989500   -0.6610610    0.3824860  
C     4.9369190   -1.0586550    1.2502550  
O     5.8140340   -0.2828420    1.5850500  
C     4.9969010   -2.5259020    1.8106870  
O     6.0222990   -2.8959480    2.3623350  
C     3.8198810   -3.3727030    1.6609020  
H     1.0692620   -4.3923140    1.0711490  
H     3.8495800   -4.3721060    2.0836840  
H     1.1680910   -0.4281900   -0.3837400  
C    -0.6731880   -2.5323270   -0.3697020  
C    -1.4795540   -3.6237580   -0.5625420  
C    -2.7786630   -3.1505570   -0.9644680  
C    -2.6858830   -1.6701690   -0.9881560  
N    -1.3763860   -1.3539130   -0.6659950  
C    -3.7214080   -0.8411340   -1.2702780  
C    -5.0159290   -1.4345970   -1.5931660  
O    -6.0084050   -0.7679340   -1.8461060  
C    -5.1273060   -3.0036920   -1.6186510  
O    -6.1983390   -3.5155700   -1.9071800  
C    -3.9386310   -3.7900450   -1.2819570  
H    -1.1736570   -4.6566010   -0.4786210  
H    -3.6368980    0.2408370   -1.2663370  
H    -4.0324910   -4.8717050   -1.2822270  
H    -1.1113370   -0.4318810   -0.3378460  
