64


C    -3.0867360   -4.3303410   -0.1285370  
C    -2.8746900   -2.9708070   -0.1753730  
C    -4.1450070   -2.3330470   -0.0019870  
C    -5.0991390   -3.3696390    0.1329750  
N    -4.4262680   -4.5715710    0.0638490  
C    -6.4754960   -3.1427010    0.2740880  
C    -6.9120880   -1.8307260    0.2634290  
O    -8.2383710   -1.5488940    0.3818760  
C    -5.9974550   -0.7510340    0.1321910  
O    -6.5939840    0.4588370    0.1434630  
C    -4.5914310   -0.9657340    0.0268220  
H    -1.9180740   -2.5071480   -0.3576810  
H    -4.8551130   -5.4818180    0.1265850  
H    -7.1957990   -3.9484220    0.3762080  
H    -8.3160050   -0.5773780    0.3498790  
H    -5.8716460    1.1518900    0.0038260  
H    -2.3839380   -5.1461230   -0.2192250  
C    -3.6931370    0.1492860   -0.0200240  
C    -2.3113020    0.2177730    0.0621320  
C    -1.9569820    1.5869500   -0.0394270  
C    -3.2645290    2.3056440   -0.1763550  
N    -4.2624480    1.4672800   -0.1598230  
C    -3.3517610    3.7313030   -0.2910740  
C    -2.1835760    4.4087710   -0.2168110  
O    -2.0859630    5.7380830   -0.2734120  
C    -0.8412750    3.7138990   -0.0307740  
O     0.1221190    4.5016210    0.0852440  
C    -0.7458330    2.2660240   -0.0040430  
H    -1.6227420   -0.5920820    0.2243850  
H    -4.3077700    4.2285180   -0.4074430  
H    -1.1226460    5.9235760   -0.1661050  
C     0.9679360   -1.1378300   -2.3979140  
C     0.1643140   -0.1330240   -1.9201410  
C     0.8633810    0.4964800   -0.8332690  
C     2.1104240   -0.1728540   -0.7148540  
N     2.1421320   -1.1653330   -1.6743210  
C     3.1076830    0.1656060    0.2195420  
C     2.8084160    1.2563270    1.0386680  
O     3.7169180    1.6991920    1.9433600  
C     1.5746070    1.9522900    0.9398260  
O     1.4578320    2.9878410    1.8451380  
C     0.5664140    1.5841950    0.0426520  
H    -0.8129820    0.1237180   -2.2998530  
H     2.9053860   -1.8125400   -1.7987090  
H     3.2958530    2.4695730    2.3726530  
H     1.1191630    3.7647570    1.3479080  
H     0.8017470   -1.8367630   -3.2055820  
C     6.2674820   -0.2800730   -2.8260490  
C     7.1256470   -1.0671710   -2.1030770  
C     6.5204390   -1.2845090   -0.8185820  
C     5.2781860   -0.5994210   -0.8248470  
N     5.1436990   -0.0076350   -2.0664160  
C     4.4003890   -0.5584370    0.2802320  
C     4.8182200   -1.2501530    1.4180940  
O     4.0186060   -1.2923720    2.5194710  
C     6.0578030   -1.9431720    1.4401880  
O     6.3116760   -2.5839700    2.6410750  
C     6.9045690   -1.9732680    0.3489360  
H     8.0786560   -1.4480860   -2.4441830  
H     4.4005460    0.6258630   -2.3186160  
H     4.5101620   -1.7687820    3.2106480  
H     7.2093500   -2.9468970    2.6268680  
H     7.8471980   -2.5152480    0.3970750  
H     6.3553480    0.1078710   -3.8311810  
