62


C     0.6198750   -2.4339890   -2.2252580  
C     0.8575490   -3.6193870   -1.5788660  
C     1.9183990   -3.3818130   -0.6426570  
C     2.2817120   -2.0122150   -0.7617760  
N     1.4776280   -1.4671090   -1.7409710  
C     3.3197240   -1.4086270   -0.0105350  
C     3.9876420   -2.2715410    0.8584020  
O     5.0411250   -1.7972650    1.6207950  
C     3.6435050   -3.6370690    0.9942520  
O     4.4247870   -4.3134920    1.9141530  
C     2.6169280   -4.2020440    0.2644930  
H     0.3488420   -4.5561130   -1.7599930  
H     1.4918510   -0.4974780   -2.0185430  
H     5.3610690   -2.5440140    2.1598470  
H     4.1730060   -5.2484020    1.9330440  
H     2.3710910   -5.2559540    0.3766310  
H    -0.0928860   -2.1929360   -3.0012560  
C     0.8289940    2.3691120   -0.0312890  
C     1.2912040    1.0508490    0.0804750  
C     2.6857900    1.0486530   -0.1672730  
C     3.0568420    2.4081900   -0.4138710  
N     1.9236420    3.1693410   -0.3350380  
C     4.3760880    2.8036670   -0.6544500  
C     5.3359900    1.8069930   -0.6171590  
O     6.6404390    2.1069730   -0.8151200  
C     4.9953890    0.4370220   -0.3728790  
O     6.0829510   -0.4030690   -0.4019260  
C     3.6838540    0.0217220   -0.1730400  
H     0.6933920    0.2054610    0.3798590  
H     1.8521610    4.1778580   -0.3699940  
H     4.6622430    3.8337470   -0.8362870  
H     7.1243980    1.2630200   -0.7180540  
H     5.9983170   -1.0309730    0.3504130  
C    -3.3326530    0.6300210    0.1567080  
C    -1.9685950    0.7539080   -0.0285220  
C    -1.6575580    2.1386880    0.1901180  
C    -2.9653440    2.7465650    0.5185630  
N    -3.9380770    1.8779580    0.5074370  
C    -3.1119870    4.1537750    0.8018070  
C    -2.0149310    4.9339510    0.6957100  
O    -2.0176270    6.2685310    0.8851630  
C    -0.6783440    4.3686700    0.3279050  
O     0.2421260    5.1884460    0.2012060  
C    -0.4986380    2.8952180    0.1458280  
H    -1.2994970   -0.0119790   -0.3895150  
H    -4.0870570    4.5569660    1.0513300  
H    -1.0957150    6.5580280    0.7179760  
C    -2.5622730   -3.6809010    0.9648500  
C    -2.4446300   -2.3315180    0.8319470  
C    -3.7069790   -1.8284630    0.3439910  
C    -4.5906900   -3.0062020    0.2213410  
N    -3.8281120   -4.1009780    0.5825700  
C    -5.9038170   -2.9758580   -0.1361030  
C    -6.4982020   -1.6851390   -0.4348240  
O    -7.6851740   -1.5300710   -0.6831890  
C    -5.5528370   -0.4313710   -0.4705700  
O    -5.9758400    0.5798030   -0.9949850  
C    -4.1543500   -0.5540580    0.0473490  
H    -1.5672250   -1.7504120    1.0647570  
H    -6.5327320   -3.8602190   -0.1730820  
H    -1.8303390   -4.4015680    1.3036980  
H    -4.1847250   -5.0392240    0.6743970  
