62


C     5.3745320   -1.2549770   -2.1397920  
C     6.7126200   -1.4694580   -2.0353890  
C     7.1048800   -1.1175620   -0.6950500  
C     5.9486150   -0.6607880   -0.0193520  
N     4.8736470   -0.7427460   -0.9296450  
C     5.9720150   -0.3140770    1.3346940  
C     7.1879940   -0.3875050    1.9993180  
O     7.2544590   -0.0438230    3.3169470  
C     8.3598160   -0.8151190    1.3262070  
O     9.4878460   -0.8327710    2.1182650  
C     8.3284130   -1.1830730   -0.0076040  
H     7.3597700   -1.8197370   -2.8280830  
H     5.1013020    0.0314190    1.8749140  
H     8.1778300   -0.1560720    3.6012590  
H    10.2495470   -1.1262240    1.5966030  
H     9.2300490   -1.5312660   -0.5070250  
H     4.7097380   -1.3541630   -2.9841410  
C     1.1702160   -2.8711960   -2.0021580  
C     2.4863010   -2.5942060   -1.8362650  
C     2.5209970   -1.2875240   -1.1908740  
C     1.0976990   -0.9098090   -1.0449190  
N     0.3162770   -1.8406350   -1.5254210  
C     0.6588810    0.3457080   -0.4187270  
C     1.6693320    1.1235890    0.0756150  
O     1.4684400    2.2827660    0.7477540  
C     3.1085040    0.7896920   -0.0607570  
O     3.9254800    1.6084840    0.3650080  
C     3.5215450   -0.4924930   -0.7205410  
H     3.3350960   -3.2117090   -2.0913950  
H     2.3726990    2.6115120    0.9506760  
H     0.7226790   -3.7589890   -2.4318520  
C    -1.7545980   -0.2835310   -0.2401910  
C    -0.7634190    0.6668660   -0.3297790  
C    -1.4377620    1.9621280   -0.3266050  
C    -2.8258510    1.7150660   -0.2247000  
N    -3.0002330    0.3189870   -0.1489100  
C    -3.7878060    2.7281840   -0.2898560  
C    -3.3357340    4.0338570   -0.4265320  
O    -4.2334670    5.0554730   -0.4844370  
C    -1.9497490    4.3038790   -0.5192340  
O    -1.6484840    5.6417390   -0.6588240  
C    -1.0070250    3.2909860   -0.4860290  
H    -4.8537620    2.5377550   -0.2766840  
H    -3.7292080    5.8800970   -0.5963170  
H    -0.6877470    5.7555000   -0.7110610  
H     0.0485750    3.5233700   -0.5619580  
H    -1.6660400   -1.3558030   -0.2092480  
C    -4.1789860   -0.3910510   -0.0260300  
C    -4.4733470   -1.6509210   -0.4707480  
C    -5.8037030   -1.9640990   -0.0227120  
C    -6.2783760   -0.7760620    0.7290820  
N    -5.2666870    0.1772260    0.6458030  
C    -7.4733370   -0.6924480    1.3580690  
C    -8.3837640   -1.8362590    1.2703490  
O    -9.4818580   -1.8462710    1.8036870  
C    -7.9215030   -3.0901550    0.4421230  
O    -8.6784660   -4.0467010    0.3545710  
C    -6.5990870   -3.0603190   -0.1751000  
H    -3.8414650   -2.2653820   -1.0947060  
H    -7.8004200    0.1829070    1.9109870  
H    -6.2823030   -3.9385050   -0.7292700  
H    -5.1488600    0.9103790    1.3316690  
