62


C     4.9989900    0.3669820    1.8647250  
C     3.7265470   -0.0634230    1.5925310  
C     3.8111480   -0.9958370    0.5072860  
C     5.1908790   -1.0986820    0.1710690  
N     5.8866660   -0.2557800    1.0104740  
C     5.6816760   -1.9371020   -0.8315200  
C     4.7578030   -2.7193800   -1.5074170  
O     5.1680920   -3.5598960   -2.4978850  
C     3.3799150   -2.6692660   -1.1861670  
O     2.6004580   -3.4801000   -1.9861540  
C     2.8659800   -1.8018760   -0.2012010  
H     2.8351490    0.3034910    2.0732080  
H     6.8849000   -0.1193260    0.9991950  
H     6.7352330   -2.0008540   -1.0849610  
H     4.3563330   -4.0033250   -2.8105400  
H     2.0204420   -4.0148810   -1.4018460  
H     5.3435990    1.0897540    2.5901840  
C     0.0546490    1.6000590    0.3168560  
C    -1.1337540    0.9279650    0.4266190  
C    -0.8115670   -0.4730540    0.3428260  
C     0.6702450   -0.5001640    0.1944070  
N     1.1667750    0.6987220    0.1578840  
C     1.4185810   -1.7590670    0.0597910  
C     0.6338810   -2.8757120    0.1564680  
O     1.1499700   -4.1437380    0.1186260  
C    -0.8266270   -2.8683690    0.3604830  
O    -1.3629070   -3.9855180    0.5375060  
C    -1.5871740   -1.5997880    0.3427400  
H    -2.1129650    1.3337900    0.6316700  
H     0.3742670   -4.7305260    0.2740320  
C    -2.3737010    4.8232050   -1.3792690  
C    -1.5698120    5.8827440   -1.1060320  
C    -0.4104680    5.3694180   -0.4076860  
C    -0.6137930    3.9084070   -0.2883970  
N    -1.8273690    3.6442440   -0.8817830  
C     0.2825750    3.0283660    0.2768970  
C     1.4892390    3.6291960    0.8928910  
O     2.2506240    3.0061950    1.6100360  
C     1.7583920    5.1631990    0.6871890  
O     2.8217100    5.6277020    1.0674990  
C     0.7157340    5.9740910    0.0620450  
H    -1.7541050    6.9156760   -1.3626090  
H     0.8929400    7.0408800   -0.0349900  
H    -3.3252970    4.7947460   -1.8931450  
H    -2.1952380    2.7153870   -1.0475040  
C    -4.3767410    0.6803330   -2.3283540  
C    -3.2649090    0.1174120   -1.7501410  
C    -3.7174810   -0.7047240   -0.6588200  
C    -5.1328810   -0.6056740   -0.6409190  
N    -5.5034360    0.2607800   -1.6510730  
C    -5.9389030   -1.3245700    0.2476130  
C    -5.2969830   -2.1940910    1.1146560  
O    -6.0191990   -2.9436080    1.9876960  
C    -3.8820130   -2.3325880    1.1152080  
O    -3.4216190   -3.2235640    2.0516950  
C    -3.0619810   -1.5671650    0.2764670  
H    -2.2476660    0.2407730   -2.0920730  
H    -6.4538910    0.4782510   -1.9066790  
H    -7.0214810   -1.2499880    0.2579130  
H    -5.3695050   -3.4990730    2.4601760  
H    -2.6818710   -3.7267020    1.6376930  
H    -4.4610170    1.3312910   -3.1874560  
