64


C    -1.0612590   -1.4743050    0.5240560  
C    -0.5010000   -0.3548530   -0.0541700  
C    -1.6082130    0.4728680   -0.4835750  
C    -2.8018440   -0.2026670   -0.1279660  
N    -2.4364650   -1.3837480    0.4876080  
C    -4.0956350    0.2809900   -0.4172220  
C    -4.1529060    1.5004880   -1.0930480  
O    -5.3577700    2.0626710   -1.3848820  
C    -2.9661480    2.1823980   -1.4732440  
O    -3.2002870    3.3747070   -2.1383350  
C    -1.7073170    1.6922220   -1.1826950  
H    -3.0861720   -2.0819370    0.8157210  
H    -5.1781400    2.8590030   -1.9144060  
H    -2.3749230    3.6840570   -2.5398810  
H    -0.8170210    2.2323430   -1.4958230  
H    -0.5740480   -2.3190910    0.9903070  
C     1.8743850   -0.9778200   -0.6601980  
C     0.9290740   -0.0906700   -0.2109630  
C     1.6451690    1.1267510    0.1174760  
C     3.0157590    0.9058190   -0.1575810  
N     3.1470060   -0.4084870   -0.6185060  
C     3.9825150    1.9057680    0.0009010  
C     3.5643740    3.1330840    0.4967660  
O     4.4727240    4.1355800    0.6737420  
C     2.2018590    3.3550430    0.8195420  
O     1.9400150    4.6189190    1.3118830  
C     1.2446680    2.3728300    0.6328040  
H     5.0268890    1.7642210   -0.2506740  
H     3.9921560    4.9004950    1.0344290  
H     1.0041520    4.6841300    1.5532820  
H     0.2014170    2.5632250    0.8727120  
H     1.7585880   -1.9969040   -0.9993540  
C    -5.5217940   -0.8674160    3.5926490  
C    -6.6500970   -1.5468060    3.2129960  
C    -6.7156470   -1.4910130    1.7791260  
C    -5.5827980   -0.7580320    1.3409690  
N    -4.8663860   -0.4008240    2.4671800  
C    -5.3088650   -0.4736630   -0.0142120  
C    -6.2286630   -0.9678400   -0.9396510  
O    -6.0272230   -0.7714840   -2.2727110  
C    -7.3689090   -1.7027750   -0.5180060  
O    -8.1723840   -2.1231920   -1.5641150  
C    -7.6218020   -1.9716070    0.8132520  
H    -7.3534860   -2.0312800    3.8764510  
H    -4.0545720    0.1971820    2.4609670  
H    -6.7886740   -1.1617380   -2.7355430  
H    -8.9527940   -2.5730110   -1.2086580  
H    -8.5037980   -2.5394210    1.1035460  
H    -5.1185320   -0.6799570    4.5779210  
C     4.4428150   -1.8279630   -2.1792290  
C     4.3035880   -1.0396230   -1.0790390  
C     5.5983990   -1.1362770   -0.3693330  
C     6.4083130   -2.0227290   -1.2484380  
N     5.7283640   -2.4197200   -2.2903750  
C     7.7658440   -2.3666410   -0.9182680  
C     8.2734710   -1.9074250    0.2517910  
O     9.5201980   -2.1655930    0.6873100  
C     7.4614660   -1.0587270    1.1816830  
O     7.9844760   -0.6830070    2.2307110  
C     6.0767460   -0.6902920    0.8069220  
H     8.3417640   -2.9955430   -1.5882870  
H     9.5927940   -1.7064680    1.5522910  
H     5.5275220   -0.0587370    1.4977920  
H     3.6979590   -2.0346380   -2.9375390  
