62


C    -0.9536600    0.2853280    0.8579500  
C    -1.8365420   -0.5966840    0.2890250  
C    -2.6473570    0.1813180   -0.6285940  
C    -2.2167950    1.5275090   -0.5464230  
N    -1.1667310    1.5763180    0.3738640  
C    -2.7544850    2.5412710   -1.3463000  
C    -3.7541510    2.1907780   -2.2408220  
O    -4.3162680    3.1446020   -3.0385740  
C    -4.1928680    0.8454460   -2.3440480  
O    -5.1815150    0.6478250   -3.2889240  
C    -3.6535340   -0.1557140   -1.5566770  
H    -2.4386840    3.5748060   -1.2773540  
H    -4.9882970    2.7031510   -3.5857040  
H    -5.4125740   -0.2923870   -3.3213650  
H    -3.9825640   -1.1856410   -1.6704540  
H    -0.2102480    0.1114990    1.6213040  
C     3.1360710    2.0496870    0.2476460  
C     3.2074310    3.3128230    0.7816010  
C     1.8713040    3.7630540    1.0604980  
C     0.9842000    2.6550730    0.6534820  
N     1.8021210    1.6292000    0.2127290  
C    -0.3793030    2.6907250    0.7158020  
C    -1.0023750    3.9113700    1.2700840  
O    -2.2047840    4.0227300    1.4278610  
C    -0.0618230    5.1047880    1.6893000  
O    -0.5887870    6.1338090    2.0876640  
C     1.3764830    4.9305840    1.5673610  
H     4.1153610    3.8558220    1.0024840  
H     2.0151030    5.7554000    1.8668640  
H     1.4569670    0.8375150   -0.3121400  
C     5.4182010    1.6751230   -0.6905150  
C     4.2088710    1.2091700   -0.2409840  
C     4.2577650   -0.2478630   -0.3610370  
C     5.5974410   -0.5688430   -0.9152560  
N     6.2460910    0.6449670   -1.0756920  
C     6.0471390   -1.8181450   -1.1834070  
C     5.1576290   -2.9455260   -0.9106000  
O     5.4703930   -4.1063880   -1.1146280  
C     3.7357640   -2.6294510   -0.3258560  
O     2.9727470   -3.5635460   -0.1173510  
C     3.3732590   -1.2349390   -0.0588900  
H     7.0353840   -2.0272030   -1.5807710  
H     2.3938830   -1.0583280    0.3723770  
H     5.7487350    2.7013560   -0.7801240  
H     7.1612370    0.7589010   -1.4844760  
C    -5.3810750   -3.0268340    1.2646510  
C    -4.7557100   -4.2419850    1.3750080  
C    -3.3589730   -4.0221100    1.1240690  
C    -3.1980980   -2.6392720    0.8543820  
N    -4.4481280   -2.0581660    0.9466400  
C    -1.9499600   -2.0341700    0.5831910  
C    -0.8392130   -2.8839130    0.6184140  
O     0.4116180   -2.3835850    0.3835740  
C    -0.9839210   -4.2710150    0.8871780  
O     0.2066180   -4.9680490    0.8795200  
C    -2.2171450   -4.8465600    1.1304110  
H    -5.2316330   -5.1830820    1.6147880  
H    -4.6300820   -1.0717690    0.8418840  
H     1.0585360   -3.1192830    0.3380550  
H     0.0244250   -5.9166260    0.9477340  
H    -2.2939330   -5.9115930    1.3410060  
H    -6.4226750   -2.7640710    1.3861200  
