62


C     0.7014720    6.0226610   -0.9725780  
C     0.4898040    4.6686540   -0.8838230  
C     1.5625510    4.1210780   -0.1069140  
C     2.4096650    5.2045810    0.2405880  
N     1.8555160    6.3494490   -0.2935400  
C     3.5889060    5.0484220    0.9773520  
C     3.9306220    3.7657100    1.3743730  
O     5.0622040    3.5615270    2.1054890  
C     3.1133070    2.6559140    1.0419960  
O     3.5858390    1.4702300    1.5442780  
C     1.9215710    2.8021600    0.3067810  
H    -0.3281280    4.1334220   -1.3415740  
H     2.2434030    7.2761910   -0.2116900  
H     4.2306720    5.8812100    1.2465400  
H     5.1013020    2.6105070    2.3103940  
H     2.9394830    0.7563420    1.3689620  
H     0.1185260    6.7855080   -1.4686880  
C     1.0746800    1.6586910    0.0296940  
C    -0.2882230    1.5671600   -0.0974070  
C    -0.6445310    0.1971850   -0.3189580  
C     0.6220840   -0.5578610   -0.3041220  
N     1.6459720    0.3606680   -0.0540560  
C     0.7749760   -1.9149440   -0.4645070  
C    -0.4909050   -2.6485050   -0.5846240  
O    -0.5744040   -3.8711170   -0.6034910  
C    -1.8589990   -1.8685770   -0.6505160  
O    -2.8583500   -2.5473720   -0.8349040  
C    -1.8790730   -0.4084180   -0.4914980  
H    -0.9804660    2.3812890    0.0466890  
H     2.4793180    0.2355290   -0.6378050  
C    -3.2978710    1.5825870   -1.1447540  
C    -3.1237570    0.3352660   -0.6022060  
C    -4.4860670   -0.0263920   -0.1264390  
C    -5.3179470    1.1595690   -0.4730980  
N    -4.6146220    2.0815890   -1.0785330  
C    -6.7204040    1.2293510   -0.1641700  
C    -7.2799040    0.1784940    0.4821430  
O    -8.5720910    0.1086690    0.8427630  
C    -6.4680420   -1.0253610    0.8612460  
O    -7.0403770   -1.9372850    1.4567950  
C    -5.0310340   -1.0796540    0.5112360  
H    -7.2904420    2.1093870   -0.4407450  
H    -8.6684600   -0.7626280    1.2870590  
H    -4.4969600   -1.9871170    0.7629140  
H    -2.5463540    2.1830600   -1.6418360  
C     2.2050440   -5.6098180    1.6169930  
C     3.5202100   -5.5298160    1.2470970  
C     3.6411220   -4.3819420    0.3949790  
C     2.3480340   -3.7937510    0.2959010  
N     1.5016340   -4.5483910    1.0812340  
C     2.0876970   -2.6069180   -0.4423500  
C     3.1986670   -2.0974920   -1.1319710  
O     3.0748360   -0.9732630   -1.9258070  
C     4.4845020   -2.6787560   -1.0477310  
O     5.4467460   -2.0061020   -1.7855710  
C     4.7260920   -3.8018400   -0.2840490  
H     4.3141400   -6.2004760    1.5454080  
H     0.5025460   -4.5509170    0.9180300  
H     3.9312230   -0.8645840   -2.3807440  
H     6.2261470   -2.5711380   -1.8914690  
H     5.7261930   -4.2242870   -0.2159220  
H     1.6976500   -6.3414140    2.2303270  
