60


C    -5.6062230   -1.8038000   -0.5268660  
C    -6.8701450   -1.5530100   -0.9682260  
C    -7.1259130   -0.1510770   -0.7687240  
C    -5.9695380    0.4083130   -0.1737810  
N    -5.0312090   -0.6251600   -0.0280120  
C    -5.8595440    1.7748510    0.1028240  
C    -6.9474460    2.5810000   -0.1969850  
O    -6.8888040    3.9183190    0.0646590  
C    -8.1207950    2.0318680   -0.7751730  
O    -9.1141650    2.9592510   -1.0155930  
C    -8.2189430    0.6827520   -1.0648300  
H    -7.5552440   -2.2858090   -1.3726570  
H    -4.9857940    2.2185170    0.5623920  
H    -7.7461810    4.3011740   -0.1889270  
H    -9.9009660    2.5111360   -1.3596450  
H    -9.1195840    0.2801470   -1.5238540  
H    -5.0572080   -2.7312410   -0.4598570  
C    -1.2604130   -2.1657380   -1.6014860  
C    -2.5484320   -1.7813810   -1.4526420  
C    -2.6612890   -1.1082850   -0.1765680  
C    -1.3133460   -1.1294930    0.4243070  
N    -0.4828910   -1.7680130   -0.4938970  
C    -0.9977180   -0.6178560    1.6503810  
C    -2.0476830    0.0296150    2.4164570  
O    -1.8625690    0.5641640    3.4993520  
C    -3.5026180    0.0565030    1.8190840  
O    -4.3996800    0.5229550    2.4929640  
C    -3.7272290   -0.5378480    0.4707340  
H    -3.3449670   -1.9359570   -2.1642570  
H    -0.0204910   -0.7138930    2.1084860  
H    -0.7840880   -2.6909000   -2.4146130  
C     2.7997550    0.8953520    0.6324200  
C     3.8165330   -0.0101330    0.5760120  
C     3.2507390   -1.2824380    0.1487220  
C     1.8049570   -1.0308220   -0.0211550  
N     1.6044550    0.3115850    0.2374000  
C     0.9013330   -1.9947910   -0.3787640  
C     1.4253270   -3.3416330   -0.6822030  
O     0.7089670   -4.2535680   -1.0575010  
C     2.9713380   -3.5976820   -0.5345390  
O     3.3959360   -4.7100080   -0.7958240  
C     3.8207490   -2.4901470   -0.1038470  
H     4.8858840   -2.6715490   -0.0045930  
H     2.8343580    1.9412230    0.9056880  
H     0.6944290    0.7298670    0.3744610  
C     5.9285990   -0.3980010    1.8411130  
C     7.2203300    0.0078330    1.8229860  
C     7.3599510    0.9663930    0.7458510  
C     6.0194810    1.0863300    0.1220900  
N     5.1763680    0.2314620    0.8352600  
C     5.7357630    1.8857090   -0.9354620  
C     6.8141490    2.6917100   -1.5062590  
O     6.6507410    3.4364940   -2.4597720  
C     8.2407700    2.5892590   -0.8541520  
O     9.1509090    3.2616320   -1.3110440  
C     8.4184870    1.6817120    0.2839420  
H     8.0028040   -0.3178020    2.4930070  
H     4.7510100    1.9565890   -1.3848270  
H     9.4093260    1.6118220    0.7223670  
H     5.4330500   -1.0967410    2.5020770  
