60


C    -4.2461120   -4.1484860    1.2182170  
C    -3.7337220   -2.9124620    0.9190030  
C    -4.6743970   -2.2625530    0.0494280  
C    -5.7529850   -3.1665290   -0.1387580  
N    -5.4602770   -4.3075860    0.5793380  
C    -6.8751930   -2.8601320   -0.9163820  
C    -6.9097700   -1.6139670   -1.5199830  
O    -7.9762250   -1.2676930   -2.2962020  
C    -5.8418960   -0.6934550   -1.3550340  
O    -6.0269740    0.4801110   -2.0604850  
C    -4.7211350   -0.9882280   -0.5783810  
H    -2.8015880   -2.5125560    1.2920440  
H    -6.0534430   -5.1196350    0.6474890  
H    -7.7021030   -3.5482260   -1.0587280  
H    -7.8163460   -0.3650790   -2.6220050  
H    -5.2963220    1.0942740   -1.8930360  
H    -3.8446830   -4.9356620    1.8404860  
C    -2.2872340   -0.3044130   -0.6181470  
C    -3.6072850   -0.0319110   -0.4331240  
C    -3.6848160    1.3757560   -0.0236390  
C    -2.3002490    1.8999060    0.0047560  
N    -1.4927490    0.8297770   -0.3725850  
C    -1.9490610    3.1630600    0.3391660  
C    -3.0142810    4.0994350    0.7029940  
O    -2.8017910    5.2627080    1.0010330  
C    -4.4930310    3.5682170    0.7048910  
O    -5.3950010    4.3243690    1.0219750  
C    -4.7346720    2.1696580    0.3189270  
H    -0.9219370    3.5116060    0.3562790  
H    -5.7591740    1.8117140    0.3423680  
H    -1.8109210   -1.2277000   -0.9184630  
C     0.6188860    1.0944060   -1.5868190  
C     1.9316780    0.8500900   -1.3590100  
C     2.0728190    0.4028730    0.0125460  
C     0.7130450    0.3828060    0.5852280  
N    -0.1293280    0.8611190   -0.4227920  
C     0.3783830   -0.0584080    1.8215400  
C     1.4541320   -0.5544150    2.6753490  
O     1.2592610   -1.0472940    3.7735670  
C     2.9303030   -0.4242980    2.1565240  
O     3.8344930   -0.6214060    2.9430650  
C     3.1659640    0.0055230    0.7459380  
H     2.7309520    0.9576640   -2.0758170  
H    -0.6402180   -0.0834040    2.1939060  
H     0.1088140    1.4316510   -2.4788080  
C     4.5236120    0.0187620    0.2251010  
C     5.1142110    0.9547540   -0.5808470  
C     6.4674640    0.4864910   -0.7976730  
C     6.5308380   -0.8059280   -0.0424110  
N     5.4074970   -1.0736540    0.5527000  
C     7.7273100   -1.6096100   -0.0263320  
C     8.8056960   -1.1471880   -0.7011860  
O     9.9845200   -1.7826770   -0.7667710  
C     8.7749860    0.1586510   -1.4590820  
O     9.8016100    0.4970780   -2.0463700  
C     7.5389750    0.9568840   -1.4737940  
H     4.6964990    1.8911470   -0.9232840  
H     7.7459830   -2.5433630    0.5242770  
H    10.5608510   -1.2079530   -1.3181370  
H     7.5537020    1.8846250   -2.0377280  
