62


C     2.4340100   -2.7928350   -1.5529470  
C     2.8821360   -1.8632350   -0.6222450  
C     4.1758510   -2.3508900   -0.1677960  
C     4.4238670   -3.5691760   -0.8468230  
N     3.3475280   -3.8032990   -1.6865890  
C     5.5664410   -4.3497330   -0.6379410  
C     6.4905280   -3.8881960    0.2857800  
O     7.6295370   -4.5971770    0.5269200  
C     6.2601790   -2.6735400    0.9833870  
O     7.2673030   -2.3409420    1.8691740  
C     5.1271010   -1.9115750    0.7740150  
H     3.2786500   -4.5651660   -2.3435400  
H     5.7489170   -5.2802700   -1.1656460  
H     8.1478520   -4.0906570    1.1765140  
H     7.1189880   -1.4423670    2.2001580  
H     4.9940380   -0.9712780    1.2968720  
H     1.5477670   -2.7654610   -2.1696410  
C    -1.4747570   -1.1363300   -0.0692550  
C    -0.2309400   -1.6854420   -0.2591910  
C     0.7507860   -0.6442770   -0.1392610  
C     0.0024790    0.5859300    0.1571440  
N    -1.3296770    0.2282210    0.2328530  
C     0.5212990    1.8599480    0.2907470  
C     1.9827030    1.9356290    0.1846070  
O     2.6201710    2.9745220    0.2735570  
C     2.8214120    0.6133860   -0.0192820  
O     4.0360930    0.7397210   -0.0115520  
C     2.1336720   -0.6724710   -0.2398120  
H    -0.0266490   -2.7370500   -0.3883910  
H    -2.0573980    0.9155810    0.0730060  
C    -1.4945650    3.0650000    1.2529510  
C    -0.3057840    3.0244470    0.5646000  
C    -0.1259800    4.4332280    0.1111330  
C    -1.3255520    5.1386730    0.6305530  
N    -2.1061620    4.3327050    1.3048370  
C    -1.5493830    6.5402380    0.3989060  
C    -0.6349690    7.2171350   -0.3369810  
O    -0.7207330    8.5249480   -0.6400820  
C     0.5769290    6.5341690   -0.8896580  
O     1.3626700    7.2068580   -1.5582340  
C     0.7944970    5.0948320   -0.6171420  
H    -2.4351010    7.0184720    0.8025250  
H     0.0807590    8.7157300   -1.1755010  
H     1.7077460    4.6528240   -0.9943130  
H    -1.9586930    2.2528860    1.7997870  
C    -2.7743370   -1.7450210   -0.0859740  
C    -3.1953340   -2.9248170   -0.6771440  
C    -4.5873600   -3.0693750   -0.4125990  
C    -4.9850920   -1.9402560    0.3563980  
N    -3.8780690   -1.1295150    0.5090170  
C    -6.2931570   -1.7654750    0.8208870  
C    -7.2210310   -2.7412120    0.4917680  
O    -8.5070380   -2.6231050    0.9163360  
C    -6.8462010   -3.8705680   -0.2937850  
O    -7.8888460   -4.7394840   -0.5369990  
C    -5.5551950   -4.0423250   -0.7476080  
H    -2.5739320   -3.5795520   -1.2725330  
H    -3.8023300   -0.4137070    1.2173560  
H    -6.6015450   -0.9092530    1.4115010  
H    -8.9977950   -3.3948270    0.5835690  
H    -7.5761980   -5.4874690   -1.0673060  
H    -5.2891700   -4.9131480   -1.3427940  
