66


C    -1.0515960   -1.3044820    0.8058650  
C    -0.5014840   -0.2648270    0.0928410  
C    -1.5888140    0.4868840   -0.4769580  
C    -2.7838680   -0.1521500   -0.0600580  
N    -2.4220670   -1.2513500    0.6923850  
C    -4.0763650    0.2835840   -0.4392630  
C    -4.0902910    1.3938470   -1.2818380  
O    -5.2966250    1.8960810   -1.7340010  
C    -2.9070030    2.0408320   -1.7150460  
O    -3.1409240    3.1183140   -2.5503750  
C    -1.6562550    1.6080320   -1.3250880  
H    -3.0776000   -1.8299180    1.1967710  
H    -5.0916370    2.6812630   -2.2742710  
H    -2.3105830    3.5908880   -2.7103630  
H    -0.7546860    2.1098150   -1.6659770  
H    -0.5633200   -2.0787770    1.3796960  
C     1.7819700   -0.9332860   -0.6331090  
C     3.0505810   -0.4038320   -0.6497380  
C     2.9360540    0.9220750   -0.0833420  
C     1.5751930    1.1224530    0.2589580  
N     0.8762050   -0.0271050   -0.0934080  
C     1.1116960    2.3066280    0.8478550  
C     2.0363690    3.3157130    1.0706830  
O     1.6363190    4.4949370    1.6370770  
C     3.3979770    3.1413780    0.7112530  
O     4.1968720    4.2391710    0.9851610  
C     3.8542850    1.9665210    0.1421490  
H     0.0740950    2.4533390    1.1258750  
H     2.4244800    5.0613190    1.6994700  
H     5.0938890    4.0683280    0.6622080  
H     4.9016700    1.8517950   -0.1280100  
H     1.4338090   -1.9012190   -0.9646650  
C     4.3872040   -1.6843650   -2.3847290  
C     4.2576250   -1.0520270   -1.1686260  
C     5.5403960   -1.1818320   -0.5112490  
C     6.3961810   -1.8996540   -1.3859860  
N     5.6640960   -2.1985590   -2.5172620  
C     7.7208910   -2.2158370   -1.0576050  
C     8.1889180   -1.8062870    0.1813350  
O     9.4736510   -2.0886770    0.5531460  
C     7.3426560   -1.0992820    1.0753310  
O     7.9493800   -0.7648350    2.2749360  
C     6.0361030   -0.7877650    0.7478830  
H     6.0143810   -2.6854020   -3.3268020  
H     8.3781060   -2.7662710   -1.7234370  
H     9.5893770   -1.7461700    1.4561330  
H     7.2876530   -0.3836660    2.8706920  
H     5.4018350   -0.2521700    1.4506930  
H     3.6632520   -1.7903030   -3.1804560  
C    -5.4786330   -1.0967040    3.6126170  
C    -4.7900050   -0.4974000    2.5893450  
C    -5.5027050   -0.7803280    1.3690350  
C    -6.6359280   -1.5560000    1.7324180  
N    -6.5865890   -1.7429520    3.0992800  
C    -7.5970440   -1.9870160    0.8106280  
C    -7.4144840   -1.6002140   -0.5060580  
O    -8.3175740   -1.9589870   -1.4597710  
C    -6.2876160   -0.8281230   -0.9024480  
O    -6.2462350   -0.5639330   -2.2563010  
C    -5.3025190   -0.4282370    0.0026660  
H    -3.8988220    0.1038570    2.6973960  
H    -7.2802310   -2.2328910    3.6419090  
H    -8.4653160   -2.5746170    1.0908980  
H    -7.9907750   -1.5575560   -2.2879140  
H    -6.0107800    0.3824180   -2.3683970  
H    -5.2761580   -1.1106730    4.6742930  
