64


C     0.6681840    0.2384550   -1.7147480  
C     1.9914750    0.0043140   -1.4525720  
C     2.2975650    0.6458300   -0.2051520  
C     1.1005500    1.2526250    0.2518410  
N     0.1098220    0.9999640   -0.6908560  
C     1.0064030    1.9322310    1.4709810  
C     2.1558530    2.0088550    2.2402530  
O     2.1344620    2.6750380    3.4320830  
C     3.3681920    1.4168600    1.8058960  
O     4.4210200    1.6020400    2.6846880  
C     3.4725160    0.7318710    0.5912500  
H     2.6704130   -0.5591140   -2.0757000  
H     0.0910690    2.4014340    1.8113340  
H     3.0453930    2.6653200    3.7747850  
H     5.2535460    1.3800890    2.2295300  
H     0.0617070   -0.0354280   -2.5668830  
C    -3.3067120   -1.6220220   -0.3299510  
C    -4.3080750   -0.6620730   -0.3126750  
C    -3.6326690    0.6199150   -0.4365200  
C    -2.2471690    0.3459150   -0.5063850  
N    -2.0800410   -1.0228860   -0.4479240  
C    -1.2626850    1.3462280   -0.5974360  
C    -1.6988340    2.6684490   -0.6100080  
O    -0.8027530    3.6847430   -0.7141890  
C    -3.0864950    2.9565110   -0.5180570  
O    -3.3646920    4.3094360   -0.5390490  
C    -4.0459850    1.9668200   -0.4347780  
H    -1.1900340   -1.4941000   -0.5154030  
H    -1.3143700    4.5131830   -0.7261270  
H    -4.3185980    4.4400900   -0.6485010  
H    -5.0984300    2.2251230   -0.4025230  
H    -3.3953000   -2.6985100   -0.3167830  
C     4.7454830    0.1598760    0.1503550  
C     5.3181510    0.0941650   -1.0984920  
C     6.5935550   -0.5533470   -0.9723630  
C     6.7631650   -0.8716430    0.3970090  
N     5.6579930   -0.3760390    1.0850530  
C     7.8891300   -1.5402560    0.8845200  
C     8.8737570   -1.8877270   -0.0305630  
O     9.9922370   -2.5465640    0.3919250  
C     8.7314440   -1.5582010   -1.4032390  
O     9.7976050   -1.9586690   -2.1866660  
C     7.6133440   -0.8973590   -1.8807860  
H     4.8954460    0.5183040   -1.9985960  
H     5.3288110   -0.8034270    1.9420420  
H     8.0208340   -1.7890670    1.9326920  
H    10.5539570   -2.6888030   -0.3893450  
H     9.6364000   -1.7020900   -3.1065620  
H     7.5251060   -0.6586710   -2.9388940  
C    -6.5003940   -3.6713050    2.1076010  
C    -5.5536740   -2.8518020    1.5841200  
C    -6.2083310   -1.9770600    0.6294680  
C    -7.6389060   -2.3539130    0.6528430  
N    -7.7445060   -3.4034140    1.5419480  
C    -8.6274110   -1.7525890   -0.0661610  
C    -8.2606120   -0.6405800   -0.9142310  
O    -9.0571680    0.0054480   -1.5818350  
C    -6.7404280   -0.2209440   -0.9768390  
O    -6.4475740    0.7173160   -1.6989890  
C    -5.7299280   -0.9684990   -0.1776160  
H    -4.5096860   -2.8323110    1.8552540  
H    -9.6683030   -2.0573150   -0.0228990  
H    -6.4045250   -4.4442810    2.8582920  
H    -8.6141560   -3.8316910    1.8176060  
