64


C     3.7680810   -0.5476230   -0.0505150  
C     3.7875950   -1.9096090    0.1698860  
C     5.1458800   -2.3523400    0.0630020  
C     5.9327490   -1.2055280   -0.2263620  
N     5.0790660   -0.1182100   -0.2561610  
C     7.3180250   -1.2665760   -0.4127590  
C     7.9263790   -2.5080390   -0.2990340  
O     9.2761860   -2.6238840   -0.4764690  
C     7.1592120   -3.6631180    0.0042520  
O     7.9082170   -4.8233340    0.0938790  
C     5.7899180   -3.5998880    0.1879820  
H     2.9270000   -2.5135980    0.4244670  
H     5.3060200    0.7773670   -0.6621740  
H     7.9216510   -0.3937890   -0.6405980  
H     9.4994250   -3.5638070   -0.3639400  
H     7.3190800   -5.5733000    0.2619980  
H     5.2243720   -4.5011650    0.4176660  
C     1.3930870    0.1273840   -0.5515300  
C     2.6617310    0.3923210   -0.0888120  
C     2.6645440    1.7818800    0.3195640  
C     1.3727010    2.3005910    0.0647070  
N     0.5978680    1.2678530   -0.4650080  
C     1.0115730    3.6137410    0.3857830  
C     1.9782910    4.4205610    0.9644660  
O     1.6794710    5.7107020    1.2890930  
C     3.2774480    3.9149030    1.2350610  
O     4.1217210    4.8317810    1.8298590  
C     3.6276570    2.6140970    0.9243560  
H     0.0295090    4.0203080    0.1785350  
H     2.4825250    6.1078550    1.6676320  
H     4.9867120    4.4241470    1.9841440  
H     4.6166070    2.2359480    1.1733220  
H     1.0075700   -0.7643720   -1.0249570  
C    -2.6441540   -1.2222590    0.9248820  
C    -3.6673670   -0.7313180    0.1663460  
C    -3.0964260    0.3507810   -0.6370440  
C    -1.6663130    0.4265120   -0.2738840  
N    -1.4520410   -0.5496930    0.6721240  
C    -0.7710060    1.3141730   -0.8041450  
C    -1.2674820    2.2647650   -1.8103310  
O    -0.5509260    3.0688490   -2.3814590  
C    -2.8052030    2.2300920   -2.1579240  
O    -3.2362750    3.0647620   -2.9372550  
C    -3.6478960    1.2124420   -1.5309210  
H    -4.6942870    1.1741040   -1.8098640  
H    -2.6614560   -2.0395420    1.6341740  
H    -0.5580420   -0.7407560    1.0988900  
C    -6.4734330   -1.1613080    3.5440810  
C    -7.5441610   -1.6455840    2.8401970  
C    -7.1446950   -1.7234240    1.4628510  
C    -5.8010640   -1.2739010    1.3950430  
N    -5.4119260   -0.9533950    2.6805000  
C    -5.0688440   -1.1871670    0.1911130  
C    -5.7481980   -1.5723080   -0.9662550  
O    -5.1075680   -1.5350790   -2.1722430  
C    -7.0921340   -2.0242410   -0.9152900  
O    -7.6025160   -2.3713600   -2.1527980  
C    -7.7916980   -2.1105280    0.2729220  
H    -8.5059520   -1.9177240    3.2528020  
H    -4.5495360   -0.4861610    2.9138780  
H    -5.7454560   -1.8330430   -2.8442670  
H    -8.5221620   -2.6587870   -2.0553470  
H    -8.8212910   -2.4625000    0.2828960  
H    -6.3683220   -0.9534550    4.5995950  
