66


C     4.3744830   -0.8030800    0.0456430  
C     5.1048040   -1.8705190    0.5061860  
C     6.4769920   -1.6102870    0.1732940  
C     6.5192050   -0.3521080   -0.4838550  
N     5.2218950    0.1268270   -0.5400350  
C     7.7087660    0.2226650   -0.9434230  
C     8.8831970   -0.4867710   -0.7392210  
O    10.0721170    0.0255100   -1.1758110  
C     8.8627040   -1.7421510   -0.0784350  
O    10.1109440   -2.3236080    0.0556510  
C     7.6845930   -2.3059070    0.3777090  
H     4.7076290   -2.7160290    1.0497520  
H     4.9057010    0.9193050   -1.0778930  
H     7.7436580    1.1840160   -1.4456620  
H    10.7643340   -0.6139980   -0.9354920  
H    10.0225980   -3.1723440    0.5135500  
H     7.6957750   -3.2699410    0.8827080  
C     2.0385160   -1.5479270   -0.2700220  
C     0.7849260   -1.0239070   -0.1309080  
C     0.9350050    0.3345220    0.3151560  
C     2.3259770    0.5817360    0.4314370  
N     2.9934230   -0.5880360    0.0630900  
C     2.8456770    1.8098020    0.8592690  
C     1.9337380    2.8115940    1.1541570  
O     2.3791920    4.0285180    1.5862860  
C     0.5398430    2.5903930    1.0296020  
O    -0.2281010    3.6853060    1.3812310  
C     0.0106260    1.3672510    0.6184450  
H    -0.1419790   -1.5365190   -0.3444830  
H     3.9062430    1.9923490    0.9886820  
H     1.5907370    4.5602910    1.7921860  
H    -1.1636660    3.4229560    1.3975110  
H     2.3642570   -2.5220300   -0.6042680  
C    -2.1500910    0.1193330    1.0949130  
C    -1.4487260    1.1618450    0.5371800  
C    -2.4286860    2.0004660   -0.1340310  
C    -3.7021600    1.4131400    0.0575060  
N    -3.5028950    0.2643030    0.8137950  
C    -4.8822470    1.9447320   -0.4693260  
C    -4.7721730    3.1071930   -1.2174570  
O    -5.8868930    3.6771660   -1.7549500  
C    -3.5040930    3.7110670   -1.4348490  
O    -3.5586460    4.8554510   -2.2050660  
C    -2.3418070    3.1764140   -0.9103960  
H    -5.8506830    1.4810050   -0.3195070  
H    -5.5992050    4.4610850   -2.2541850  
H    -2.6620620    5.1923070   -2.3506580  
H    -1.3818260    3.6505860   -1.0982440  
H    -1.8113270   -0.7161750    1.6894240  
C    -5.2116980   -0.5107240    2.3923870  
C    -6.0904270   -1.5543800    2.4556710  
C    -5.9122950   -2.3455260    1.2663120  
C    -4.8961740   -1.7298870    0.4960420  
N    -4.4829280   -0.6071620    1.2070800  
C    -4.4540370   -2.2274380   -0.7330110  
C    -5.0588310   -3.3855200   -1.1983270  
O    -4.6716630   -3.9219440   -2.3911900  
C    -6.0809040   -4.0227560   -0.4446720  
O    -6.5820290   -5.1643860   -1.0412440  
C    -6.5104930   -3.5207230    0.7699480  
H    -6.7896020   -1.7431390    3.2588720  
H    -3.6786570   -1.7451570   -1.3177480  
H    -5.2144380   -4.7152610   -2.5402580  
H    -7.2839920   -5.5372990   -0.4879220  
H    -7.2951410   -4.0268320    1.3290460  
H    -5.0194520    0.3079390    3.0702650  
