60


C     3.0757860    2.5880130    3.8609330  
C     2.8239380    1.5627600    2.9865250  
C     2.9913560    2.0949140    1.6636760  
C     3.3529230    3.4624640    1.8011430  
N     3.3898430    3.7324330    3.1527300  
C     3.6246010    4.2949530    0.7094920  
C     3.5279450    3.7392660   -0.5577630  
O     3.7816110    4.4994290   -1.6562020  
C     3.1464640    2.3827060   -0.7362860  
O     3.0080350    1.9919610   -2.0519230  
C     2.8753170    1.5662860    0.3597640  
H     2.5669730    0.5484160    3.2566600  
H     3.6431420    4.6187380    3.5609550  
H     3.9140490    5.3348400    0.8189610  
H     3.6782910    3.9165900   -2.4307320  
H     3.3281550    1.0787340   -2.1718630  
H     3.0617040    2.5980850    4.9414850  
C     1.2381320   -0.2958920    0.5866890  
C     1.0617660   -1.6045970    0.2184890  
C     2.2773450   -1.9759710   -0.5212260  
C     3.1373340   -0.7679820   -0.5346750  
N     2.4546490    0.2189260    0.1599320  
C     4.3642000   -0.6884520   -1.1233780  
C     4.8788040   -1.8658170   -1.8184480  
O     5.9747300   -1.8995490   -2.3548530  
C     3.9613080   -3.1357900   -1.8696780  
O     4.3310510   -4.1117260   -2.4993350  
C     2.6751220   -3.1077230   -1.1518610  
H     5.0101420    0.1800850   -1.0319470  
H     2.0942910   -4.0213910   -1.1409520  
H     0.5830900    0.3359940    1.1700020  
C    -3.2699270   -0.5635760    0.1791100  
C    -1.8953100   -0.5840610    0.0161200  
C    -1.4061400   -1.8508220    0.4665370  
C    -2.5965870   -2.6152870    0.9003060  
N    -3.6746680   -1.7771090    0.7365190  
C    -2.5785070   -3.8976260    1.3517860  
C    -1.3022530   -4.5844720    1.4061830  
O    -1.1676000   -5.7436920    1.7672850  
C    -0.0103140   -3.7971850    0.9690780  
O     1.0623400   -4.3725000    1.0425380  
C    -0.1313480   -2.3877840    0.5120270  
H    -1.3116770    0.1862180   -0.4606260  
H    -3.4704400   -4.4330870    1.6603090  
H    -4.6504320   -2.0342180    0.8011090  
C    -2.9940040    3.8152690   -0.7762120  
C    -2.6567670    2.5716290   -0.3393170  
C    -3.8730820    1.7875480   -0.4363490  
C    -4.8802740    2.7626410   -0.9537850  
N    -4.3566450    3.9399630   -1.1633800  
C    -6.2531620    2.4003850   -1.1737490  
C    -6.6324830    1.1397960   -0.8620630  
O    -7.8910200    0.6854150   -0.9859490  
C    -5.6613310    0.1364810   -0.3197090  
O    -6.1272490   -0.9627680   -0.0019440  
C    -4.2093320    0.4786380   -0.1837880  
H    -1.6982290    2.2551370    0.0416780  
H    -6.9529700    3.1344540   -1.5571630  
H    -7.8786460   -0.2419300   -0.6678870  
H    -2.3540050    4.6869830   -0.8449580  
