64


C    -4.1882050    1.2843140   -1.2801990  
C    -4.0241860    0.0130270   -0.7664660  
C    -5.1977140   -0.2484180    0.0394100  
C    -6.0235250    0.9018500   -0.0325050  
N    -5.3836690    1.8165430   -0.8452900  
C    -7.2440570    1.0065480    0.6473750  
C    -7.6383930   -0.0739980    1.4193230  
O    -8.8208540   -0.0314290    2.1024900  
C    -6.8219840   -1.2324920    1.5076610  
O    -7.3488610   -2.2258420    2.3158640  
C    -5.6186950   -1.3307360    0.8368070  
H    -5.7416260    2.7240500   -1.0975400  
H    -7.8763210    1.8869350    0.5911980  
H    -8.9101720   -0.8809080    2.5678410  
H    -6.7614050   -2.9955410    2.2958730  
H    -5.0205560   -2.2347220    0.9032880  
H    -3.5523270    1.8397240   -1.9555880  
C     0.2612210    1.0095600   -0.5545190  
C     0.7559720   -0.2428080   -0.9060910  
C    -0.3578880   -1.1015370   -1.1175610  
C    -1.5319660   -0.3310120   -0.8842360  
N    -1.1274720    0.9369040   -0.5526260  
C    -2.8455240   -0.8432090   -0.9883640  
C    -2.9303640   -2.1929170   -1.3373610  
O    -4.1517510   -2.7881200   -1.4868690  
C    -1.7673590   -2.9807200   -1.5676530  
O    -2.0513080   -4.2955130   -1.9028950  
C    -0.4940780   -2.4621740   -1.4704020  
H     1.8019220   -0.4803370   -1.0148100  
H    -1.7353370    1.7057090   -0.3108420  
H    -3.9844060   -3.6932040   -1.8041950  
H    -1.2500950   -4.7175210   -2.2463060  
H     0.3767350   -3.0870290   -1.6591370  
C     4.5409960    1.7902450    0.1605530  
C     4.5356910    3.1601230    0.2520110  
C     3.1663930    3.5649330    0.1262550  
C     2.4125730    2.2793590   -0.0760670  
N     3.2109180    1.2593670   -0.0374170  
C     0.9579970    2.2485280   -0.2685330  
C     0.3418210    3.4668590   -0.1507730  
O    -0.9976170    3.6430560   -0.2623340  
C     1.0634370    4.7518990    0.0794600  
O     0.3673210    5.7768460    0.1431050  
C     2.5154540    4.7526320    0.2037180  
H     5.3771970    3.8127450    0.4394540  
H    -1.1144930    4.6164020   -0.1366100  
H     3.0061930    5.7071680    0.3653380  
C     6.9805550    1.1720280    0.1590990  
C     5.6277560    0.8563750    0.2324240  
C     5.5584820   -0.5852140    0.4002450  
C     6.8882950   -1.0658980    0.4189580  
N     7.7246660    0.0326250    0.2673440  
C     7.2117870   -2.4172090    0.5818930  
C     6.1585430   -3.3064450    0.7361530  
O     6.4090090   -4.6362780    0.9015470  
C     4.8170570   -2.8410970    0.7295200  
O     3.8784000   -3.8398730    0.8980090  
C     4.5058950   -1.5036860    0.5674180  
H     8.7316540   -0.0070520    0.2193930  
H     8.2330050   -2.7836560    0.5994130  
H     5.5493860   -5.0777970    1.0150820  
H     2.9973850   -3.4417210    0.9676870  
H     3.4770850   -1.1584370    0.5676720  
H     7.4544410    2.1320690    0.0120510  
