60


C    -4.8661750    0.2536020   -1.7200050  
C    -5.8148020   -0.5454660   -1.1380230  
C    -5.1155000   -1.4599930   -0.2821390  
C    -3.7265520   -1.1750590   -0.4109650  
N    -3.6061110   -0.1428150   -1.3193380  
C    -2.7276430   -1.9137580    0.2769950  
C    -3.2023750   -2.8622210    1.1991090  
O    -2.3317870   -3.5243030    2.0136790  
C    -4.5841290   -3.1404610    1.3353760  
O    -4.8637200   -4.1261970    2.2704140  
C    -5.5386210   -2.4771960    0.5924870  
H    -6.8841910   -0.4899730   -1.2900600  
H    -2.8047120    0.4828620   -1.3194740  
H    -2.8598940   -4.1535870    2.5351910  
H    -5.8229290   -4.2416590    2.3328620  
H    -6.5944050   -2.7178070    0.7047140  
H    -4.9743750    1.0965560   -2.3878360  
C    -0.1356300    1.6469750   -0.1625160  
C     1.1097740    1.0747430   -0.1912590  
C     0.8927660   -0.3473320   -0.1273910  
C    -0.5979590   -0.4921380   -0.0273450  
N    -1.1785660    0.6729460   -0.0610850  
C    -1.2696540   -1.7764520    0.0587530  
C    -0.4393380   -2.8545130   -0.1078610  
O    -0.8683110   -4.1184920   -0.1855190  
C     1.0589460   -2.7506030   -0.1865940  
O     1.6886960   -3.8085580   -0.2044180  
C     1.7201750   -1.4211200   -0.2248470  
H     2.0628290    1.5619270   -0.3319480  
H    -0.0504330   -4.6628200   -0.2381990  
C     4.7920360    0.5597280    2.2663720  
C     5.9385310    0.1382640    1.6877170  
C     5.5129370   -0.6743630    0.5537810  
C     4.0123940   -0.6356970    0.6138760  
N     3.6042100    0.0979370    1.6097280  
C     3.1879450   -1.3617980   -0.3435210  
C     3.8596150   -2.0154560   -1.3379410  
O     3.2541120   -2.6584130   -2.3399350  
C     5.3632350   -2.0482980   -1.4266960  
O     5.8614890   -2.6691730   -2.3629650  
C     6.1668270   -1.3461660   -0.4122140  
H     6.9574430    0.3426680    1.9855110  
H     3.9765260   -3.0444580   -2.8843360  
H     7.2472010   -1.4009890   -0.5044860  
H     4.6803600    1.1820600    3.1466120  
C     1.8534550    5.0631730    1.6805430  
C     1.0267200    6.0625370    1.2793970  
C    -0.0153490    5.4584970    0.4752620  
C     0.2860280    4.0112100    0.4328340  
N     1.4393730    3.8387170    1.1611970  
C    -0.4833340    3.0535290   -0.1872380  
C    -1.6840910    3.5360010   -0.9024420  
O    -2.4012980    2.8192670   -1.5804300  
C    -2.0286640    5.0709790   -0.8451770  
O    -3.0494330    5.4589300   -1.3899710  
C    -1.1126370    5.9711840   -0.1454780  
H     1.1206830    7.1116480    1.5186690  
H    -1.3610930    7.0278330   -0.1244400  
H     2.7372700    5.1090590    2.3027400  
H     1.8058110    2.9307290    1.4170310  
