60


C    -3.1808600    1.4503540   -1.3847450  
C    -3.0801000    0.3498460   -0.5408330  
C    -4.4183940    0.1262980   -0.0148920  
C    -5.2514190    1.1284150   -0.5693000  
N    -4.4658600    1.9092440   -1.4040940  
C    -6.6100700    1.2594140   -0.2640670  
C    -7.1491910    0.3524150    0.6342300  
O    -8.4670080    0.4238010    0.9669670  
C    -6.3316420   -0.6548420    1.2122810  
O    -7.0071170   -1.4805920    2.0868280  
C    -4.9898400   -0.7751500    0.9049220  
H    -4.8083670    2.6551100   -1.9905160  
H    -7.2394130    2.0310840   -0.6951130  
H    -8.6461190   -0.2967960    1.5960880  
H    -6.4115620   -2.1759420    2.4039430  
H    -4.3984700   -1.5713680    1.3430760  
H    -2.4212990    1.8907140   -2.0135490  
C     1.1810430    1.6368850   -0.0263560  
C    -0.1844770    1.6550570   -0.1907530  
C    -0.5979250    0.2700180   -0.2401030  
C     0.6750760   -0.4844830   -0.1340910  
N     1.7029600    0.3066210   -0.0190790  
C     0.7253880   -1.9410430   -0.1514630  
C    -0.4840750   -2.5659820   -0.1342920  
O    -0.6288070   -3.8948060   -0.0329930  
C    -1.7944860   -1.8290160   -0.1900800  
O    -2.8079240   -2.5292180   -0.1628110  
C    -1.8246380   -0.3443970   -0.3053430  
H    -0.8407960    2.5115320   -0.1184040  
H    -1.5983970   -4.0528150   -0.0763020  
C     1.2909450    5.5497110   -1.9915350  
C     2.3896670    6.0772450   -1.3935340  
C     2.8818670    5.0923300   -0.4522360  
C     1.9621750    3.9388470   -0.5469480  
N     1.0028050    4.2900220   -1.4725680  
C     2.0956850    2.7535260    0.1334490  
C     3.2111730    2.6854290    1.1083510  
O     3.3417150    1.7803310    1.9119760  
C     4.2328100    3.8801720    1.1730260  
O     5.2124120    3.7708210    1.8931860  
C     3.9618540    5.0749780    0.3764630  
H     2.8215990    7.0489870   -1.5833790  
H     4.6600210    5.9030690    0.4504530  
H     0.6541440    5.9736300   -2.7566940  
H     0.3463630    3.6256670   -1.8567520  
C     4.5449190   -2.0698300    2.2529130  
C     3.3392310   -1.6650320    1.7946630  
C     3.0471100   -2.5401490    0.6621890  
C     4.2430600   -3.4444430    0.5914800  
N     5.1032820   -3.1770970    1.5286680  
C     4.3594710   -4.4861920   -0.3962690  
C     3.3523460   -4.6196600   -1.2864760  
O     3.3351930   -5.5235440   -2.2831560  
C     2.1446060   -3.7247220   -1.2582860  
O     1.3315580   -3.8617940   -2.1692990  
C     1.9904270   -2.6994690   -0.1778510  
H     2.7527540   -0.8233700    2.1271530  
H     5.2395340   -5.1194300   -0.4152340  
H     2.5004470   -5.3483030   -2.7707130  
H     5.1166420   -1.6524740    3.0727960  
