62


C    -7.3939300    1.4210780   -3.1307430  
C    -6.2692120    1.3038440   -2.3553860  
C    -6.6318470    0.5421090   -1.1925410  
C    -8.0072720    0.2174830   -1.3269220  
N    -8.4449320    0.7714720   -2.5126930  
C    -8.7047560   -0.5466500   -0.3844140  
C    -7.9975260   -0.9904730    0.7206020  
O    -8.6294600   -1.7293940    1.6772860  
C    -6.6233050   -0.6742030    0.8823320  
O    -6.0874050   -1.1715790    2.0547440  
C    -5.9173360    0.0821290   -0.0529930  
H    -5.2932740    1.6996380   -2.5978340  
H    -9.3803410    0.6939100   -2.8797300  
H    -9.7556740   -0.7972140   -0.4860210  
H    -7.9735120   -1.9285090    2.3677000  
H    -5.1708490   -0.8723800    2.1548530  
H    -7.5364400    1.9153350   -4.0813170  
C    -3.9314460    1.6580350    0.0353750  
C    -4.4951040    0.4188120    0.1434590  
C    -3.3911830   -0.4966180    0.4377530  
C    -2.1644230    0.3254650    0.5160130  
N    -2.5640310    1.6205310    0.2840290  
C    -0.8915640   -0.1514170    0.7343090  
C    -0.7724700   -1.6151910    0.9502000  
O     0.2564650   -2.1626240    1.2970540  
C    -2.0557230   -2.5074970    0.7783640  
O    -1.9331530   -3.7206280    0.8254430  
C    -3.3476040   -1.8516840    0.5728340  
H    -4.2280060   -2.4796270    0.4817430  
H    -4.4150910    2.5994400   -0.1877060  
H    -1.9140510    2.3752320    0.1143590  
C     0.2734170    0.7138700    0.7648360  
C     0.3642900    2.0219530    1.1698740  
C     1.7334270    2.4156780    0.9280940  
C     2.3789820    1.1947490    0.3511180  
N     1.5266770    0.2174020    0.2661100  
C     3.7967090    1.1622200   -0.0462930  
C     4.4478420    2.3634940    0.0891370  
O     5.7292580    2.5729780   -0.2967270  
C     3.8284080    3.5837740    0.6622890  
O     4.5215450    4.6084390    0.7327450  
C     2.4248230    3.5608110    1.0972060  
H    -0.3843990    2.6178560    1.6750060  
H     5.8899110    3.5205930   -0.0813050  
H     2.0123850    4.4777300    1.5073610  
C     3.6663970   -1.1025510   -1.1273820  
C     4.3946020   -0.0751000   -0.5352250  
C     5.7767760   -0.5393890   -0.4986100  
C     5.7945780   -1.8278520   -1.0903700  
N     4.4975560   -2.1256650   -1.4738460  
C     6.9450360   -2.6130290   -1.2054280  
C     8.1255320   -2.0941350   -0.6960590  
O     9.2822380   -2.8134920   -0.7786050  
C     8.1324970   -0.8173130   -0.0829970  
O     9.3746690   -0.4303200    0.3878200  
C     6.9888940   -0.0467940    0.0262530  
H     4.1954490   -3.0010010   -1.8735280  
H     6.9404600   -3.5977480   -1.6615870  
H     9.9810740   -2.2768650   -0.3662070  
H     9.3086230    0.4587440    0.7664280  
H     7.0344840    0.9314590    0.4898180  
H     2.6040320   -1.1634410   -1.2934280  
