60


C    -3.6434070    0.6611190   -2.2592660  
C    -4.4766130    1.7322800   -2.3812850  
C    -5.1804740    1.8749250   -1.1349620  
C    -4.7364610    0.8350720   -0.2812020  
N    -3.7902700    0.0851410   -0.9928260  
C    -5.1768270    0.7145460    1.0406790  
C    -6.1035460    1.6418290    1.4972850  
O    -6.5678030    1.5574730    2.7800260  
C    -6.5720980    2.6753760    0.6503060  
O    -7.4911980    3.5197530    1.2452410  
C    -6.1196030    2.8024950   -0.6521690  
H    -4.5782460    2.3566820   -3.2585080  
H    -4.8422120   -0.0700980    1.7061060  
H    -7.2085030    2.2790490    2.9006220  
H    -7.7890380    4.1771510    0.5994430  
H    -6.4771180    3.6141030   -1.2831140  
H    -2.9424400    0.2346640   -2.9585760  
C     0.4242970   -0.7268550   -1.2543150  
C     0.5474110   -1.9405590   -0.6313330  
C    -0.8479710   -2.2797400   -0.2525330  
C    -1.6470340   -1.1234960   -0.7358750  
N    -0.8954530   -0.2338080   -1.3256870  
C    -3.0891890   -1.0441040   -0.5447330  
C    -3.6858270   -2.0956830    0.0938560  
O    -5.0104790   -2.1876690    0.3102470  
C    -2.8998580   -3.2466210    0.6082470  
O    -3.5116070   -4.1535970    1.1766470  
C    -1.4339000   -3.2999640    0.3985300  
H    -5.1302240   -3.0400100    0.7858070  
H    -0.9152390   -4.1824470    0.7509390  
H     1.2105650   -0.1548480   -1.7329650  
C     4.5161020   -0.4675600    0.5153640  
C     5.1736930   -1.6714050    0.5826620  
C     4.2494440   -2.7104370    0.2278530  
C     2.9662900   -2.0384520   -0.0654940  
N     3.2030870   -0.6795580    0.0568630  
C     1.7804790   -2.6691960   -0.3550680  
C     1.8417900   -4.1486860   -0.4068950  
O     0.8655030   -4.8454820   -0.6305230  
C     3.2213750   -4.8741280   -0.1828780  
O     3.2482860   -6.0927840   -0.2708480  
C     4.3846150   -4.0662480    0.1429420  
H     6.2205790   -1.8061510    0.8141380  
H     5.3228040   -4.5760770    0.3374660  
H     2.4446920   -0.0330290    0.2366970  
C     6.0111740    1.1984240    1.6717220  
C     4.9945850    0.8555860    0.8182120  
C     4.5197080    2.1481560    0.2882970  
C     5.3921210    3.1560110    0.9662990  
N     6.2573880    2.5812900    1.7632110  
C     5.2614110    4.5625800    0.7171810  
C     4.3240140    4.9631280   -0.1777560  
O     4.0957030    6.2399960   -0.5051890  
C     3.4499840    3.9725010   -0.9019940  
O     2.6356980    4.4076490   -1.7095770  
C     3.6032890    2.5261810   -0.6224260  
H     5.9062520    5.2658340    1.2319550  
H     3.3763250    6.2241430   -1.1742510  
H     2.9686010    1.8518010   -1.1882230  
H     6.6032730    0.5226380    2.2778600  
