60


C     4.8567190    0.7617870    2.7757280  
C     3.8179460    0.1718110    2.0965880  
C     4.3793460   -0.5322960    0.9820530  
C     5.7879110   -0.3394490    1.0520540  
N     6.0430450    0.4659150    2.1430410  
C     6.6847350   -0.9259850    0.1607070  
C     6.1531120   -1.7635500   -0.8133890  
O     6.9781880   -2.3686690   -1.7029510  
C     4.7601940   -2.0076380   -0.8988160  
O     4.4150090   -2.8355290   -1.9405590  
C     3.8392670   -1.3749320   -0.0454320  
H     2.7752970    0.2459050    2.3663630  
H     6.9597010    0.7434530    2.4582370  
H     7.7580610   -0.7754170    0.2148200  
H     6.4046010   -2.9233070   -2.2664520  
H     3.7617860   -3.4825350   -1.5950180  
H     4.8428850    1.3782000    3.6633230  
C     0.3781310    1.4448430   -0.1401110  
C     1.6447460    0.9197610   -0.1318310  
C     1.4800770   -0.5049660   -0.1234050  
C     0.0069910   -0.7091200   -0.1202580  
N    -0.6292890    0.4273880   -0.1305080  
C    -0.5948470   -2.0492450   -0.1288340  
C     0.3069870   -3.0736850   -0.2618100  
O    -0.0461990   -4.3734450   -0.3444030  
C     1.7823640   -2.8794080   -0.3424260  
O     2.4400550   -3.9243220   -0.5224660  
C     2.3863280   -1.5434750   -0.1776930  
H     2.5822310    1.4537560   -0.1587770  
H     0.8033530   -4.8625660   -0.4537310  
C    -2.0252660   -2.2523700   -0.0179090  
C    -3.0202420   -1.3246400    0.2102420  
C    -4.2737780   -2.0216450    0.2638620  
C    -3.9618800   -3.4557400    0.0479930  
N    -2.5982310   -3.5267260   -0.1169010  
C    -4.8899830   -4.4468470    0.0310230  
C    -6.2906830   -4.0919570    0.2359790  
O    -7.1949350   -4.9133240    0.2376020  
C    -6.6455230   -2.5769150    0.4660090  
O    -7.8117540   -2.2587790    0.6403170  
C    -5.5544270   -1.5984870    0.4631940  
H    -2.8598700   -0.2666250    0.3272720  
H    -4.6438450   -5.4921890   -0.1274610  
H    -5.8111100   -0.5557170    0.6239240  
H    -2.0601340   -4.3686510   -0.2563540  
C    -0.0445080    2.8155920   -0.1811340  
C     0.6972080    3.9788400   -0.1493990  
C    -0.2152500    5.0823970   -0.2220190  
C    -1.5780070    4.4928050   -0.3022250  
N    -1.4000930    3.1269850   -0.2660540  
C    -2.7202950    5.2196930   -0.3912440  
C    -2.6196750    6.6767810   -0.4056040  
O    -3.5924770    7.4111380   -0.4825560  
C    -1.1888920    7.3232210   -0.3159100  
O    -1.0852180    8.5408140   -0.3236170  
C    -0.0294330    6.4345620   -0.2267960  
H     1.7732070    4.0427460   -0.0752580  
H    -3.7083570    4.7741240   -0.4511030  
H     0.9539440    6.8913290   -0.1689870  
H    -2.1173610    2.4210230   -0.3338880  
