62


C    -1.7291140    0.1954690    0.6436430  
C    -1.2297750   -1.0684020    0.3980190  
C    -2.3540090   -1.9857530    0.4731790  
C    -3.5028550   -1.2153650    0.7600640  
N    -3.0865070    0.1121450    0.8640320  
C    -4.7786520   -1.7592740    0.9218550  
C    -4.8973750   -3.1349610    0.7939350  
O    -6.1133410   -3.7258880    0.9377560  
C    -3.7542860   -3.9369750    0.5260020  
O    -4.0312040   -5.2839490    0.4480270  
C    -2.4952290   -3.3845890    0.3692880  
H    -5.6499750   -1.1524070    1.1397750  
H    -5.9903830   -4.6845550    0.8253410  
H    -3.2137940   -5.7836600    0.3039320  
H    -1.6347230   -4.0267100    0.1986200  
H    -1.2392240    1.1579030    0.6416180  
C     0.1507470   -1.3713380    0.1038030  
C     1.3031750   -0.7216890    0.4715820  
C     2.4204840   -1.3917510   -0.1342920  
C     1.8423430   -2.5093380   -0.9158190  
N     0.4762030   -2.4937310   -0.6758040  
C     2.5470350   -3.3503120   -1.7124960  
C     3.9886390   -3.1670060   -1.7916140  
O     4.7141880   -3.8528290   -2.4950190  
C     4.6444910   -2.0356710   -0.9167040  
O     5.8611940   -1.9299260   -0.9407880  
C     3.7787630   -1.1593240   -0.1004160  
H     1.3521610    0.1320840    1.1303100  
H     2.0937900   -4.1502370   -2.2899120  
H    -0.1873440   -2.9005160   -1.3203010  
C     4.0655860    0.1063140    2.0549100  
C     4.3831850   -0.1261560    0.7462120  
C     5.4002170    0.8728440    0.3938040  
C     5.6234570    1.6905170    1.6123180  
N     4.7784460    1.1762270    2.5764250  
C     6.4930770    2.7288710    1.7057230  
C     7.2593070    3.0981740    0.5219990  
O     8.0625440    4.0191010    0.5034530  
C     7.0193160    2.2688460   -0.7912160  
O     7.6255580    2.5783460   -1.8041090  
C     6.0664300    1.1508450   -0.7545580  
H     6.6388830    3.3040170    2.6151170  
H     5.9481590    0.5666280   -1.6591720  
H     3.3735340   -0.4379170    2.6837550  
H     4.7659180    1.4663840    3.5417040  
C    -4.2506930    1.6718690    2.3559930  
C    -5.1065850    2.7236930    2.1997770  
C    -5.3191040    2.9091960    0.7876970  
C    -4.5581960    1.9268740    0.1104640  
N    -3.9066670    1.1845670    1.0930460  
C    -4.5228020    1.8036070   -1.2810400  
C    -5.2823640    2.7048570   -2.0122930  
O    -5.2905880    2.6358840   -3.3726420  
C    -6.0541400    3.7025380   -1.3569150  
O    -6.7514640    4.5203030   -2.2229190  
C    -6.0805100    3.8136160    0.0210010  
H    -5.5403150    3.3073620    3.0002170  
H    -3.9396030    1.0457750   -1.7921200  
H    -5.8737670    3.3441760   -3.6963770  
H    -7.2543590    5.1771670   -1.7191020  
H    -6.6791160    4.5853250    0.5006340  
H    -3.8386380    1.2050450    3.2385470  
