62


C    -3.3973920    1.0202060   -1.8155530  
C    -3.6948470    2.3460090   -1.9092460  
C    -4.7203010    2.6261990   -0.9391620  
C    -5.0261160    1.4079190   -0.2848130  
N    -4.2031110    0.4152010   -0.8410480  
C    -5.9415610    1.3406680    0.7704800  
C    -6.5844110    2.5123120    1.1420860  
O    -7.4945340    2.4888760    2.1585830  
C    -6.3067100    3.7343470    0.4791020  
O    -7.0242000    4.8111560    0.9601460  
C    -5.3829660    3.8029060   -0.5491240  
H    -3.2510210    3.0461680   -2.6040820  
H    -6.1853200    0.4211050    1.2858680  
H    -7.8424160    3.3917020    2.2568310  
H    -6.8213810    5.5977180    0.4325660  
H    -5.1666850    4.7523550   -1.0349040  
H    -2.7143940    0.4101810   -2.3872830  
C    -0.7813020   -2.3046320   -0.0819170  
C    -1.5257250   -1.1619580   -0.3293820  
C    -2.8935380   -1.5765000   -0.3293010  
C    -2.8323460   -3.0421160   -0.0624200  
N    -1.6100410   -3.4633550    0.0816630  
C    -4.0228440   -3.8499750    0.0416210  
C    -5.2143670   -3.2319950   -0.1100880  
O    -6.4030600   -3.8522720   -0.0299070  
C    -5.3277840   -1.7572290   -0.4053960  
O    -6.4602980   -1.3138650   -0.5944280  
C    -4.0971660   -0.9337810   -0.4859010  
H    -1.1570530   -0.1557870   -0.4662300  
H    -3.9411600   -4.9121530    0.2421460  
H    -7.0711340   -3.1572700   -0.2221080  
C     0.6387850   -2.4150060    0.0274070  
C     1.5770610   -1.3970480   -0.0892090  
C     2.8539850   -2.0070790    0.0845550  
C     2.5362280   -3.4406790    0.2872840  
N     1.2542000   -3.6791210    0.2689380  
C     3.5626370   -4.4385050    0.4652130  
C     4.8502260   -4.0360220    0.4032130  
O     5.9042990   -4.8676320    0.5126320  
C     5.2205620   -2.6013300    0.1846750  
O     6.4333980   -2.3645130    0.0897920  
C     4.1655060   -1.5458150    0.1013150  
H     1.3716260   -0.3628830   -0.3202850  
H     3.2878420   -5.4764660    0.6159670  
H     6.6976390   -4.3003700    0.4087590  
C     4.5587760   -0.1657980    0.0670880  
C     3.7904920    0.9930320    0.2662300  
C     4.6489360    2.1071850    0.1612080  
C     5.9607410    1.5995830   -0.1031630  
N     5.8724950    0.2370830   -0.1533640  
C     7.0720610    2.4357260   -0.2611690  
C     6.8606160    3.8002590   -0.1493200  
O     7.8996180    4.6596820   -0.2913010  
C     5.5555620    4.3271480    0.1172060  
O     5.5327120    5.7023050    0.1951800  
C     4.4625990    3.5073860    0.2722810  
H     2.7410860    1.0139240    0.5154480  
H     6.6244820   -0.4330290   -0.2489270  
H     8.0697060    2.0599620   -0.4605370  
H     7.5544360    5.5626680   -0.1746740  
H     4.6343940    6.0064460    0.3935500  
H     3.4786840    3.9246660    0.4742100  
