60


C     2.8540490   -0.0930230    2.4760340  
C     2.9528560   -0.5849100    1.1838480  
C     4.2576900   -0.1873420    0.6899160  
C     4.8874910    0.5337180    1.7331860  
N     4.0032910    0.5728440    2.8001180  
C     6.1650880    1.0909770    1.6121010  
C     6.8237940    0.9199700    0.4045290  
O     8.0689340    1.4387590    0.2335520  
C     6.2022750    0.2160200   -0.6633410  
O     6.9742740    0.1488910   -1.8015500  
C     4.9374020   -0.3303280   -0.5375850  
H     4.1982650    0.9833180    3.7011230  
H     6.6460420    1.6437870    2.4122410  
H     8.3573570    1.2232380   -0.6704720  
H     6.4991580   -0.3256710   -2.4999590  
H     4.4757800   -0.8361290   -1.3821270  
H     2.0541480   -0.2093880    3.1932010  
C     1.9349480   -1.3548150    0.5122110  
C     0.5693520   -1.3581600    0.6787830  
C     0.0054110   -2.3446880   -0.1981970  
C     1.1522230   -2.9579190   -0.9066830  
N     2.2858090   -2.2687350   -0.4930600  
C     1.0646870   -4.0031360   -1.7638290  
C    -0.2573740   -4.5568680   -2.0436420  
O    -0.4322960   -5.5196420   -2.7728960  
C    -1.5047910   -3.8602680   -1.3941460  
O    -2.6163880   -4.2197650   -1.7429530  
C    -1.2857570   -2.7642640   -0.4246740  
H     0.0163850   -0.7037070    1.3358700  
H     1.9250400   -4.4556330   -2.2476860  
H     3.2091240   -2.6774360   -0.5355740  
C    -2.8770820    1.4174390   -0.0460710  
C    -2.1097550    0.3294530   -0.4018760  
C    -2.7374490   -0.8150010    0.2073520  
C    -3.9185730   -0.2409910    0.9185850  
N    -3.9962570    1.0512200    0.7749300  
C    -4.8338370   -1.0731180    1.6548190  
C    -4.5906100   -2.4039060    1.6717700  
O    -5.3554160   -3.2999540    2.3113020  
C    -3.3813570   -3.0137780    0.9998680  
O    -3.1906280   -4.2116400    1.1915580  
C    -2.4526760   -2.1504530    0.2222860  
H    -1.2863760    0.2987230   -1.1010560  
H    -5.6871710   -0.6323900    2.1577460  
H    -4.9069500   -4.1649870    2.1757940  
C     0.8803080    3.5986560   -0.5719470  
C     0.3939660    4.8466140   -0.7903970  
C    -1.0512810    4.7548710   -0.7554660  
C    -1.3706250    3.3320440   -0.5067440  
N    -0.1588640    2.6832640   -0.4271040  
C    -2.6380980    2.8137190   -0.3496820  
C    -3.7599930    3.7723750   -0.5298320  
O    -4.9253020    3.4345850   -0.5947970  
C    -3.4267110    5.2974810   -0.7226230  
O    -4.3466940    6.0991950   -0.7488410  
C    -2.0279120    5.6952990   -0.8721810  
H     0.9711790    5.7443690   -0.9568650  
H    -1.8142270    6.7467290   -1.0391800  
H     1.9050610    3.2561910   -0.5145170  
H    -0.0584980    1.7213840   -0.1339520  
