60


C    -6.0200200   -0.0385430    3.3651580  
C    -6.8008900   -1.1409590    3.1372880  
C    -6.4810900   -1.6204860    1.8218410  
C    -5.4813060   -0.7597240    1.2979460  
N    -5.2160470    0.1904100    2.2628020  
C    -4.9396780   -0.8999370    0.0012030  
C    -5.4348080   -1.9604500   -0.7606300  
O    -4.9246310   -2.1935950   -2.0022070  
C    -6.4267600   -2.8337670   -0.2473540  
O    -6.7903920   -3.8400750   -1.1266140  
C    -6.9516720   -2.6797280    1.0216840  
H    -7.5230190   -1.5619720    3.8233570  
H    -4.5910780    0.9725940    2.1447170  
H    -5.4752050   -2.8836590   -2.4117150  
H    -7.6037040   -4.2610060   -0.8114830  
H    -7.7119890   -3.3656190    1.3901700  
H    -5.9613550    0.6099320    4.2279130  
C    -0.8717820    0.2406040    1.3408330  
C    -2.0949750   -0.3267150    1.2078460  
C    -2.7250730    0.2674910    0.0444220  
C    -1.7506030    1.2403240   -0.4979180  
N    -0.6327840    1.1908750    0.3382300  
C    -1.9269000    1.9569410   -1.6359850  
C    -3.1714510    1.7779720   -2.3707620  
O    -3.4034240    2.3276920   -3.4372190  
C    -4.2674020    0.8285150   -1.7636340  
O    -5.3621740    0.7954900   -2.2934540  
C    -3.9378280    0.0367470   -0.5461560  
H    -2.5254220   -1.0828970    1.8470610  
H    -1.1879370    2.6438530   -2.0321970  
H    -0.1090200    0.0714310    2.0892240  
C     3.5686970    0.0428870   -0.2061940  
C     2.1979170    0.0472430   -0.1004370  
C     1.7709100    1.4039890    0.0767150  
C     2.9980020    2.2304550    0.0771040  
N     4.0594810    1.3437230   -0.0407160  
C     3.0218340    3.5832100    0.1538010  
C     1.7494740    4.2892590    0.2826290  
O     1.6622840    5.5050480    0.3234630  
C     0.4290820    3.4397940    0.3849600  
O    -0.6263870    4.0098940    0.6006550  
C     0.5338020    1.9766860    0.2309540  
H     1.5611480   -0.8250510   -0.1107170  
H     3.9348740    4.1695900    0.1297770  
H     4.9761930    1.6277670   -0.3551630  
C     4.1337900   -2.2081360   -1.1363450  
C     4.4652100   -1.0614920   -0.4574380  
C     5.8705320   -1.1981490   -0.0733640  
C     6.3116790   -2.5134880   -0.5983800  
N     5.2008750   -3.0691330   -1.2187290  
C     7.5581670   -3.0241840   -0.4617610  
C     8.5562380   -2.2325590    0.2609050  
O     9.7057180   -2.6046500    0.4232770  
C     8.1073910   -0.8502360    0.8546460  
O     8.9135660   -0.1793250    1.4758360  
C     6.7211660   -0.4127420    0.6373870  
H     7.8550130   -3.9928270   -0.8517430  
H     6.4275600    0.5311850    1.0846390  
H     3.1888730   -2.4646430   -1.5970850  
H     5.1979830   -3.9485550   -1.7135690  
