64


C    -1.4723940   -1.1943280    1.0313490  
C    -0.7637320   -0.5202420    0.0476730  
C    -1.7513320    0.2341060   -0.7057750  
C    -3.0146660   -0.0423450   -0.1313220  
N    -2.8083100   -0.9058030    0.9299070  
C    -4.2370870    0.4724070   -0.6116820  
C    -4.1484870    1.3014110   -1.7290150  
O    -5.2684980    1.8774560   -2.2442000  
C    -2.8910240    1.5830280   -2.3264660  
O    -2.9759330    2.4265200   -3.4197950  
C    -1.7063130    1.0689360   -1.8388660  
H    -3.5393610   -1.2573590    1.5297820  
H    -4.9849830    2.4167790   -3.0030220  
H    -2.0826330    2.6753770   -3.7003440  
H    -0.7607320    1.3328650   -2.3003160  
H    -1.1025340   -1.8184990    1.8317610  
C     2.0939140   -3.8991810    0.4301170  
C     0.9784090   -3.1292450    0.3391420  
C     1.4010070   -1.7770050    0.0325560  
C     2.8707920   -1.8283240   -0.0713680  
N     3.2278180   -3.1438250    0.1623720  
C     3.7179060   -0.7798550   -0.3471030  
C     3.0533280    0.5056650   -0.5593850  
O     3.6414330    1.5433110   -0.8326590  
C     1.4765810    0.5950710   -0.4522010  
O     0.9814380    1.6994610   -0.6135400  
C     0.6817570   -0.6125770   -0.1412320  
H    -0.0407560   -3.4688640    0.4385170  
H     2.1862080   -4.9563310    0.6413400  
H     4.1840130   -3.4256830    0.3229600  
C     5.8138670   -2.0058180   -1.0690120  
C     5.1719840   -0.9348060   -0.4684030  
C     6.2243910   -0.0627780    0.0182140  
C     7.4613240   -0.6710530   -0.3109880  
N     7.1792480   -1.8514580   -0.9715950  
C     8.7017700   -0.1132870    0.0255020  
C     8.6923760    1.0916410    0.7084030  
O     9.8677680    1.6919250    1.0542680  
C     7.4627880    1.7166520    1.0488880  
O     7.6148340    2.9140340    1.7248480  
C     6.2436050    1.1587660    0.7205220  
H     7.8639190   -2.4630030   -1.3875700  
H     9.6471400   -0.5795870   -0.2327120  
H     9.6391180    2.5338470    1.4855050  
H     6.7575010    3.3628090    1.7739160  
H     5.3194650    1.6727650    0.9628980  
H     5.3942960   -2.8353790   -1.6211870  
C    -5.5767630    1.4267200    3.4718680  
C    -6.8098720    0.8300450    3.4209760  
C    -6.9510430    0.2608140    2.1095470  
C    -5.7532040    0.5448140    1.4046090  
N    -4.9269720    1.2433070    2.2643970  
C    -5.5211800    0.1630440    0.0659240  
C    -6.5556820   -0.5337350   -0.5585160  
O    -6.4078550   -0.9666420   -1.8420410  
C    -7.7619050   -0.8267900    0.1322340  
O    -8.6782840   -1.5321000   -0.6299480  
C    -7.9710630   -0.4480050    1.4444410  
H    -7.5343300    0.7991440    4.2234390  
H    -4.0519620    1.6666340    1.9944200  
H    -7.2487560   -1.3819200   -2.1002430  
H    -9.5064900   -1.6183150   -0.1356200  
H    -8.9060870   -0.6906280    1.9460080  
H    -5.0950710    1.9656270    4.2756700  
