62


C    -1.6834180   -1.3395140   -1.4115040  
C    -0.9612610   -0.2836340   -0.8948120  
C    -1.9183610    0.5821770   -0.2396950  
C    -3.1937100   -0.0122760   -0.3993470  
N    -3.0178540   -1.1794170   -1.1173060  
C    -4.3928920    0.5540630    0.0824770  
C    -4.2652450    1.7708650    0.7515920  
O    -5.3620220    2.3730490    1.2845110  
C    -2.9951220    2.3904740    0.9080040  
O    -3.0500730    3.5939270    1.5850620  
C    -1.8323520    1.8231420    0.4237550  
H    -3.7630200   -1.8086140   -1.3749920  
H    -5.0618380    3.2012580    1.6977150  
H    -2.1515340    3.9187470    1.7443180  
H    -0.8783270    2.3283510    0.5526700  
H    -1.3338180   -2.2123480   -1.9449830  
C     1.2190610   -0.2165910   -2.1736430  
C     0.4826550   -0.0944210   -1.0325750  
C     1.4356440    0.2204430    0.0304150  
C     2.7751330    0.2753260   -0.5996910  
N     2.5729580    0.0345060   -1.9426070  
C     3.9547350    0.5053170    0.0582460  
C     3.8603860    0.7215390    1.5137870  
O     4.8318100    0.9590190    2.2139950  
C     2.4453390    0.6585810    2.2013400  
O     2.3801470    0.8236550    3.4094030  
C     1.2733690    0.4015210    1.3680920  
H     0.3035660    0.3494340    1.8512100  
H     0.8758300   -0.4379810   -3.1754900  
H     3.3218230   -0.1848380   -2.5825650  
C     5.5146170    1.3205540   -1.7537960  
C     5.2498190    0.5899930   -0.6293540  
C     6.5041920   -0.0880390   -0.2816170  
C     7.4972390    0.3170210   -1.3062220  
N     6.8280070    1.1597190   -2.1739640  
C     8.7906900   -0.0932670   -1.3390670  
C     9.2495830   -1.0176470   -0.3082410  
O    10.3918370   -1.4477210   -0.2551530  
C     8.2087510   -1.4838620    0.7734400  
O     8.5606080   -2.2797130    1.6284550  
C     6.8415020   -0.9476910    0.7114360  
H     9.4987010    0.2254150   -2.0980530  
H     6.1497360   -1.2494420    1.4890880  
H     4.8533850    1.9837800   -2.2968550  
H     7.2648470    1.6786870   -2.9197410  
C    -5.7883000   -3.3556880    1.5669830  
C    -7.0346430   -3.3481710    0.9972380  
C    -7.1629600   -2.1128410    0.2752560  
C    -5.9439180   -1.4069600    0.4429990  
N    -5.1175610   -2.1955590    1.2210990  
C    -5.6967650   -0.1302660   -0.1054280  
C    -6.7364880    0.4277410   -0.8496450  
O    -6.5740730    1.6443960   -1.4409740  
C    -7.9631380   -0.2657880   -1.0279880  
O    -8.8809690    0.4253930   -1.8002860  
C    -8.1876010   -1.5166850   -0.4859920  
H    -7.7762950   -4.1308020    1.0810940  
H    -4.2300250   -1.8957130    1.5947460  
H    -7.4199610    1.8686160   -1.8660510  
H    -9.7215560   -0.0554160   -1.8071840  
H    -9.1378880   -2.0233780   -0.6432570  
H    -5.3098320   -4.0990550    2.1890390  
