62


C    -4.7125420    0.4064500    0.1173470  
C    -4.3457490   -0.8573710   -0.3572910  
C    -5.4880000   -1.6952870   -0.2887100  
C    -6.5519100   -0.9030200    0.2382180  
N    -6.0537160    0.3497540    0.4752480  
C    -7.8416210   -1.4116260    0.4380350  
C    -8.0641180   -2.7361510    0.0994120  
O    -9.2983030   -3.2833580    0.2699710  
C    -7.0128970   -3.5434940   -0.4305300  
O    -7.4035920   -4.8375080   -0.7129030  
C    -5.7432210   -3.0449480   -0.6258950  
H    -3.3871590   -1.1232880   -0.7764010  
H    -6.5576720    1.1836560    0.7517290  
H    -8.6542790   -0.8137440    0.8364960  
H    -9.2515800   -4.2072310   -0.0319290  
H    -6.6608010   -5.3241720   -1.0996900  
H    -4.9571770   -3.6787510   -1.0316610  
C    -0.3346620    1.2882910    0.1884670  
C    -1.5532160    0.6662500    0.2306280  
C    -2.5646130    1.6883030    0.2084670  
C    -1.8456330    2.9708270    0.1598420  
N    -0.4894120    2.6697910    0.0770310  
C    -2.4122710    4.2066580    0.1934690  
C    -3.8536800    4.2788390    0.2999610  
O    -4.4887070    5.3224850    0.3306290  
C    -4.6567080    2.9276990    0.3914250  
O    -5.8569570    3.0173770    0.6217480  
C    -3.9513120    1.6305080    0.2253500  
H    -1.7126330   -0.3985190    0.2708790  
H    -1.8434600    5.1288140    0.1351730  
H     0.2299810    3.3226860    0.3550110  
C     1.2058650   -0.4550190    0.9917060  
C     2.5185530   -0.7663670    0.9288490  
C     3.1795560    0.2438780    0.1288280  
C     2.1241730    1.1925970   -0.2890010  
N     0.9294190    0.7272340    0.2732900  
C     2.3244240    2.2549280   -1.1144690  
C     3.6887150    2.5265720   -1.5351680  
O     3.9938410    3.4225380   -2.3057370  
C     4.8381000    1.6417800   -0.9351520  
O     5.9841460    2.0556890   -1.0839020  
C     4.5025370    0.3910340   -0.2204290  
H     2.9994540   -1.6043290    1.4082600  
H     1.5317250    2.8758380   -1.5134490  
H     0.4001660   -0.9391610    1.5247420  
C     4.5949310   -4.0307180   -0.9828090  
C     4.2477950   -2.7040850   -0.9474540  
C     5.2904270   -2.0058650   -0.2467730  
C     6.2606880   -2.9811900    0.1093630  
N     5.8014740   -4.2041780   -0.3359950  
C     7.4560770   -2.6678970    0.7619530  
C     7.6908840   -1.3292110    1.0355820  
O     8.8409920   -0.9506280    1.6522950  
C     6.7515520   -0.3242090    0.6815970  
O     7.1381250    0.9422470    1.0510350  
C     5.5263330   -0.6338990    0.0773400  
H     3.3541360   -2.2796960   -1.3806100  
H     6.3057190   -5.0738180   -0.2627310  
H     8.1977940   -3.4137430    1.0289730  
H     8.8051440    0.0244080    1.6998410  
H     6.9214700    1.5402310    0.2991480  
H     4.0777070   -4.8736650   -1.4188120  
