64


C    -5.5449560    1.1402510    2.0696370  
C    -6.8322500    0.6840780    2.1581580  
C    -7.0443040   -0.2038390    1.0499460  
C    -5.8332750   -0.2467250    0.3127790  
N    -4.9202940    0.5870660    0.9518570  
C    -5.6720950   -1.0388370   -0.8300490  
C    -6.7584910   -1.7938390   -1.2418180  
O    -6.6585720   -2.5817690   -2.3542360  
C    -7.9816310   -1.7589860   -0.5210550  
O    -8.9704140   -2.5658260   -1.0566780  
C    -8.1351630   -0.9802180    0.6103820  
H    -7.5531200    0.9634810    2.9147810  
H    -4.7501030   -1.0636720   -1.3986610  
H    -7.5247810   -3.0047820   -2.4828050  
H    -9.7881630   -2.4488060   -0.5512970  
H    -9.0803410   -0.9727650    1.1502940  
H    -5.0085140    1.8529820    2.6805170  
C    -1.3863440   -0.3136200    3.3023370  
C    -0.4484260    0.1259950    2.4023610  
C    -1.1565200    0.5857410    1.2342030  
C    -2.5356850    0.4043750    1.5092090  
N    -2.6468430   -0.1506400    2.7643440  
C    -3.5564520    0.7736870    0.6151680  
C    -3.1540830    1.3595240   -0.5813330  
O    -4.0750020    1.7722160   -1.4877330  
C    -1.7751050    1.5312430   -0.8854340  
O    -1.5577990    2.0889820   -2.1273120  
C    -0.7555890    1.1371830   -0.0167800  
H     0.6187820    0.1552130    2.5685560  
H    -3.5219190   -0.3871700    3.2075010  
H    -3.5594820    2.1537850   -2.2249500  
H    -0.8746160    2.7868970   -2.0276940  
H    -1.2606770   -0.7214790    4.2952610  
C     2.4172610   -1.9246050    0.0864960  
C     3.4432760   -1.1540440   -0.4117870  
C     2.9162320    0.1621330   -0.6595740  
C     1.5513090    0.1227430   -0.2813340  
N     1.2761770   -1.1635930    0.1411250  
C     0.6755160    1.2285400   -0.3998120  
C     1.2578460    2.3749290   -0.9370840  
O     0.4917490    3.5090340   -1.1188250  
C     2.6206710    2.4333350   -1.3223370  
O     2.9947550    3.6604480   -1.8326780  
C     3.4608020    1.3465760   -1.1905880  
H     0.3995560   -1.4461010    0.5554710  
H     1.0843530    4.2030790   -1.4623370  
H     3.9558970    3.6895480   -1.9510590  
H     4.5027400    1.4031820   -1.4938360  
H     2.4211830   -2.9580860    0.4019550  
C     5.1103170   -2.5685800   -1.6237930  
C     6.4497950   -2.7854610   -1.6485760  
C     7.0439390   -1.9059540   -0.6655710  
C     5.9181960   -1.1556240   -0.0530410  
N     4.7572600   -1.6004350   -0.6777390  
C     6.0588030   -0.2292980    0.9296470  
C     7.4036960    0.0674500    1.4145920  
O     7.6299810    0.8914240    2.2885530  
C     8.6129940   -0.7102800    0.7746900  
O     9.7445940   -0.4698590    1.1673760  
C     8.3281180   -1.6944900   -0.2712900  
H     6.9760930   -3.4796820   -2.2875450  
H     5.2200530    0.3001920    1.3682310  
H     9.1690920   -2.2301800   -0.7014520  
H     4.3251220   -3.0199120   -2.2158830  
