62


C     2.4824050   -1.0355260   -1.2826490  
C     1.3180750   -0.3342770   -1.1357170  
C     1.5438260    0.6690770   -0.1353180  
C     2.8954320    0.5333470    0.2783060  
N     3.4543310   -0.5305400   -0.4249860  
C     3.5046680    1.3893640    1.2059960  
C     2.7266010    2.4160050    1.7175500  
O     3.2556250    3.2955050    2.6115790  
C     1.3745470    2.5832950    1.3206800  
O     0.7357000    3.6351970    1.9461050  
C     0.7490650    1.7111340    0.4197850  
H     0.3981410   -0.5267330   -1.6664450  
H     4.5467360    1.2999370    1.4925530  
H     2.5398700    3.9299010    2.8071320  
H     0.2825760    4.1676960    1.2587050  
H     2.7196320   -1.8787930   -1.9148960  
C    -2.5706810   -1.1519910    0.4751240  
C    -3.6376040   -0.4277600    0.0132960  
C    -3.0597120    0.9169960   -0.2401770  
C    -1.6241040    0.7759330    0.1298370  
N    -1.3608900   -0.4343410    0.5432490  
C    -0.6738070    1.8860480    0.0606320  
C    -1.2245160    3.0842440   -0.2882750  
O    -0.5100980    4.2431810   -0.3608240  
C    -2.6536840    3.2673210   -0.6391810  
O    -3.0300390    4.4004400   -0.9521740  
C    -3.5659440    2.1057190   -0.6128360  
H    -1.1668110    4.9196420   -0.6501180  
H    -4.5942790    2.2732060   -0.9070210  
H    -2.5620070   -2.2009020    0.7440080  
C    -6.0993860   -3.2292890    2.4163240  
C    -5.1191070   -2.4006280    1.9663660  
C    -5.5820880   -1.8050430    0.7332070  
C    -6.9373180   -2.3555290    0.5033290  
N    -7.1798140   -3.2283630    1.5450220  
C    -7.7533710   -2.0337840   -0.5360130  
C    -7.2752730   -1.0554310   -1.4935580  
O    -7.9244790   -0.6719050   -2.4547170  
C    -5.8402860   -0.4409390   -1.2784450  
O    -5.4594400    0.3912430   -2.0843710  
C    -5.0078050   -0.8934980   -0.1312590  
H    -4.1802650   -2.2062480    2.4604280  
H    -8.7415630   -2.4603160   -0.6761480  
H    -6.1262510   -3.8379690    3.3102430  
H    -8.0444850   -3.7271570    1.6850300  
C     6.7580070   -0.9422610   -3.3734100  
C     5.5594350   -0.6449430   -2.7786750  
C     5.6582050   -1.0622250   -1.4087000  
C     6.9556310   -1.6092440   -1.2275540  
N     7.6014020   -1.5246920   -2.4446130  
C     7.4127190   -2.0984070    0.0026670  
C     6.5367040   -2.0436800    1.0748900  
O     6.9241270   -2.5102130    2.2975650  
C     5.2249260   -1.5230920    0.9221100  
O     4.4611520   -1.5725170    2.0657820  
C     4.7810780   -1.0294350   -0.3011720  
H     4.7087720   -0.1789080   -3.2546620  
H     8.5464010   -1.8257480   -2.6226840  
H     8.4091450   -2.5042940    0.1435600  
H     6.1795050   -2.3637300    2.9068930  
H     3.6314680   -1.0850290    1.9288460  
H     7.0880190   -0.7854500   -4.3906460  
