60


C     4.3768690   -0.0162260   -0.0420990  
C     5.1870250   -0.1262060   -1.1832470  
C     6.4822580   -0.4997970   -0.7619110  
C     6.4396070   -0.6149700    0.6626460  
N     5.1660390   -0.3200590    1.0618280  
C     7.5592000   -0.9753980    1.4220560  
C     8.7362840   -1.2270810    0.7369190  
O     9.8534340   -1.5822520    1.4186390  
C     8.7978530   -1.1203070   -0.6897920  
O    10.0447490   -1.4054780   -1.2008920  
C     7.6989740   -0.7651770   -1.4369390  
H     4.8571440   -0.0161560   -2.2046440  
H     4.7757990   -0.3748640    1.9941150  
H     7.5346980   -1.0653810    2.5025750  
H    10.5657490   -1.7186930    0.7690690  
H    10.0310300   -1.3298180   -2.1667340  
H     7.7649900   -0.6887570   -2.5199530  
C     1.3841930    1.8407300   -2.7940800  
C     2.5382980    1.4346910   -2.2056120  
C     2.2041180    0.8746630   -0.9138630  
C     0.7484410    1.0087320   -0.7894370  
N     0.3002620    1.5587330   -1.9616840  
C     0.0047680    0.6389350    0.3146770  
C     0.7010610    0.0522840    1.4321190  
O     0.1503280   -0.3931240    2.4333620  
C     2.2677840   -0.0232690    1.3580960  
O     2.8432040   -0.3420900    2.3878500  
C     2.9774430    0.2909640    0.0817400  
H     3.5273580    1.5575790   -2.6155230  
H     1.2210140    2.3199010   -3.7491660  
H    -0.6462800    1.8730330   -2.1166450  
C    -2.2656770   -0.2721280    0.7402200  
C    -3.5602630    0.1489230    0.7747410  
C    -3.5734700    1.5615440    0.4366370  
C    -2.1550970    1.9293040    0.2189930  
N    -1.4068610    0.7614740    0.3710510  
C    -1.7355670    3.1912930   -0.0626140  
C    -2.7402080    4.2476380   -0.1928370  
O    -2.4506340    5.4065770   -0.4442980  
C    -4.2522760    3.8627830   -0.0056600  
O    -5.1044830    4.7258080   -0.1352830  
C    -4.5748400    2.4709870    0.3278090  
H    -0.6912510    3.4668960   -0.1597790  
H    -5.6183380    2.2152930    0.4842460  
H    -1.8644880   -1.2525310    0.9497860  
C    -5.4599880   -0.5539120    2.2360060  
C    -6.5151060   -1.4034140    2.2010540  
C    -6.4638170   -2.1069160    0.9363450  
C    -5.2720720   -1.5855920    0.2228160  
N    -4.6893770   -0.6404650    1.0660850  
C    -4.8781200   -1.9906810   -1.0099050  
C    -5.6704330   -3.0111900   -1.6916510  
O    -5.3927320   -3.4352410   -2.8031350  
C    -6.9343160   -3.5845580   -0.9516290  
O    -7.6049220   -4.4422260   -1.5041480  
C    -7.2557690   -3.0603500    0.3788310  
H    -7.2553940   -1.5371030    2.9765100  
H    -4.0033810   -1.5950290   -1.5147720  
H    -8.1329370   -3.4597670    0.8788380  
H    -5.1506570    0.1339970    3.0117810  
