60


C     4.5710970    2.4253090    2.5549850  
C     4.1153210    1.2703290    1.9692480  
C     4.9456300    1.0087290    0.8277370  
C     5.9102260    2.0509640    0.7860560  
N     5.6442100    2.9073870    1.8357380  
C     6.9407940    2.1022620   -0.1554430  
C     7.0182750    1.0530540   -1.0599010  
O     8.0044860    1.0321790   -1.9932620  
C     6.0870690   -0.0184950   -1.0379640  
O     6.3092110   -0.9472500   -2.0213150  
C     5.0096300   -0.0507900   -0.1370480  
H     3.2832980    0.6783700    2.3202200  
H     6.2021490    3.7091920    2.0843620  
H     7.6793000    2.8970040   -0.1832670  
H     7.8887250    0.1916530   -2.4781450  
H     6.1503440   -1.8361530   -1.6203950  
H     4.2142720    2.9483600    3.4309150  
C     0.5587990    0.1189340   -0.0819850  
C     1.9079520    0.4017440   -0.1731570  
C     2.6229240   -0.8312670   -0.0915220  
C     1.5951540   -1.8950150    0.0487360  
N     0.3807780   -1.2533170    0.0697450  
C     1.8610650   -3.2241420    0.1523300  
C     3.2459310   -3.6382750    0.0712690  
O     3.6269690   -4.7924120    0.1919270  
C     4.3327850   -2.5391710   -0.2320230  
O     5.4505080   -2.9532190   -0.5375630  
C     3.9826020   -1.1072800   -0.1568520  
H     2.3431940    1.3810360   -0.2959390  
H     1.0976370   -3.9788160    0.3086240  
H    -0.5357190   -1.6755170    0.1218210  
C    -0.5861450    0.9783800   -0.1294160  
C    -0.6661640    2.3434920   -0.2445040  
C    -2.0716840    2.6475140   -0.2333200  
C    -2.7449100    1.3115840   -0.1022930  
N    -1.8732650    0.3478920   -0.0426390  
C    -4.1897080    1.1778890   -0.0669440  
C    -4.8979070    2.3423350   -0.1358400  
O    -6.2270890    2.4028110   -0.0665270  
C    -4.2435360    3.7024170   -0.2623320  
O    -4.9998020    4.6737230   -0.3130710  
C    -2.7885490    3.7972090   -0.3144230  
H     0.1461530    3.0519950   -0.3253360  
H    -6.4487210    3.3596500   -0.1538910  
H    -2.3504130    4.7850760   -0.4139110  
C    -4.0705890   -2.3556930    2.7045970  
C    -3.8031510   -1.1481860    2.1551400  
C    -4.6300200   -1.0837780    0.9537130  
C    -5.3553870   -2.3947910    0.9477470  
N    -5.0264010   -3.1301570    1.9704530  
C    -6.3041810   -2.7352370   -0.0801060  
C    -6.5234830   -1.8259040   -1.0563200  
O    -7.3702490   -2.0100380   -2.0820120  
C    -5.8008880   -0.5049390   -1.0925840  
O    -6.0131820    0.2225760   -2.0577020  
C    -4.8470540   -0.1424490    0.0019000  
H    -3.1227960   -0.3880370    2.5082260  
H    -6.8129660   -3.6923630   -0.0547780  
H    -7.2947700   -1.2003690   -2.6329290  
H    -3.6551670   -2.7810760    3.6106200  
