60


C    -2.6760920   -3.8215710    2.4611180  
C    -2.5777670   -2.6220640    1.7890420  
C    -3.8052250   -2.4213390    1.0832590  
C    -4.6191920   -3.5412130    1.3774950  
N    -3.9042680   -4.3766710    2.2085170  
C    -5.9257360   -3.7014080    0.8960780  
C    -6.4460280   -2.6997900    0.0976140  
O    -7.7111230   -2.8017430   -0.3863310  
C    -5.6766910   -1.5521880   -0.2338720  
O    -6.3329970   -0.6814180   -1.0181060  
C    -4.3294430   -1.3861250    0.2268540  
H    -1.7231050   -1.9677450    1.8446520  
H    -4.2409000   -5.2501330    2.5843790  
H    -6.5349140   -4.5678100    1.1340880  
H    -7.8760500   -1.9996880   -0.9154770  
H    -5.7158540    0.1046440   -1.1833010  
H    -1.9625810   -4.3173540    3.1033370  
C    -3.5715480   -0.2490290   -0.1841300  
C    -2.2332860    0.0938800    0.0239060  
C    -2.0324240    1.3366710   -0.6088810  
C    -3.3612420    1.6913720   -1.2110090  
N    -4.2386940    0.7578910   -0.9582670  
C    -3.5774720    2.9017670   -1.9373490  
C    -2.5108230    3.7302160   -2.0782980  
O    -2.5497230    4.8931910   -2.7174530  
C    -1.1277060    3.4059560   -1.5231550  
O    -0.2404790    4.2293670   -1.7736690  
C    -0.9535000    2.1848930   -0.7667670  
H    -1.4869620   -0.4743970    0.5513740  
H    -4.5518240    3.1394440   -2.3483620  
H    -1.6255880    5.2421420   -2.6711990  
C     1.0346880    0.7125000   -0.6583380  
C     2.2661120    0.6399800   -0.0602370  
C     2.3883140    1.8308530    0.7770470  
C     1.1276220    2.5879160    0.5991230  
N     0.3395530    1.8494820   -0.2934180  
C     0.8301810    3.7423070    1.2390430  
C     1.8224240    4.3065320    2.1560920  
O     1.6417940    5.3472450    2.7664270  
C     3.1644450    3.5214300    2.3640510  
O     4.0028000    3.9655100    3.1309040  
C     3.3540770    2.2656980    1.6284770  
H    -0.1030940    4.2761640    1.1048670  
H     4.2652050    1.7106590    1.8255120  
H     0.5926400    0.0301550   -1.3719800  
C     3.2268630   -0.4204070   -0.2634910  
C     3.0185350   -1.7322950   -0.6078310  
C     4.2991540   -2.3738700   -0.7341260  
C     5.3102470   -1.3294920   -0.4369660  
N     4.6010420   -0.1833260   -0.1074930  
C     6.6501050   -1.5212190   -0.4958260  
C     7.1454550   -2.8528400   -0.8455400  
O     8.3351410   -3.1176100   -0.9195130  
C     6.0920150   -3.9865400   -1.1261150  
O     6.4933200   -5.1064510   -1.4085620  
C     4.6736180   -3.6466040   -1.0465980  
H     2.0556470   -2.2130760   -0.7075480  
H     7.3770570   -0.7429260   -0.2842310  
H     3.9549610   -4.4321060   -1.2601000  
H     5.0039940    0.7418260   -0.1449700  
