60


C     7.5513970    2.2510850    2.0498970  
C     6.3170650    1.9775210    1.5178150  
C     6.4891020    0.9113470    0.5733880  
C     7.8696420    0.5718430    0.5833120  
N     8.4899650    1.4086790    1.4877240  
C     8.4103360   -0.4502930   -0.2017730  
C     7.5364670   -1.1472160   -1.0248000  
O     8.0130220   -2.1346430   -1.8342530  
C     6.1567000   -0.8338110   -1.0474480  
O     5.4236760   -1.6148100   -1.9311680  
C     5.5990030    0.1765590   -0.2593040  
H     5.3940880    2.4738550    1.7795060  
H     9.4731280    1.3983860    1.7096890  
H     9.4657540   -0.7024500   -0.2014470  
H     7.2613350   -2.4512440   -2.3660090  
H     4.6609360   -1.1065410   -2.2487770  
H     7.8434200    2.9842540    2.7883320  
C     3.5600670    1.7033320   -0.3276100  
C     4.1644180    0.4825950   -0.2972170  
C     3.0319110   -0.4662680   -0.1892310  
C     1.8134150    0.3954760   -0.1879990  
N     2.1423850    1.6523010   -0.2733510  
C     0.4613010   -0.1655180   -0.0976830  
C     0.4055790   -1.5320900    0.0359360  
O    -0.7358720   -2.2355080    0.1468530  
C     1.6175850   -2.4033790    0.0752350  
O     1.4384040   -3.6175010    0.2011940  
C     2.9549450   -1.8024350   -0.0470540  
H    -0.4462490   -3.1743290    0.2304920  
H     3.8105810   -2.4687860   -0.0329390  
H     4.0397890    2.6715060   -0.3955270  
C    -0.7155110    0.6876800   -0.1337630  
C    -0.7823360    2.0571700   -0.2504270  
C    -2.1650960    2.4352770   -0.2041370  
C    -2.9366390    1.1736190   -0.0740340  
N    -2.0137140    0.1558440   -0.0699030  
C    -4.3076310    1.1023610   -0.0279980  
C    -5.0162810    2.4019000    0.0758450  
O    -6.1952690    2.4916280    0.3722990  
C    -4.2182080    3.7331470   -0.1598330  
O    -4.8408450    4.7827780   -0.2307870  
C    -2.7687430    3.6557450   -0.2718450  
H     0.0654760    2.7143900   -0.3504790  
H    -2.2133840    4.5786870   -0.4078190  
H    -2.2365320   -0.7416430    0.3554200  
C    -3.9209350   -2.7368770    2.1891830  
C    -5.0819230   -3.3540170    1.8767060  
C    -5.7510030   -2.4573120    0.9415500  
C    -4.8207450   -1.2833110    0.8207920  
N    -3.7511940   -1.4717840    1.5435180  
C    -5.1174610   -0.1296560   -0.0135520  
C    -6.2484060   -0.2453580   -0.7806170  
O    -6.6169840    0.6570370   -1.6935210  
C    -7.1893420   -1.4148730   -0.6905960  
O    -8.1833060   -1.4042610   -1.4148540  
C    -6.8911600   -2.5254730    0.2313590  
H    -5.4495350   -4.3090290    2.2250470  
H    -7.4762520    0.3399080   -2.0507870  
H    -7.5962360   -3.3501590    0.2673990  
H    -3.1361000   -3.0824600    2.8513020  
