64


C    -3.6125970    0.1426890   -0.3946510  
C    -4.0067370    1.4529230   -0.2853220  
C    -5.4398680    1.4503030   -0.2182840  
C    -5.8613750    0.0959720   -0.2804870  
N    -4.7255580   -0.6863200   -0.3828990  
C    -7.2082250   -0.2813080   -0.2297040  
C    -8.1499370    0.7296130   -0.1165430  
O    -9.4761150    0.4188120   -0.0694680  
C    -7.7474850    2.0912540   -0.0476340  
O    -8.8019030    2.9755290    0.0675570  
C    -6.4163140    2.4594060   -0.0954170  
H    -3.3457650    2.3062560   -0.2248410  
H    -4.7038890   -1.6789810   -0.5605860  
H    -7.5339900   -1.3152410   -0.2755620  
H    -9.9668920    1.2541360    0.0185270  
H    -8.4628500    3.8805680    0.1311390  
H    -6.1323370    3.5082610   -0.0393850  
C    -1.3927100    0.0263680   -1.5011860  
C    -0.2202660   -0.6451390   -1.3780980  
C    -0.3640480   -1.5794250   -0.2847410  
C    -1.7386000   -1.3880750    0.2352480  
N    -2.3258970   -0.3935630   -0.5450960  
C    -2.2710430   -2.0555440    1.2920140  
C    -1.4492350   -3.0765500    1.9174500  
O    -1.7896920   -3.7166210    2.8998040  
C    -0.0554730   -3.4055430    1.2670530  
O     0.4964390   -4.4364540    1.6480390  
C     0.5062570   -2.5106380    0.2392370  
H     0.6536190   -0.5252030   -1.9986740  
H    -3.2512460   -1.8463260    1.7050600  
H    -1.6895810    0.7821840   -2.2154700  
C     3.7399400    0.5941410   -0.1310750  
C     2.5667610   -0.0840120    0.1177660  
C     2.7495500   -1.4588490   -0.2538890  
C     4.0830380   -1.5777840   -0.7199480  
N     4.6891780   -0.3335730   -0.5957260  
C     4.6379680   -2.7829510   -1.1507310  
C     3.8300780   -3.9087150   -1.0697480  
O     4.3076380   -5.1210840   -1.4546410  
C     2.5004530   -3.8323620   -0.5776930  
O     1.8449920   -5.0406440   -0.5729000  
C     1.9178150   -2.6173520   -0.1966650  
H     1.6913440    0.3506200    0.5758510  
H     5.4718050   -0.0509970   -1.1715530  
H     5.6598250   -2.8721960   -1.5048990  
H     3.5914120   -5.7569520   -1.2611630  
H     1.3559610   -5.0951990    0.2815280  
C     1.3969330    4.4084420   -0.5282500  
C     1.7781510    3.0914840   -0.5263600  
C     3.1492670    3.0460400   -0.0997280  
C     3.5491840    4.3874790    0.1383830  
N     2.4607200    5.1934290   -0.1262510  
C     4.8395460    4.7420100    0.5485770  
C     5.7498140    3.7126290    0.7260340  
O     7.0185630    3.9906550    1.1442460  
C     5.3806740    2.3649570    0.4912810  
O     6.4077690    1.4638890    0.7229350  
C     4.0952280    1.9978480    0.0782490  
H     1.1576880    2.2530250   -0.8062910  
H     2.4491960    6.1977130   -0.0449380  
H     5.1409070    5.7675290    0.7356570  
H     7.4679840    3.1351250    1.2625650  
H     6.0267300    0.5772430    0.8523760  
H     0.4489820    4.8601130   -0.7849440  
