60


C     3.0045300    2.5917170    2.7121400  
C     3.6324080    3.6034390    2.0363120  
C     4.3038840    3.0105810    0.9131750  
C     4.0374910    1.6182320    0.9582950  
N     3.2250570    1.3923740    2.0541570  
C     4.5601340    0.6971620    0.0246370  
C     5.3723190    1.2320110   -0.9785210  
O     5.8735370    0.4152890   -1.9436860  
C     5.6446130    2.6230470   -1.0384480  
O     6.4511690    2.9823330   -2.1022550  
C     5.1229510    3.5113850   -0.1173810  
H     3.6191200    4.6510840    2.3040730  
H     3.0066270    0.4804170    2.4247170  
H     6.4760970    0.9490920   -2.4904080  
H     6.7098090    3.9113350   -2.0126620  
H     5.3453980    4.5740990   -0.1897670  
H     2.4014520    2.6195430    3.6086670  
C     0.7576920   -1.5120420   -0.1161210  
C     1.2528250   -2.7949280    0.0053090  
C     2.6833370   -2.7125410    0.1012070  
C     3.0172140   -1.2725470    0.0406030  
N     1.8149650   -0.6049900   -0.0916770  
C     4.2791610   -0.7518790    0.0898450  
C     5.3841440   -1.7249630    0.2560960  
O     6.5425080   -1.3893340    0.4218290  
C     5.0488830   -3.2632160    0.2654170  
O     5.9691150   -4.0645230    0.3276330  
C     3.6478390   -3.6716520    0.2070080  
H     0.6679370   -3.6987450    0.0733320  
H     3.4235580   -4.7336020    0.2321460  
H     1.6877300    0.3971150   -0.0634970  
C    -3.0771740   -3.4674390   -1.3534020  
C    -1.7519980   -3.2404810   -1.1707380  
C    -1.6629840   -1.8932940   -0.6322220  
C    -3.0877210   -1.4398030   -0.5717380  
N    -3.9046200   -2.3682290   -0.9793200  
C    -3.4663190   -0.1113430   -0.1246770  
C    -2.4443730    0.7198780    0.2187100  
O    -2.6295510    1.9706780    0.6611490  
C    -1.0059930    0.3065360    0.1459730  
O    -0.1728640    1.1766370    0.4082720  
C    -0.6314710   -1.0924810   -0.2219180  
H    -0.9326220   -3.8954860   -1.4238610  
H    -1.7335750    2.3547180    0.7777590  
H    -3.5505190   -4.3565170   -1.7522160  
C    -7.2283920   -1.4813860    1.8977960  
C    -5.9407570   -1.4297380    1.4865610  
C    -5.8729120   -0.2811630    0.5897950  
C    -7.2734260    0.2557450    0.5863230  
N    -8.0563500   -0.4446460    1.3536720  
C    -7.6391020    1.4200080   -0.1770490  
C    -6.6709380    2.0238350   -0.9024940  
O    -6.8692150    3.1066990   -1.6713690  
C    -5.2553790    1.5103280   -0.9286790  
O    -4.4625090    2.0890400   -1.6654420  
C    -4.8766580    0.3253210   -0.1010340  
H    -5.1309130   -2.0982290    1.7365650  
H    -8.6612670    1.7812530   -0.1610230  
H    -5.9992100    3.2962500   -2.0860990  
H    -7.6834750   -2.1984360    2.5707190  
