62


C    -5.3867670   -0.3257860    0.0201680  
C    -6.2149130   -1.4529940    0.0484330  
C    -7.5530190   -1.0093610   -0.1342530  
C    -7.5043160    0.4094660   -0.2695920  
N    -6.1904150    0.7882560   -0.1681410  
C    -8.6516140    1.1870760   -0.4686250  
C    -9.8668530    0.5251000   -0.5366350  
O   -11.0146900    1.2301420   -0.7304450  
C    -9.9349030   -0.8937530   -0.4067020  
O   -11.2186830   -1.3932940   -0.4976530  
C    -8.8055470   -1.6596700   -0.2084610  
H    -5.8894940   -2.4832570    0.0834480  
H    -5.7888900    1.7083220   -0.3037230  
H    -8.6196920    2.2663120   -0.5728080  
H   -11.7482550    0.5913660   -0.7562830  
H   -11.1979580   -2.3591980   -0.4280980  
H    -8.8818160   -2.7409170   -0.1122990  
C    -2.3863510   -3.0206250    1.7337340  
C    -1.2562350   -2.3400020    1.4018100  
C    -1.6563060   -1.1378020    0.7078460  
C    -3.1207830   -1.1776080    0.6519700  
N    -3.5069690   -2.3641430    1.2439130  
C    -3.9507470   -0.2029870    0.1290290  
C    -3.2588600    1.0314710   -0.2605740  
O    -3.8338960    2.0763160   -0.5448340  
C    -1.6818740    1.0600450   -0.3197430  
O    -1.1812000    2.0629800   -0.8027000  
C    -0.9093120   -0.0870550    0.1881730  
H    -0.2462450   -2.6301620    1.6447370  
H    -2.4980760   -3.9454580    2.2834450  
H    -4.4530420   -2.5258650    1.5591990  
C     1.3130160   -1.2350020   -0.1311590  
C     0.5373040   -0.1232770    0.0855830  
C     1.5322340    0.9696210    0.2265590  
C     2.8475950    0.2966990    0.0724030  
N     2.6926770   -0.9841510   -0.1477710  
C     4.1194810    1.0211990    0.1616920  
C     4.0022710    2.3660830    0.4329190  
O     5.0705220    3.2013470    0.5633800  
C     2.7174330    3.0505260    0.6124220  
O     2.7287230    4.2656980    0.8626890  
C     1.4581480    2.2875910    0.4873120  
H     4.6644250    4.0793590    0.7516880  
H     0.5328590    2.8406730    0.5870180  
H     0.9682840   -2.2422720   -0.3281120  
C     5.3861110    0.3463550   -0.0133850  
C     5.6700470   -0.9900230   -0.2943860  
C     7.0798660   -1.1232240   -0.3694930  
C     7.6377500    0.1675170   -0.1261120  
N     6.5967900    1.0310930    0.0855140  
C     9.0186030    0.4030600   -0.1258250  
C     9.8493230   -0.6774920   -0.3745790  
O    11.2005130   -0.5080330   -0.3871890  
C     9.3101700   -1.9756000   -0.6200290  
O    10.2758270   -2.9378300   -0.8491140  
C     7.9523330   -2.2079590   -0.6200840  
H     4.9231460   -1.7564330   -0.4238800  
H     6.6563640    2.0204680    0.2782700  
H     9.4500190    1.3814740    0.0576520  
H    11.5983780   -1.3747510   -0.5807100  
H     9.8478770   -3.7897800   -1.0199880  
H     7.5609060   -3.2053950   -0.8097170  
