62


C     4.7448970   -0.3155550   -0.1669520  
C     5.4639420   -1.5146910   -0.2318100  
C     6.8416060   -1.2007890   -0.1229700  
C     6.9353030    0.2178290    0.0112120  
N     5.6620210    0.7185260   -0.0202340  
C     8.1610450    0.8814950    0.1467980  
C     9.3088630    0.1058150    0.1503970  
O    10.5278050    0.6962660    0.2805600  
C     9.2349160   -1.3139600    0.0196710  
O    10.4695280   -1.9318730    0.0423650  
C     8.0299610   -1.9681920   -0.1149230  
H     5.0380960   -2.5050710   -0.2838360  
H     5.3585890    1.6740340    0.1213160  
H     8.2386530    1.9585110    0.2500940  
H    11.1965900   -0.0104800    0.2657220  
H    10.3545460   -2.8906340   -0.0339500  
H     7.9967010   -3.0513240   -0.2136280  
C     1.2324150   -2.7203100   -1.5200560  
C     2.4898700   -2.2487190   -1.3003600  
C     2.3692560   -0.9779330   -0.6253640  
C     0.9295740   -0.7375220   -0.4687460  
N     0.2946170   -1.8512330   -0.9836500  
C     0.3222510    0.3805130    0.0727880  
C     1.2405090    1.4409760    0.4705050  
O     0.9014520    2.5043090    0.9725760  
C     2.7918920    1.2411510    0.2493270  
O     3.4919820    2.2283210    0.4422780  
C     3.3236830   -0.0687320   -0.1864110  
H     3.4040090   -2.7188260   -1.6245320  
H     0.9115020   -3.6235630   -2.0210840  
H    -0.6990290   -1.8754200   -1.1622590  
C    -1.9485850   -0.5619290    0.6432860  
C    -1.1244450    0.4840870    0.2747990  
C    -1.9992750    1.6315300    0.0894490  
C    -3.3219360    1.2020110    0.3495880  
N    -3.2745410   -0.1570770    0.6831120  
C    -4.4231330    2.0651330    0.3026980  
C    -4.1875330    3.3836330   -0.0570540  
O    -5.2228540    4.2665120   -0.1152670  
C    -2.8717520    3.8242650   -0.3510420  
O    -2.7917360    5.1594800   -0.6889880  
C    -1.7859710    2.9721780   -0.2799000  
H    -5.4298630    1.7525710    0.5522670  
H    -4.8471860    5.1354660   -0.3410910  
H    -1.8610720    5.4274370   -0.7261560  
H    -0.7827190    3.3437830   -0.4552570  
H    -1.6998690   -1.5764280    0.9193010  
C    -4.3410030   -1.8627900    2.1272890  
C    -4.3311030   -0.9725910    1.0976220  
C    -5.6146890   -1.1796360    0.3946040  
C    -6.2795710   -2.2409350    1.1994320  
N    -5.5312370   -2.6302480    2.1974940  
C    -7.5849220   -2.7355040    0.8529750  
C    -8.1753540   -2.2479060   -0.2659380  
O    -9.3842660   -2.6343990   -0.7105420  
C    -7.5055850   -1.2176610   -1.1237930  
O    -8.0967270   -0.8274880   -2.1304550  
C    -6.1759400   -0.6985060   -0.7306900  
H    -8.0568170   -3.4924540    1.4697380  
H    -9.5392690   -2.1140940   -1.5288510  
H    -5.7342550    0.0638170   -1.3644810  
H    -3.5612170   -2.0266540    2.8608390  
