60


C     4.6985550    0.0110410    2.4394360  
C     3.5209540   -0.3705960    1.8428860  
C     3.8475940   -1.3310120    0.8217460  
C     5.2565050   -1.4980270    0.8632320  
N     5.7483070   -0.6536690    1.8397850  
C     5.9439520   -2.4055290    0.0517050  
C     5.1809800   -3.1894870   -0.7991060  
O     5.7803710   -4.1083030   -1.5992350  
C     3.7665070   -3.0604370   -0.8583740  
O     3.1805300   -3.8983380   -1.7754120  
C     3.0750710   -2.1109080   -0.0959730  
H     2.5344570   -0.0390510    2.1320700  
H     6.7131090   -0.6023040    2.1272470  
H     7.0208850   -2.5340330    0.0870240  
H     5.0565020   -4.5582260   -2.0761210  
H     2.3562490   -4.2481090   -1.3681840  
H     4.8737070    0.6872820    3.2646350  
C     0.6082670    1.5712290   -0.4304980  
C     1.6533020    0.6786230   -0.4664640  
C     1.0727080   -0.6246650   -0.3299330  
C    -0.3956700   -0.3691920   -0.2442170  
N    -0.6568340    0.9015180   -0.2850840  
C    -1.3777850   -1.4482000   -0.1035240  
C    -0.8376090   -2.7155220   -0.1105800  
O    -1.5475740   -3.8433970   -0.0814910  
C     0.6423840   -2.9736290   -0.2212540  
O     0.9653340   -4.1740860   -0.3003450  
C     1.6222540   -1.8752630   -0.2263150  
H     2.6966000    0.8769790   -0.6570650  
H    -0.8822050   -4.5674860   -0.1326980  
C    -2.7929470   -1.1579650   -0.0067810  
C    -3.4300170    0.0322220   -0.2593210  
C    -4.8312840   -0.2179250   -0.0162330  
C    -4.8867540   -1.6543290    0.4027260  
N    -3.7097770   -2.1995100    0.4076810  
C    -6.1342390   -2.2904030    0.7493180  
C    -7.2604740   -1.5441250    0.6743700  
O    -8.4905340   -1.9977740    0.9614110  
C    -7.2351890   -0.0938370    0.2492760  
O    -8.3148140    0.4984190    0.2149530  
C    -5.9539430    0.5348800   -0.0931870  
H    -2.9765150    0.9590490   -0.5749390  
H    -6.1487590   -3.3314990    1.0520800  
H    -9.0856780   -1.2285430    0.8122040  
H    -5.9710740    1.5790660   -0.3899420  
C     3.7028260    4.3027140    1.0186800  
C     3.1243250    5.4903680    0.7105280  
C     1.8515220    5.1939440    0.0874960  
C     1.7435080    3.7191050    0.0425300  
N     2.9015600    3.2400640    0.6056590  
C     0.6583730    3.0133280   -0.4437070  
C    -0.4600670    3.8258950   -0.9876330  
O    -1.4294480    3.3506110   -1.5479560  
C    -0.3708120    5.3936270   -0.8939040  
O    -1.3270080    6.0558720   -1.2624170  
C     0.8542740    5.9974940   -0.3723410  
H     3.5276980    6.4744880    0.8988450  
H     0.9110050    7.0812960   -0.3397170  
H     4.6490360    4.0992770    1.5018190  
H     3.0649100    2.2684680    0.8428840  
