62


C     5.1996360   -0.4749390    0.1172790  
C     5.5992600    0.6946150    0.7457840  
C     7.0208130    0.7394960    0.7123110  
C     7.4604550   -0.4354560    0.0395380  
N     6.3414100   -1.1805820   -0.2742630  
C     8.8113740   -0.7051050   -0.2034330  
C     9.7368370    0.2190770    0.2556680  
O    11.0620280    0.0079990    0.0490430  
C     9.3169300    1.3925470    0.9511600  
O    10.3634260    2.1971070    1.3447480  
C     7.9847740    1.6587490    1.1848430  
H     4.9358960    1.4049330    1.2200070  
H     6.3292410   -1.8958920   -0.9876740  
H     9.1536840   -1.5951690   -0.7206590  
H    11.5451480    0.7541420    0.4458150  
H    10.0250120    2.9736990    1.8149310  
H     7.6842450    2.5605000    1.7135130  
C     3.8864510   -1.0038220   -0.0966580  
C     2.6650040   -0.3666500   -0.1159820  
C     1.6446680   -1.3416350   -0.3412960  
C     2.3436810   -2.6382870   -0.4409440  
N     3.7068170   -2.3694890   -0.3730060  
C     1.7459190   -3.8495050   -0.5703530  
C     0.2960580   -3.8841860   -0.6164850  
O    -0.3543640   -4.9090720   -0.7489820  
C    -0.4830140   -2.5248850   -0.4890320  
O    -1.7060380   -2.6017910   -0.4001140  
C     0.2624700   -1.2495960   -0.4596450  
H     2.5256130    0.6943590    0.0119030  
H     2.2926590   -4.7831000   -0.6560030  
H     4.3510210   -3.0627840   -0.0153270  
C    -0.4572850    0.0081410   -0.5227860  
C    -0.0284970    1.3016820   -0.8116480  
C    -1.1673630    2.1517370   -0.7709770  
C    -2.2926390    1.3325460   -0.4642860  
N    -1.8304330    0.0557710   -0.3185980  
C    -3.6114670    1.8427060   -0.3379800  
C    -3.7327710    3.2333010   -0.4917950  
O    -4.9533740    3.8422280   -0.3748330  
C    -2.6180930    4.0550210   -0.7967330  
O    -2.9451610    5.3920520   -0.9226050  
C    -1.3484860    3.5382470   -0.9471750  
H     0.9728930    1.5980060   -1.0830130  
H    -2.3535680   -0.7830890   -0.1022110  
H    -4.8192570    4.7917600   -0.5474090  
H    -2.1717530    5.8930960   -1.2202640  
H    -0.5093740    4.1890110   -1.1832440  
C    -4.7555030    0.9753980   -0.0744000  
C    -4.9087780   -0.3732090   -0.3021920  
C    -6.2265190   -0.7541800    0.1321550  
C    -6.8642060    0.4848340    0.6427490  
N    -5.9230550    1.4795420    0.5143490  
C    -8.1312880    0.5514540    1.1281790  
C    -8.9266270   -0.6700270    1.1609750  
O   -10.0756990   -0.7077290    1.5782330  
C    -8.2669970   -1.9987400    0.6335080  
O    -8.9225590   -3.0308740    0.6583540  
C    -6.8947520   -1.9415940    0.1328850  
H    -4.2056780   -1.0360010   -0.7832690  
H    -8.5811760    1.4686980    1.4958320  
H    -6.4501320   -2.8633610   -0.2300270  
H    -6.0939740    2.4687400    0.6175780  
