64


C    -3.2685830    1.2904680   -1.6648350  
C    -3.0522570    0.2281200   -0.8110720  
C    -4.3254470   -0.0296230   -0.1627220  
C    -5.2580920    0.9074080   -0.6792820  
N    -4.5832110    1.6942290   -1.5905020  
C    -6.5923570    0.9619300   -0.2583150  
C    -6.9964100    0.0560750    0.7096590  
O    -8.2865940    0.0634070    1.1530460  
C    -6.0753560   -0.8796060    1.2516420  
O    -6.6232270   -1.7060070    2.2139280  
C    -4.7581310   -0.9312660    0.8350520  
H    -4.9865590    2.4545540   -2.1152610  
H    -7.3051430    1.6791530   -0.6524640  
H    -8.3614830   -0.6297520    1.8314840  
H    -5.9408120   -2.3038180    2.5535650  
H    -4.0709300   -1.6499230    1.2743380  
H    -2.5760730    1.7770310   -2.3363130  
C     1.1811070    1.6784560   -0.1978080  
C    -0.2018840    1.5877210   -0.3715820  
C    -0.5401850    0.2141160   -0.4473170  
C     0.6722550   -0.5229660   -0.3017650  
N     1.6901610    0.3827190   -0.1493360  
C     0.7410110   -1.9301830   -0.3154760  
C    -0.4806160   -2.5828900   -0.4883170  
O    -0.5276630   -3.9386860   -0.5025780  
C    -1.7011480   -1.8644990   -0.6455100  
O    -2.7931900   -2.6916310   -0.8335930  
C    -1.7741460   -0.4783850   -0.6236420  
H    -0.8634390    2.4365030   -0.4228520  
H     2.6747820    0.1679950   -0.0731960  
H    -1.4474400   -4.1873790   -0.7043890  
H    -3.5610000   -2.1480920   -1.0792240  
C     0.2000150    5.9732110   -0.2751620  
C     1.4179550    6.5333300   -0.1035090  
C     2.3414950    5.4092690    0.0023050  
C     1.4724410    4.2002720   -0.1311370  
N     0.2278000    4.5426580   -0.2947900  
C     2.0288430    2.8389890   -0.0754950  
C     3.3937220    2.7749930    0.0976230  
O     4.0757730    1.5986800    0.1678680  
C     4.2643330    3.9510820    0.2285510  
O     5.4819000    3.7704520    0.3842010  
C     3.6715000    5.3023280    0.1728800  
H     1.6745050    7.5824900   -0.0530740  
H     5.0145230    1.8666820    0.2932270  
H     4.3485590    6.1457920    0.2726350  
H    -0.7561250    6.4683470   -0.3941770  
C     3.5586970   -1.9840310    3.0781190  
C     4.4920070   -2.8342220    2.5439830  
C     4.0291780   -3.2012010    1.2350090  
C     2.7948070   -2.5320170    1.0292170  
N     2.5339260   -1.7981190    2.1689880  
C     2.0228890   -2.6581040   -0.1457400  
C     2.5471920   -3.4900810   -1.1354000  
O     1.8863220   -3.6433650   -2.3180600  
C     3.7792270   -4.1695720   -0.9441130  
O     4.1530670   -4.9518790   -2.0243740  
C     4.5205420   -4.0383830    0.2141360  
H     5.4029980   -3.1620130    3.0259430  
H     1.7141930   -1.2287340    2.3104510  
H     2.4046740   -4.2691160   -2.8527580  
H     4.9973910   -5.3838410   -1.8291040  
H     5.4617200   -4.5727180    0.3301870  
H     3.5362000   -1.4857560    4.0370960  
