66


C     2.1950700   -1.3337490   -0.1093830  
C     3.3734890   -0.6334390    0.0467810  
C     3.0024590    0.7677880    0.0448490  
C     1.5920380    0.8346960   -0.1043250  
N     1.1361000   -0.4618020   -0.2094550  
C     0.8661270    2.0465330   -0.1896240  
C     1.6494230    3.1987080   -0.1411740  
O     1.0500530    4.4406770   -0.2460330  
C     3.0576630    3.1580030   -0.0041840  
O     3.6460260    4.4093760    0.0212200  
C     3.7456990    1.9655200    0.0936380  
H     0.1618430   -0.7192780   -0.2623030  
H     1.7612950    5.1045150   -0.1838840  
H     4.6065510    4.3153370    0.1044540  
H     4.8281150    1.9511510    0.1879170  
H     2.0369650   -2.4021750   -0.1455050  
C     5.6053720   -3.7081180   -2.3663980  
C     4.6600810   -2.8343630   -1.8966750  
C     5.2081660   -2.2013070   -0.7286930  
C     6.5102200   -2.7369380   -0.5428550  
N     6.7227290   -3.6546280   -1.5522300  
C     7.3593190   -2.3345240    0.4954950  
C     6.8760970   -1.3713600    1.3661610  
O     7.6487030   -0.9463930    2.4113750  
C     5.5791960   -0.8237990    1.1996960  
O     5.2426160    0.1095540    2.1666200  
C     4.7249470   -1.2124450    0.1687600  
H     3.6910880   -2.6503040   -2.3379150  
H     7.5637090   -4.1949700   -1.6785040  
H     8.3534150   -2.7447820    0.6413940  
H     7.1055340   -0.3226880    2.9239650  
H     4.2956670    0.3120210    2.0845990  
H     5.5808170   -4.3698140   -3.2208290  
C    -2.4465210   -0.0437590    2.0246080  
C    -1.2375330    0.4582420    1.6313490  
C    -1.4606990    1.2787570    0.4645230  
C    -2.8512120    1.2466140    0.1964880  
N    -3.4294920    0.4239070    1.1575530  
C    -3.4609190    1.9629700   -0.8357570  
C    -2.6274300    2.7568190   -1.6068430  
O    -3.1386430    3.5069820   -2.6190330  
C    -1.2254610    2.8115940   -1.3700050  
O    -0.5472530    3.6268940   -2.2504880  
C    -0.6088870    2.0643970   -0.3640110  
H    -0.2948360    0.2875680    2.1308570  
H    -4.5277300    1.9301100   -1.0251620  
H    -2.3773510    3.9884310   -2.9964050  
H     0.0912460    4.1618070   -1.7307080  
H    -2.7218910   -0.6897300    2.8453090  
C    -5.6879710    0.9117280    1.9770420  
C    -6.9229280    0.3401950    1.8577320  
C    -6.7808550   -0.8329040    1.0357420  
C    -5.4156810   -0.9320160    0.6725020  
N    -4.7661440    0.1468790    1.2632090  
C    -4.9063580   -1.9582410   -0.1280920  
C    -5.8048670   -2.9145570   -0.5764020  
O    -5.3688520   -3.9418000   -1.3618780  
C    -7.1793630   -2.8378380   -0.2259020  
O    -7.9449200   -3.8638580   -0.7480340  
C    -7.6725750   -1.8180230    0.5670810  
H    -7.8359680    0.7102750    2.3038730  
H    -3.8600040   -2.0222150   -0.4045040  
H    -6.1441590   -4.4886560   -1.5763950  
H    -8.8714730   -3.7356530   -0.4969950  
H    -8.7299110   -1.7809280    0.8223790  
H    -5.3537510    1.7969050    2.4980760  
