60


C     4.9073440    0.3236550   -0.0398460  
C     5.0691070   -1.0258740    0.2900450  
C     6.4436180   -1.3481450    0.1265100  
C     7.0980950   -0.1584790   -0.3090080  
N     6.1472800    0.8246620   -0.4042820  
C     8.4739220   -0.1059890   -0.5654760  
C     9.2017050   -1.2691960   -0.3768860  
O    10.5413690   -1.2768390   -0.6090450  
C     8.5641430   -2.4690830    0.0612080  
O     9.4321860   -3.5322570    0.1975020  
C     7.2097690   -2.5214550    0.3120710  
H     4.3150910   -1.6764820    0.7117650  
H     6.2840960    1.8127160   -0.5802970  
H     8.9766440    0.7965730   -0.8958290  
H    10.8675920   -2.1728080   -0.4145270  
H     8.9511520   -4.3089920    0.5194950  
H     6.7453030   -3.4470620    0.6458570  
C     0.6592120   -0.6935910   -0.1992230  
C     0.0933140    0.5533900   -0.0142050  
C     1.2130990    1.5002600    0.0645880  
C     2.4379260    0.6956820   -0.0527460  
N     2.0236920   -0.6206620   -0.1961840  
C     3.7312220    1.1657140   -0.0280120  
C     3.8485810    2.6439150   -0.0212300  
O     4.9081410    3.2319110   -0.1922820  
C     2.5566250    3.5158230    0.1974260  
O     2.7049440    4.7202320    0.3328190  
C     1.2591340    2.8542180    0.2084350  
H     0.3611650    3.4483760    0.3188640  
H     0.1669450   -1.6468020   -0.3379310  
H     2.6496220   -1.3700840   -0.4571280  
C    -1.3116070    0.8266130    0.0611470  
C    -2.3700690   -0.0631990    0.0157330  
C    -3.5510280    0.7249290    0.1236690  
C    -3.0413020    2.1395100    0.2306590  
N    -1.7399260    2.1856000    0.1952220  
C    -3.9268710    3.2620920    0.3416170  
C    -5.2561650    3.0038010    0.3435760  
O    -6.2021440    3.9387960    0.4525800  
C    -5.8130180    1.5949060    0.2475220  
O    -7.0367000    1.4914130    0.3416810  
C    -4.8986810    0.4529530    0.1036260  
H    -2.3247980   -1.1389360   -0.0722160  
H    -3.5305550    4.2680760    0.4205430  
H    -7.0539790    3.4421980    0.4482250  
C    -4.4769340   -3.4787420    2.2310980  
C    -4.3016630   -2.1788010    1.8900730  
C    -5.1709590   -1.9677170    0.7377620  
C    -5.8169550   -3.2998140    0.5277650  
N    -5.4072720   -4.1769840    1.4011520  
C    -6.7865960   -3.5203780   -0.5135170  
C    -7.1018940   -2.4739810   -1.3101480  
O    -7.9788000   -2.5363430   -2.3251320  
C    -6.4514190   -1.1258740   -1.1482000  
O    -6.7164890   -0.2725140   -1.9886180  
C    -5.4775820   -0.8911000   -0.0336430  
H    -3.6666060   -1.4429390    2.3613670  
H    -7.2373850   -4.4987020   -0.6376680  
H    -7.9670410   -1.6444720   -2.7366990  
H    -4.0081450   -4.0204370    3.0444380  
