62


C    -3.3162860    2.8706920    2.1577710  
C    -4.1695400    1.8974700    1.7092730  
C    -3.4353110    1.0967490    0.7715330  
C    -2.1316340    1.6426850    0.6856770  
N    -2.0913010    2.7285040    1.5309040  
C    -1.0866270    1.0788640   -0.0932190  
C    -1.4298260   -0.0829480   -0.8117820  
O    -0.5476010   -0.6624300   -1.6602930  
C    -2.7343690   -0.6346800   -0.7326610  
O    -2.9038830   -1.7521220   -1.5229080  
C    -3.7533820   -0.0777880    0.0405090  
H    -5.2001580    1.7622570    2.0025050  
H    -1.2470100    3.2276270    1.7670260  
H    -1.0067960   -1.4159080   -2.0753820  
H    -3.8528730   -1.9634960   -1.5680060  
H    -3.4780640    3.6701430    2.8667580  
C     0.2353620    1.6717020   -0.1368860  
C     0.5904440    2.9930250   -0.0171530  
C     2.0278040    3.0287940   -0.1016180  
C     2.4269730    1.5908610   -0.2505410  
N     1.3873850    0.8168080   -0.2712440  
C     3.8287960    1.1624690   -0.3481060  
C     4.7338220    2.1914910   -0.3473730  
O     6.0636700    2.0290120   -0.4873400  
C     4.3555200    3.6375840   -0.2162370  
O     5.2803260    4.4587000   -0.2337490  
C     2.9516150    4.0166760   -0.0838290  
H    -0.0628770    3.8542060    0.0154670  
H     6.4229810    2.9483030   -0.4581240  
H     2.7225530    5.0728060    0.0178940  
C     3.3189220   -1.2374330   -0.9510660  
C     4.1510340   -0.2537800   -0.4785470  
C     5.3852750   -0.9860740   -0.1011220  
C     5.0861330   -2.4049430   -0.4609950  
N     3.8875040   -2.5333550   -0.9604690  
C     6.0313890   -3.4686650   -0.2485340  
C     7.2145480   -3.1592900    0.3319710  
O     8.1860690   -4.0466790    0.6026820  
C     7.5340340   -1.7508430    0.7422840  
O     8.6237180   -1.5454560    1.2763770  
C     6.5525310   -0.6738640    0.4958670  
H     5.7743640   -4.4813290   -0.5389710  
H     8.9033150   -3.5215940    1.0220230  
H     6.8411730    0.3269070    0.7882970  
H     2.3013820   -1.1109700   -1.2910420  
C    -7.8483120    1.4115310   -1.1283520  
C    -6.5026480    1.3099060   -0.8876010  
C    -6.2682840   -0.0009960   -0.3510620  
C    -7.5265830   -0.6572980   -0.2945740  
N    -8.4697590    0.2284050   -0.7730630  
C    -7.6821910   -1.9704550    0.1662520  
C    -6.5421530   -2.6379870    0.5824420  
O    -6.6342880   -3.9135720    1.0568830  
C    -5.2708570   -2.0079400    0.5275950  
O    -4.2409470   -2.8009790    0.9891860  
C    -5.1032670   -0.6996450    0.0654810  
H    -5.7640970    2.0780010   -1.0647750  
H    -9.4562840    0.0394620   -0.8551070  
H    -8.6447340   -2.4693330    0.2155740  
H    -5.7409500   -4.1809310    1.3355490  
H    -3.4383970   -2.2606380    1.0846250  
H    -8.4244590    2.2349330   -1.5262750  
