60


C    -4.2800500    3.0848450    2.2882760  
C    -5.6233690    3.1544080    2.0416100  
C    -5.9799090    1.9599680    1.3312450  
C    -4.7920410    1.2014400    1.1591630  
N    -3.7728380    1.9166660    1.7442140  
C    -4.7695820   -0.0626010    0.5088050  
C    -6.0233070   -0.5491080    0.0897920  
O    -6.1241780   -1.7677330   -0.5231170  
C    -7.2074030    0.2038190    0.2546860  
O    -8.3309720   -0.4311150   -0.2357440  
C    -7.2000760    1.4485590    0.8553650  
H    -6.2860390    3.9573750    2.3319550  
H    -2.8442060    1.5617950    1.9111150  
H    -7.0584580   -1.8869310   -0.7756210  
H    -9.0893000    0.1712530   -0.2174770  
H    -8.1242590    2.0101340    0.9717880  
H    -3.6249300    3.7751570    2.8000080  
C    -3.5356700   -0.7883600    0.2732210  
C    -2.2290420   -0.3205840    0.2538270  
C    -1.3670670   -1.4216680   -0.0201850  
C    -2.2397460   -2.6084810   -0.1620610  
N    -3.5261760   -2.1588900    0.0292620  
C    -1.8029750   -3.8704490   -0.4126200  
C    -0.3718260   -4.0887390   -0.5489820  
O     0.1317030   -5.1833930   -0.7471070  
C     0.5897570   -2.8503740   -0.4129230  
O     1.7990230   -3.0468430   -0.5161130  
C    -0.0004230   -1.5336060   -0.1615730  
H    -1.9201300    0.7099920    0.3205260  
H    -2.4659680   -4.7235350   -0.5111370  
H    -4.3710060   -2.6934950   -0.1145200  
C     2.1086060   -0.5110680    0.5415650  
C     2.9770440    0.4657000    0.1613480  
C     2.2528540    1.3021870   -0.7960880  
C     0.9199480    0.6705960   -0.9743720  
N     0.8731310   -0.4264110   -0.1021250  
C    -0.0153030    1.0985660   -1.8583880  
C     0.2763710    2.2822300   -2.6653970  
O    -0.5110450    2.7358490   -3.4818700  
C     1.6586880    2.9934880   -2.4563260  
O     1.9132590    3.9930600   -3.1088770  
C     2.5991280    2.4156410   -1.4895940  
H    -0.9696010    0.6071030   -2.0055420  
H     3.5537420    2.9100450   -1.3549710  
H     2.2629980   -1.2945850    1.2676880  
C     5.8205080   -2.8243050    0.3039050  
C     6.9229900   -2.1722410    0.7586560  
C     6.5561750   -0.7841920    0.9325390  
C     5.1278200   -0.6851040    0.5433260  
N     4.7403020   -1.9594330    0.1814880  
C     4.3906360    0.4751190    0.5430790  
C     5.0895840    1.7032630    0.9477950  
O     4.5463360    2.7979060    0.9706550  
C     6.6013710    1.6108870    1.3795240  
O     7.1683990    2.6362010    1.7254590  
C     7.2589370    0.3089060    1.3394400  
H     7.8947790   -2.6040130    0.9481630  
H     8.3037470    0.2603500    1.6302330  
H     5.6952580   -3.8678550    0.0466670  
H     3.8264610   -2.2202350   -0.1769910  
