64


C    -4.8478950    0.4039760    2.0715510  
C    -5.9856460   -0.3525440    1.9916710  
C    -5.9775630   -0.9951350    0.7078100  
C    -4.7937160   -0.5837910    0.0433970  
N    -4.1094570    0.2784110    0.8951700  
C    -4.4471200   -1.0396590   -1.2339480  
C    -5.3185130   -1.9190270   -1.8561570  
O    -5.0325590   -2.3916530   -3.1064270  
C    -6.5120790   -2.3370430   -1.2101130  
O    -7.2771370   -3.2142980   -1.9592430  
C    -6.8479540   -1.8898670    0.0537470  
H    -6.7509620   -0.4289120    2.7524080  
H    -3.5465920   -0.7194940   -1.7442890  
H    -5.7657510   -2.9756470   -3.3653270  
H    -8.0878600   -3.4263870   -1.4739570  
H    -7.7657260   -2.2274520    0.5320420  
H    -4.4987330    1.0677590    2.8502260  
C    -0.4575680   -0.2156150    3.1889240  
C     0.3366150    0.6268000    2.4546620  
C    -0.4649370    1.1369060    1.3733810  
C    -1.7541320    0.5660260    1.5282720  
N    -1.7207210   -0.2556980    2.6318630  
C    -2.8349530    0.8594750    0.6780910  
C    -2.5938350    1.7717510   -0.3454640  
O    -3.5911090    2.1345400   -1.1918670  
C    -1.3036610    2.3391550   -0.5294610  
O    -1.2310280    3.1975020   -1.6085050  
C    -0.2187350    2.0283920    0.2916720  
H     1.3679540    0.8665360    2.6682000  
H    -2.5036570   -0.7992400    2.9623560  
H    -3.1875570    2.7792820   -1.8049650  
H    -0.7672890    4.0083490   -1.3116800  
H    -0.2292420   -0.7920820    4.0740590  
C     3.6668310   -0.0535910   -0.1710050  
C     4.4485460    1.0867230   -0.3756980  
C     3.5935160    2.2124370   -0.3240130  
C     2.2763080    1.7247650   -0.0684470  
N     2.3538980    0.3623210    0.0149000  
C     1.1398350    2.5654800    0.0291990  
C     1.4004330    3.9180850   -0.1723560  
O     0.3633120    4.8235760   -0.1411260  
C     2.7066500    4.4263150   -0.4233880  
O     2.7343010    5.7975050   -0.5806260  
C     3.8035760    3.6002570   -0.4922780  
H     5.5195620    1.1022670   -0.5041400  
H     1.6063780   -0.2713380    0.2682400  
H     0.7485750    5.7091380   -0.2762240  
H     3.6446390    6.0940500   -0.7281900  
H     4.7954350    4.0000990   -0.6888530  
C     7.3208770   -2.3902250   -1.3515680  
C     6.4257600   -1.3731270   -1.2519090  
C     5.2751310   -1.9357620   -0.5564330  
C     5.6656560   -3.3442930   -0.3228570  
N     6.8659410   -3.6055270   -0.7735090  
C     4.7918330   -4.2917320    0.3227020  
C     3.5631870   -3.8671220    0.6891060  
O     2.6309410   -4.6544480    1.2635420  
C     3.1215090   -2.4572180    0.4590400  
O     1.9575900   -2.1897390    0.7720130  
C     4.0680830   -1.4408240   -0.1232810  
H     6.5232000   -0.3772610   -1.6565120  
H     5.1194360   -5.3141650    0.4751020  
H     1.8416810   -4.0845790    1.3806190  
H     8.2981620   -2.3711520   -1.8192650  
