60


C     2.1953680   -2.1525350   -1.7432210  
C     2.9694470   -1.4407280   -0.8199680  
C     4.1432180   -2.2599940   -0.5632100  
C     4.0130370   -3.4270250   -1.3477850  
N     2.8139410   -3.3202300   -2.0493880  
C     4.9600740   -4.4541800   -1.3605190  
C     6.0761580   -4.2920600   -0.5513750  
O     7.0350900   -5.2566180   -0.5193990  
C     6.2254370   -3.1252000    0.2444680  
O     7.3830840   -3.1096460    0.9916320  
C     5.2805500   -2.1141540    0.2495920  
H     2.4574750   -4.0099470   -2.6951550  
H     4.8575790   -5.3496030   -1.9644860  
H     7.7266290   -4.9589150    0.0973020  
H     7.4278530   -2.2878890    1.5033400  
H     5.3968520   -1.2230320    0.8580260  
H     1.2481420   -1.8901920   -2.1922960  
C     2.6351920   -0.1704400   -0.2705730  
C     1.5158870    0.6218640   -0.5135240  
C     1.6713040    1.7824440    0.2769430  
C     2.9877410    1.5683300    0.9873130  
N     3.5357740    0.4305300    0.6626600  
C     3.5313760    2.5389460    1.8885700  
C     2.8185880    3.6759710    2.0762210  
O     3.1848990    4.6626200    2.8931280  
C     1.4878890    3.9353170    1.3871860  
O     0.9100320    4.9688800    1.7311330  
C     0.9509970    2.9544500    0.4402730  
H     0.6925040    0.3994790   -1.1761600  
H     4.4742830    2.3563440    2.3915290  
H     2.4517240    5.3221690    2.8322100  
C    -3.0089670    0.8768900   -0.1853530  
C    -1.7155180    1.1450550    0.2111810  
C    -1.3952120    2.4372820   -0.3306270  
C    -2.6399630    2.8441920   -1.0462000  
N    -3.5724830    1.9395400   -0.9628380  
C    -2.7555160    4.1183130   -1.7084340  
C    -1.6891110    4.9479630   -1.6624860  
O    -1.6506070    6.1575590   -2.2437380  
C    -0.4038820    4.5622530   -0.9789330  
O     0.5463410    5.3282060   -1.1139360  
C    -0.3037390    3.2621990   -0.2441470  
H    -1.0638970    0.5178100    0.8019160  
H    -3.6743570    4.3823840   -2.2198010  
H    -0.7408510    6.4930280   -2.0839970  
C    -3.7808520   -0.3005480    0.1089720  
C    -3.4195810   -1.3642150    0.9048500  
C    -4.5326360   -2.2749120    0.8738610  
C    -5.5317190   -1.5995570   -0.0199110  
N    -5.0958940   -0.4587170   -0.4607250  
C    -6.8067430   -2.2061960   -0.3130440  
C    -7.0756310   -3.4076510    0.2485320  
O    -8.2165560   -4.0890410    0.0673230  
C    -6.0888770   -4.1105410    1.1534220  
O    -6.4279610   -5.2028980    1.6122550  
C    -4.7976480   -3.4790150    1.4388120  
H    -2.4993380   -1.4943350    1.4574140  
H    -7.5121860   -1.6989500   -0.9616040  
H    -8.1111660   -4.9103950    0.5986200  
H    -4.1152150   -4.0134500    2.0926690  
