60


C     5.6385760    0.1134490   -2.2820430  
C     6.9099550   -0.2691580   -2.5857370  
C     7.5814360   -0.5599880   -1.3468200  
C     6.6572140   -0.3187590   -0.3014160  
N     5.4585800    0.1072660   -0.8935850  
C     6.9646960   -0.5678210    1.0395000  
C     8.2391340   -1.0365840    1.3310270  
O     8.5848810   -1.2846780    2.6285320  
C     9.1819700   -1.2620620    0.2991280  
O    10.4043080   -1.7261850    0.7441260  
C     8.8656450   -1.0336720   -1.0300060  
H     7.3264040   -0.3418740   -3.5811790  
H     6.2670800   -0.3989440    1.8486800  
H     9.5059220   -1.5971290    2.6264690  
H    10.9990970   -1.8473920   -0.0106230  
H     9.5959090   -1.2312160   -1.8122780  
H     4.8209930    0.4006780   -2.9233400  
C     1.4248490   -1.1289060   -1.7967620  
C     0.7151050   -0.4635070   -0.8483850  
C     1.7156920    0.2714010   -0.0545570  
C     3.0011690   -0.0712750   -0.7216530  
N     2.8200820   -0.8863630   -1.7233380  
C     4.2699420    0.4649840   -0.2461400  
C     4.2230800    1.2831270    0.8512820  
O     5.3066680    1.8827780    1.3773870  
C     2.9538780    1.5856840    1.5590190  
O     2.9959050    2.3333590    2.5381010  
C     1.6749990    1.0349420    1.0499820  
H     4.9701000    2.3960980    2.1449370  
H     0.7705060    1.3041490    1.5861140  
H     1.0451170   -1.7945960   -2.5623840  
C    -1.3633730   -1.7667730   -0.4921220  
C    -2.6908400   -1.5526950   -0.2994590  
C    -2.9023670   -0.1260210   -0.2593790  
C    -1.5735950    0.4870450   -0.4753600  
N    -0.6565000   -0.5647030   -0.5746920  
C    -1.3468070    1.8172430   -0.6208100  
C    -2.4860510    2.7237490   -0.5172680  
O    -2.3948710    3.9266470   -0.7007700  
C    -3.8801950    2.1197900   -0.1315500  
O    -4.7663450    2.8844540    0.1953650  
C    -4.0390100    0.6377590   -0.1114830  
H    -3.4481140   -2.3146540   -0.2022800  
H    -0.3735270    2.2379820   -0.8473720  
H    -0.8168050   -2.6972030   -0.5665710  
C    -5.3599370    0.0694700    0.0945800  
C    -5.7091520   -1.0331270    0.8292070  
C    -7.1440840   -1.1569050    0.6944280  
C    -7.5245420   -0.0202360   -0.2050450  
N    -6.4937700    0.6919200   -0.5471480  
C    -8.8921950    0.1945810   -0.6074950  
C    -9.8303740   -0.6541650   -0.1267820  
O   -11.1392300   -0.5718740   -0.4081200  
C    -9.4778270   -1.7992020    0.7930650  
O   -10.3990840   -2.5203720    1.1759850  
C    -8.0756790   -2.0089600    1.1796950  
H    -5.0687440   -1.6438030    1.4498760  
H    -9.1408830    1.0212840   -1.2633750  
H   -11.5565570   -1.3150080    0.0822870  
H    -7.8609670   -2.8486880    1.8336880  
