62


C     3.2316700    1.0385430    1.5697900  
C     3.2126300   -0.0190400    0.6719160  
C     4.5950860   -0.2258000    0.2722250  
C     5.3738120    0.7448810    0.9490490  
N     4.5133090    1.4950060    1.7334740  
C     6.7582810    0.8709320    0.7865240  
C     7.3780730   -0.0100810   -0.0848460  
O     8.7257170    0.0539030   -0.2782440  
C     6.6165220   -0.9876420   -0.7784670  
O     7.3711850   -1.7939160   -1.6089900  
C     5.2496760   -1.1016570   -0.6162530  
H     4.7986350    2.2044990    2.3906650  
H     7.3480790    1.6152050    1.3117170  
H     8.9598370   -0.6630870   -0.8933060  
H     6.8236970   -2.5264140   -1.9293030  
H     4.6990430   -1.8785430   -1.1350940  
H     2.4178650    1.4530990    2.1471120  
C    -0.8911290    1.4364270   -0.2982010  
C     0.4503980    1.3231230   -0.0081460  
C     0.7927280   -0.0740570    0.0533230  
C    -0.4612700   -0.7988610   -0.2268160  
N    -1.4308920    0.1460130   -0.4023580  
C    -0.5813510   -2.1673470   -0.2890980  
C     0.6362280   -2.9496230   -0.1673820  
O     0.6790520   -4.1645250   -0.3122000  
C     1.9886760   -2.1918950    0.1260070  
O     2.9884160   -2.8840420    0.2235470  
C     1.9963550   -0.7180980    0.2681950  
H     1.1665590    2.1284110    0.0278890  
H    -2.3833790   -0.0258520   -0.6926060  
C    -1.9943080   -3.8422150   -1.4767140  
C    -3.2640320   -4.3154370   -1.4627950  
C    -3.9807770   -3.6043200   -0.4288790  
C    -3.0020260   -2.6651060    0.1779950  
N    -1.8099830   -2.8282170   -0.5221990  
C    -3.2850560   -1.8482140    1.2278270  
C    -4.6389580   -1.8593350    1.7754530  
O    -4.9805690   -1.1547960    2.7142230  
C    -5.6990470   -2.8160210    1.1188380  
O    -6.8438870   -2.8129370    1.5457150  
C    -5.2623490   -3.6762350    0.0185330  
H    -3.6648310   -5.0894900   -2.1010320  
H    -2.5539060   -1.1986350    1.6943720  
H    -5.9911330   -4.3602310   -0.4060500  
H    -1.1558390   -4.1346470   -2.0903000  
C    -0.3207080    5.5944410    1.0877210  
C    -1.4354760    6.1331160    0.5062140  
C    -2.1121720    5.0646120   -0.1727080  
C    -1.3414190    3.8894940    0.0215540  
N    -0.2472880    4.2462880    0.7789590  
C    -1.7188470    2.6181450   -0.4851490  
C    -2.9483210    2.5859460   -1.1666890  
O    -3.4321600    1.4089310   -1.6710470  
C    -3.7165540    3.7551290   -1.3755410  
O    -4.8724290    3.5278150   -2.0973880  
C    -3.3125660    4.9883680   -0.9021750  
H    -1.7451670    7.1676840    0.5549810  
H     0.3738250    3.5852220    1.2180610  
H    -4.3072380    1.6007330   -2.0558120  
H    -5.4538340    4.3005790   -2.0433150  
H    -3.9189890    5.8737700   -1.0788100  
H     0.4455380    6.0575670    1.6929640  
