64


C    -0.6558030    1.3674090    0.0034870  
C    -1.1267200    2.6676260    0.1505340  
C    -2.5525860    2.6103710    0.2061330  
C    -2.9152340    1.2419250    0.0851290  
N    -1.7511810    0.5189540   -0.0376350  
C    -4.2499540    0.7820530    0.0913650  
C    -5.2301690    1.7643340    0.2388390  
O    -6.5434960    1.4130310    0.2976260  
C    -4.8836530    3.1390670    0.3571340  
O    -5.9789540    3.9733110    0.4963480  
C    -3.5735690    3.5731410    0.3440920  
H    -0.5191050    3.5496930    0.2995090  
H    -1.6737960   -0.4872570   -0.0865640  
H    -7.0568260    2.2360160    0.3710680  
H    -5.6778360    4.8918990    0.5531760  
H    -3.3409270    4.6321620    0.4387170  
C     2.9710120    3.3238910   -1.5185550  
C     3.8628370    2.3167140   -1.2483760  
C     3.1241780    1.2418950   -0.6358760  
C     1.7762920    1.6733740   -0.5617240  
N     1.7189140    2.9513810   -1.0800760  
C     0.7103610    0.8685120   -0.0961620  
C     1.0769970   -0.4445960    0.2205060  
O     0.1291680   -1.3427680    0.6255580  
C     2.4174880   -0.9032340    0.1681510  
O     2.5564930   -2.2039050    0.5836430  
C     3.4809380   -0.0739470   -0.2058780  
H     4.9132050    2.3240210   -1.5013610  
H     0.8524410    3.4172570   -1.3061290  
H     0.6089710   -2.1860600    0.7532160  
H     3.2256330   -2.6274390   -0.0101110  
H     3.1262520    4.2832750   -1.9915870  
C    -3.1096010   -2.6340160    2.6450710  
C    -3.7343670   -3.6258050    1.9342540  
C    -4.3771280   -3.0006950    0.8126260  
C    -4.1023340   -1.6108400    0.8983890  
N    -3.3314360   -1.4176020    2.0275800  
C    -4.5774800   -0.6605360   -0.0314740  
C    -5.3479570   -1.1644310   -1.0800460  
O    -5.8147960   -0.3261450   -2.0486680  
C    -5.6377640   -2.5511620   -1.1760690  
O    -6.4144170   -2.8792650   -2.2752560  
C    -5.1684540   -3.4673730   -0.2551540  
H    -3.7384830   -4.6788930    2.1805130  
H    -2.9757830   -0.5265110    2.3367070  
H    -6.3369220   -0.8688890   -2.6642540  
H    -6.5678770   -3.8352930   -2.2838580  
H    -5.4065900   -4.5245180   -0.3577540  
H    -2.5179950   -2.6884690    3.5480500  
C     6.9956980    1.9807740    1.4210750  
C     7.9744280    1.1004890    1.0884700  
C     7.3358200   -0.0185970    0.4291280  
C     5.8856060    0.2915990    0.3974060  
N     5.7483490    1.5042440    1.0327200  
C     4.8966510   -0.5007700   -0.1482410  
C     5.3604560   -1.7999180   -0.6386730  
O     4.6072360   -2.7078240   -0.9970760  
C     6.9035910   -2.1137890   -0.7077600  
O     7.2525720   -3.1527650   -1.2452460  
C     7.8312590   -1.1671790   -0.1061710  
H     9.0307040    1.2030370    1.2895290  
H     8.8898460   -1.4051640   -0.1248270  
H     7.0698060    2.9332080    1.9290830  
H     4.8872770    2.0320040    1.0435310  
