64


C    -5.0007900   -1.5675260    2.6246780  
C    -4.5039280   -1.1341730    1.4180810  
C    -5.5465190   -1.2932980    0.4369960  
C    -6.6632450   -1.8346860    1.1219300  
N    -6.2978800   -2.0019920    2.4441080  
C    -7.8729430   -2.1240320    0.4769790  
C    -7.9520270   -1.8606900   -0.8810900  
O    -9.1087580   -2.1162200   -1.5577890  
C    -6.8380200   -1.3228370   -1.5820610  
O    -7.0722890   -1.1241100   -2.9294570  
C    -5.6447140   -1.0410900   -0.9457290  
H    -6.8974670   -2.3540060    3.1735060  
H    -8.7339700   -2.5332090    0.9955950  
H    -8.9679570   -1.8398150   -2.4799550  
H    -6.3272930   -0.6426080   -3.3188130  
H    -4.8040090   -0.6276060   -1.4972000  
H    -4.5262970   -1.5936310    3.5947660  
C    -2.0291030   -1.3765550    1.4681500  
C    -0.9324020   -0.6179790    1.1570430  
C    -1.4103290    0.6374180    0.6464820  
C    -2.8283970    0.5785060    0.6951160  
N    -3.1910050   -0.6703390    1.1893910  
C    -3.6493840    1.6549220    0.3441850  
C    -3.0150150    2.8197850   -0.0579370  
O    -3.7469860    3.9145160   -0.4036810  
C    -1.5991710    2.9134040   -0.1182530  
O    -1.1466300    4.1366300   -0.5582220  
C    -0.7687850    1.8310680    0.1954680  
H     0.0963420   -0.9251030    1.2736160  
H    -4.7307370    1.6121670    0.4056990  
H    -3.0900380    4.6118360   -0.5957130  
H    -0.3929430    4.3847290    0.0270530  
H    -2.1004560   -2.3830150    1.8552830  
C     2.1712470   -0.8525750   -1.7625770  
C     1.0405430   -0.2274870   -1.3434300  
C     1.4430340    0.9199150   -0.5651140  
C     2.9263980    0.9153020   -0.5782860  
N     3.3199420   -0.1962190   -1.3140680  
C     3.7148140    1.8356890    0.0362420  
C     3.0513120    2.9191030    0.7355600  
O     3.6387690    3.7818720    1.3709060  
C     1.4815440    3.0104110    0.6458690  
O     0.9750700    4.0577470    1.0477500  
C     0.7070250    1.8936870    0.0783820  
H     0.0262870   -0.5310130   -1.5480660  
H     4.7974740    1.7843930    0.0450190  
H     2.2866870   -1.7437060   -2.3651050  
C     5.2431470   -0.5899120   -2.8303710  
C     4.6508840   -0.5857250   -1.5883290  
C     5.6148720   -1.0836540   -0.6414150  
C     6.7857700   -1.3766190   -1.3831460  
N     6.5247590   -1.0765740   -2.7080480  
C     7.9467830   -1.8852820   -0.7866960  
C     7.9202990   -2.0979510    0.5820560  
O     9.0236900   -2.5859700    1.2147080  
C     6.7504940   -1.8105300    1.3396710  
O     6.8836880   -2.0814610    2.6857840  
C     5.6055200   -1.3119880    0.7490150  
H     7.1815430   -1.1744790   -3.4665190  
H     8.8485400   -2.1083920   -1.3475110  
H     8.8134460   -2.6408060    2.1631750  
H     6.0973120   -1.7743810    3.1610930  
H     4.7217760   -1.0979360    1.3451500  
H     4.8451150   -0.2792940   -3.7855680  
