62


C    -2.4713460   -0.8729110   -0.3783140  
C    -1.5343730    0.1379660   -0.4656650  
C    -2.2662930    1.3788970   -0.3107240  
C    -3.6288000    1.0373720   -0.1225600  
N    -3.7337210   -0.3524150   -0.1740860  
C    -4.6340190    1.9970430    0.0681970  
C    -4.2568810    3.3324600    0.0434260  
O    -5.1925120    4.3041690    0.2294480  
C    -2.9023870    3.6952180   -0.1776800  
O    -2.6880470    5.0577630   -0.1980530  
C    -1.9143800    2.7424150   -0.3528900  
H    -5.6681710    1.7332240    0.2616200  
H    -4.7341030    5.1613680    0.1869840  
H    -1.7425500    5.2401960   -0.3042920  
H    -0.8868640    3.0498350   -0.5306940  
H    -2.3328040   -1.9431330   -0.4283530  
C     0.4912030   -0.9742040   -1.5141240  
C    -0.1150090   -0.0649030   -0.7021740  
C     1.0156680    0.6188460   -0.0322380  
C     2.2352380   -0.0170080   -0.6008360  
N     1.9105930   -0.9518860   -1.4479830  
C     3.5914440    0.3714750   -0.1944540  
C     3.6466630    1.3439820    0.7736700  
O     4.7984480    1.8712780    1.2492770  
C     2.4426460    1.9569880    1.3857270  
O     2.6091680    2.8386770    2.2367310  
C     1.0981680    1.5315880    0.9502080  
H     4.5058630    2.5437120    1.9065370  
H     0.2445830    1.9912950    1.4381170  
H     0.0150250   -1.6750960   -2.1887420  
C     4.7826700   -0.8214790   -2.0713560  
C     4.7473310   -0.2532170   -0.8223770  
C     6.1150080   -0.4788150   -0.2957510  
C     6.8181760   -1.1834030   -1.4104940  
N     6.0327030   -1.3654400   -2.4380500  
C     8.1897060   -1.6034380   -1.3122630  
C     8.8406210   -1.3727400   -0.1474610  
O    10.1148900   -1.7178610    0.0933670  
C     8.1546910   -0.6991690    1.0076380  
O     8.8052350   -0.5336590    2.0385240  
C     6.7491880   -0.2625710    0.8734070  
H     8.6612280   -2.1007140   -2.1525890  
H    10.2921160   -1.4256160    1.0149690  
H     6.3079740    0.2395940    1.7240940  
H     3.9596760   -0.8915940   -2.7669750  
C    -4.9114010   -3.5078940    2.7276340  
C    -4.2241910   -2.5219710    2.0682730  
C    -5.0581110   -2.0861440    0.9842520  
C    -6.2536650   -2.8503070    1.0390640  
N    -6.1322830   -3.7101300    2.1113710  
C    -7.3132310   -2.6752520    0.1406940  
C    -7.1629390   -1.7115190   -0.8436820  
O    -8.1615900   -1.4985250   -1.7468910  
C    -5.9718510   -0.9444470   -0.9413330  
O    -5.9538930   -0.0649670   -2.0003790  
C    -4.9262390   -1.1218730   -0.0398810  
H    -3.2444500   -2.1469350    2.3268320  
H    -6.8318770   -4.3728480    2.4064500  
H    -8.2316500   -3.2507560    0.1918780  
H    -7.8704350   -0.7752630   -2.3297380  
H    -5.2457640    0.5898810   -1.8817850  
H    -4.6322620   -4.0889680    3.5951260  
