60


C    -2.8356400   -1.4675000    0.1383920  
C    -3.7268120   -0.4634830   -0.2729100  
C    -5.0339350   -1.0047850   -0.2330530  
C    -4.9116150   -2.3579720    0.2091690  
N    -3.5830430   -2.6010070    0.4272540  
C    -6.0167740   -3.2035580    0.3586060  
C    -7.2633210   -2.6795040    0.0563780  
O    -8.3716070   -3.4530280    0.1811870  
C    -7.4056750   -1.3276740   -0.3888590  
O    -8.7132520   -0.9732090   -0.6426580  
C    -6.3192290   -0.4951620   -0.5353250  
H    -3.4696680    0.5184220   -0.6423860  
H    -3.1316720   -3.4809780    0.6494070  
H    -5.9307560   -4.2319000    0.6923120  
H    -9.1386770   -2.9133170   -0.0795540  
H    -8.7506970   -0.0569990   -0.9552890  
H    -6.4481050    0.5301620   -0.8751170  
C     0.0650570    1.8284790    0.1644490  
C     1.2230380    1.0624770    0.1254420  
C     0.8593520   -0.3111440    0.2185940  
C    -0.6028660   -0.3390810    0.2571330  
N    -1.0207710    0.9690400    0.2334850  
C    -1.3995890   -1.4737890    0.2575410  
C    -0.6582990   -2.7456700    0.3811410  
O    -1.2059760   -3.8327310    0.5171680  
C     0.9179570   -2.7510370    0.3674760  
O     1.4514260   -3.8262910    0.5610920  
C     1.6437500   -1.4716890    0.2218400  
H     2.2192090    1.4386020   -0.0314610  
H    -1.9719480    1.2963040    0.3091590  
C     3.0777090   -1.4616290    0.1520990  
C     3.9597770   -0.5009970    0.6182270  
C     5.2727460   -0.9738160    0.2889110  
C     5.0259440   -2.2694270   -0.4229230  
N     3.7596780   -2.5564340   -0.4893930  
C     6.1129490   -3.0535340   -0.9501190  
C     7.3712130   -2.5936150   -0.7525570  
O     8.4791140   -3.2185730   -1.1746150  
C     7.6526670   -1.3016040   -0.0177610  
O     8.8373190   -0.9763230    0.1035990  
C     6.5356000   -0.5128320    0.4933360  
H     3.7275120    0.3705190    1.2128900  
H     5.9106240   -3.9833430   -1.4697500  
H     9.2211040   -2.6423140   -0.8790730  
H     6.7720410    0.4145810    1.0059390  
C     2.7910990    5.3583550    0.6684680  
C     2.3219820    4.0830610    0.7040470  
C     0.9310490    4.1732080    0.2978850  
C     0.7269340    5.6351780    0.0641040  
N     1.8191490    6.3186530    0.2669120  
C    -0.5435750    6.1777570   -0.3330730  
C    -1.5834090    5.3222970   -0.4572210  
O    -2.8308500    5.7023760   -0.7838190  
C    -1.4288910    3.8528030   -0.2097510  
O    -2.4599090    3.1751290   -0.2734400  
C    -0.0835970    3.2683000    0.1008630  
H     2.8590120    3.2008710    1.0156560  
H    -0.6501090    7.2438630   -0.4991790  
H    -3.3745230    4.8867620   -0.7686770  
H     3.7878380    5.7037090    0.9159200  
