60


C    -6.3321310   -0.9700180    3.2271030  
C    -5.2742350   -0.5754900    2.4490740  
C    -5.5926870   -0.9140510    1.0904790  
C    -6.8849630   -1.5086500    1.1132680  
N    -7.3006680   -1.5437680    2.4279900  
C    -7.5540260   -1.9269360   -0.0385250  
C    -6.9166870   -1.7103700   -1.2520080  
O    -7.5199200   -2.0808480   -2.4125800  
C    -5.6386280   -1.0995120   -1.3166290  
O    -5.1471940   -0.9844390   -2.5993750  
C    -4.9339990   -0.7260710   -0.1638950  
H    -4.3727970   -0.1032570    2.8098670  
H    -8.1972090   -1.8784440    2.7441230  
H    -8.5398000   -2.3804670   -0.0186140  
H    -6.9119330   -1.8030310   -3.1245930  
H    -4.7866700   -0.0758550   -2.6859910  
H    -6.4751030   -0.8921810    4.2955560  
C    -1.1348570   -1.6080250    2.0034930  
C    -2.3948700   -1.7077390    1.5233710  
C    -2.5414580   -0.5956900    0.5870540  
C    -1.2196050    0.0892830    0.6354190  
N    -0.4076080   -0.4976630    1.4682250  
C    -0.9275480    1.2801340   -0.1537190  
C    -1.9184040    1.6780600   -1.0035890  
O    -1.7733030    2.6917210   -1.8718750  
C    -3.2216850    0.9596880   -1.1190060  
O    -3.9845050    1.3604750   -2.0114790  
C    -3.5669960   -0.1711500   -0.2050180  
H    -3.1464110   -2.4460490    1.7586790  
H    -2.6238860    2.7575050   -2.3551610  
H    -0.6357350   -2.2539320    2.7156340  
C     3.4107900    0.1748020   -0.4678510  
C     2.0362260    0.1709320   -0.4495090  
C     1.5814200    1.4922450   -0.1339110  
C     2.8033000    2.3151570    0.0237900  
N     3.8830150    1.4542160   -0.1207940  
C     2.8200660    3.6524030    0.2389340  
C     1.5428230    4.3425170    0.3641480  
O     1.4492320    5.5479860    0.5326680  
C     0.2274550    3.4871920    0.2975650  
O    -0.8302830    4.0440650    0.5342650  
C     0.3241120    2.0387000   -0.0145900  
H     1.4122010   -0.7020230   -0.5560900  
H     3.7325490    4.2352620    0.3199500  
H     4.7862760    1.7899880   -0.4251430  
C     4.0939010   -2.0308780   -1.4875870  
C     4.3222690   -0.9008720   -0.7447530  
C     5.7178150   -1.0506610   -0.2831850  
C     6.1540770   -2.3497800   -0.8735520  
N     5.1922950   -2.9071080   -1.5666280  
C     7.4700530   -2.8772440   -0.6534090  
C     8.3162810   -2.1646650    0.1320400  
O     9.5702920   -2.5396200    0.4193760  
C     7.8987240   -0.8664530    0.7652400  
O     8.7163800   -0.2780880    1.4682540  
C     6.5344250   -0.3449300    0.5219660  
H     7.7572610   -3.8214730   -1.1022950  
H     9.9313780   -1.8397380    1.0065600  
H     6.2659670    0.5784950    1.0253400  
H     3.1833370   -2.2861260   -2.0166510  
