62


C    -2.8367270    1.3482850    0.7770350  
C    -3.7604570    0.4347910    0.3164450  
C    -2.9909400   -0.6580410   -0.2483520  
C    -1.6185530   -0.3407490   -0.0834360  
N    -1.5585220    0.8854620    0.5439800  
C    -0.5699040   -1.1560720   -0.5636730  
C    -0.9545110   -2.3270840   -1.2217030  
O    -0.0032620   -3.1928320   -1.6619100  
C    -2.3231620   -2.6547480   -1.4005320  
O    -2.5233330   -3.8484230   -2.0669830  
C    -3.3379030   -1.8434270   -0.9309630  
H    -0.7075730    1.3823000    0.7572110  
H    -0.4551270   -3.8766370   -2.1869040  
H    -3.4591080   -3.9333510   -2.3029340  
H    -4.3792790   -2.1119970   -1.0887900  
H    -3.0007510    2.2927050    1.2757180  
C     1.9759530   -0.2004080    2.9502770  
C     0.9572140   -0.5666330    2.1309490  
C     1.4596440   -0.5268420    0.7696450  
C     2.8770750   -0.1131570    0.8695050  
N     3.1236770    0.0747870    2.2158220  
C     3.7380810    0.0480120   -0.1817220  
C     3.1976170   -0.2626970   -1.5170980  
O     3.8926980   -0.3063710   -2.5171010  
C     1.6707090   -0.6009740   -1.6586520  
O     1.2016590   -0.6636130   -2.7790800  
C     0.8531610   -0.7890590   -0.4311660  
H    -0.0400130   -0.8489530    2.4320800  
H     1.9935290   -0.1118180    4.0285280  
H     4.0127890    0.3607920    2.5947410  
C     7.2541270   -1.5516220    2.0616790  
C     6.0159220   -1.3579950    1.5362980  
C     6.0754620   -0.1622420    0.7167560  
C     7.4728850    0.3247050    0.8069910  
N     8.1262770   -0.5479130    1.6588600  
C     7.9699960    1.4002940    0.1431770  
C     7.0682870    2.1501400   -0.7194070  
O     7.4213630    3.1085960   -1.3890470  
C     5.5601710    1.7124550   -0.7695460  
O     4.7642670    2.4335960   -1.3414700  
C     5.1384730    0.4756700   -0.0534600  
H     5.1567350   -1.9967260    1.6753070  
H     9.0069790    1.7153830    0.2064320  
H     7.6078590   -2.3438300    2.7083770  
H     9.1161570   -0.5275550    1.8483120  
C    -6.5834650    3.7543550   -0.8060950  
C    -5.4668210    2.9862820   -0.6040040  
C    -5.9022030    1.7466660   -0.0217300  
C    -7.3149430    1.8229490    0.1002970  
N    -7.7007540    3.0586410   -0.3796900  
C    -8.0934430    0.7772830    0.6116800  
C    -7.4248140   -0.3685410    1.0106100  
O    -8.1253080   -1.4208610    1.5322850  
C    -6.0147490   -0.4654160    0.9001100  
O    -5.5043070   -1.6654490    1.3664950  
C    -5.2280150    0.5666060    0.3903100  
H    -4.4528290    3.2621390   -0.8553950  
H    -8.6501710    3.3924100   -0.4284220  
H    -9.1730560    0.8335130    0.7070880  
H    -7.4702960   -2.0944980    1.7848850  
H    -4.5340440   -1.6110220    1.3680450  
H    -6.6817500    4.7464380   -1.2239430  
