62


C    -1.1348760    0.1621580    0.7871280  
C    -2.3368450   -0.3247050    0.3492270  
C    -2.9905140    0.7741510   -0.3422930  
C    -2.1255710    1.8930290   -0.2859850  
N    -0.9793090    1.5013040    0.4270640  
C    -2.4337140    3.1057790   -0.9085250  
C    -3.6588260    3.2107900   -1.5514900  
O    -4.0027250    4.3814920   -2.1605670  
C    -4.5595930    2.1180320   -1.5702030  
O    -5.7466830    2.3754290   -2.2253430  
C    -4.2396750    0.9079420   -0.9776600  
H    -1.7808360    3.9677950   -0.8807450  
H    -4.9032700    4.2722050   -2.5114060  
H    -6.3566090    1.6340850   -2.0948880  
H    -4.9468580    0.0828720   -0.9963180  
H    -0.3807100   -0.3188290    1.3891510  
C     3.3392660    0.5741230    0.0627690  
C     1.9699940    0.4587540    0.0012050  
C     1.4468160    1.7004610    0.5154830  
C     2.6568150    2.4803160    0.8830190  
N     3.7540820    1.8340120    0.6141930  
C     2.5733780    3.8052880    1.4476210  
C     1.3442740    4.3403400    1.6133600  
O     1.1150740    5.5685370    2.1106220  
C     0.0890380    3.5899230    1.2597820  
O    -0.9819880    4.1347530    1.5177600  
C     0.1931480    2.2263840    0.6652200  
H     1.3981680   -0.3467270   -0.4347830  
H     3.4793010    4.3418490    1.7055530  
H     0.1378540    5.6570980    2.1498050  
C     3.4834220   -3.8678690    0.2204060  
C     3.1074380   -2.5639680    0.3278150  
C     4.1769930   -1.7562180   -0.2097210  
C     5.2303160   -2.7072570   -0.6289880  
N     4.7356890   -3.9709310   -0.3659000  
C     6.4459170   -2.3635950   -1.1315110  
C     6.7488370   -0.9487370   -1.2780750  
O     7.8359610   -0.5297610   -1.6458370  
C     5.6076670    0.0862310   -0.9714650  
O     5.7725690    1.2355880   -1.3303630  
C     4.3434100   -0.3918700   -0.3366990  
H     2.1844370   -2.2054210    0.7545650  
H     7.2098500   -3.0885180   -1.3957050  
H     2.9505390   -4.7609420    0.5186720  
H     5.2539870   -4.8263200   -0.4909350  
C    -4.1847550   -3.1729070   -2.4824270  
C    -4.4368900   -4.1854540   -1.5937520  
C    -3.9651920   -3.7476410   -0.3102240  
C    -3.4397960   -2.4403480   -0.4831240  
N    -3.5851660   -2.1190890   -1.8186990  
C    -2.8548320   -1.6860480    0.5600950  
C    -2.7888850   -2.3251460    1.8020020  
O    -2.2160210   -1.6901710    2.8694880  
C    -3.3139330   -3.6292150    1.9915490  
O    -3.1732010   -4.0995190    3.2873410  
C    -3.9016650   -4.3425590    0.9649780  
H    -4.8975410   -5.1359240   -1.8258480  
H    -3.2787430   -1.2541770   -2.2370380  
H    -2.3527150   -2.2645690    3.6434220  
H    -3.6950840   -4.9084140    3.3931920  
H    -4.2876000   -5.3451460    1.1381870  
H    -4.3821450   -3.1097600   -3.5433960  
