64


C    -4.6548670    0.1470220    0.0234970  
C    -5.5547780    1.0985330    0.4457540  
C    -6.8789260    0.5989260    0.2070560  
C    -6.7390690   -0.6854040   -0.3730160  
N    -5.3779950   -0.9266950   -0.5394770  
C    -7.8333520   -1.4853010   -0.7130210  
C    -9.1006040   -0.9725050   -0.4716720  
O   -10.2038620   -1.7140020   -0.7808120  
C    -9.2609740    0.3214110    0.0890140  
O   -10.5805490    0.6959360    0.2580930  
C    -8.1739080    1.1083190    0.4254660  
H    -5.2926580    2.0745450    0.8293330  
H    -4.9982220   -1.8652390   -0.5386510  
H    -7.7301260   -2.4715360   -1.1541040  
H   -10.9832580   -1.1815710   -0.5456930  
H   -10.6175890    1.5841230    0.6425610  
H    -8.3218900    2.0959420    0.8578800  
C    -1.6145720    1.8242000    2.8737500  
C    -2.7855640    1.4342670    2.2772720  
C    -2.4382190    0.7661050    1.0536980  
C    -1.0229350    0.7708470    0.9714050  
N    -0.5467300    1.4129440    2.0983190  
C    -0.2902380    0.2015710   -0.0909380  
C    -1.0521240   -0.3920520   -1.0975480  
O    -0.4344910   -0.9832390   -2.1566560  
C    -2.4678870   -0.4119070   -1.0383980  
O    -3.0519290   -1.0393810   -2.1262810  
C    -3.1920830    0.1525540    0.0161650  
H    -3.7792000    1.5866450    2.6717630  
H     0.4199920    1.6606430    2.2453800  
H    -1.1368130   -1.2455390   -2.7780340  
H    -3.9927870   -0.7891020   -2.1655780  
H    -1.4471790    2.3553590    3.8001480  
C     2.6084480   -1.5131410    2.7310430  
C     3.7632220   -1.1051740    2.1094630  
C     3.3812980   -0.3968340    0.9140250  
C     1.9630930   -0.4004270    0.8814930  
N     1.5236490   -1.0937200    1.9921490  
C     1.1918600    0.2244390   -0.1193490  
C     1.9219910    0.8982160   -1.0975050  
O     1.2824260    1.5785710   -2.0801310  
C     3.3454260    0.9202570   -1.0945620  
O     3.8791380    1.6176180   -2.1504480  
C     4.1066710    0.2539150   -0.1300820  
H     4.7644950   -1.2558490    2.4869680  
H     0.5530920   -1.2576590    2.2126590  
H     1.9905810    1.9880070   -2.6150640  
H     4.6440350    2.1344850   -1.7992380  
H     2.4699240   -2.0604310    3.6527860  
C     6.7805250   -3.2013750    0.2099190  
C     7.9910160   -2.5898120    0.1441200  
C     7.7446340   -1.1741540   -0.0302050  
C     6.2687940   -1.0104290   -0.0512600  
N     5.7496560   -2.2776390    0.0779070  
C     5.5860380    0.1779720   -0.1904870  
C     6.4344280    1.3428230   -0.4422430  
O     5.9998590    2.4465830   -0.7776540  
C     7.9999750    1.2184670   -0.3189350  
O     8.6646480    2.2397280   -0.3898180  
C     8.5797540   -0.1077980   -0.1507570  
H     8.9587810   -3.0667730    0.1947340  
H     9.6608270   -0.1916840   -0.1065180  
H     6.5457490   -4.2507270    0.3303350  
H     4.7678270   -2.4635640    0.2267200  
