64


C    -0.9913520    0.4332670    1.6382240  
C    -2.3430850    0.2433900    1.5806110  
C    -2.6689360   -0.2066960    0.2477690  
C    -1.4520670   -0.2842950   -0.4722620  
N    -0.4434260    0.1247040    0.3947700  
C    -1.3559630   -0.7342150   -1.7908980  
C    -2.5389560   -1.1402910   -2.3870750  
O    -2.5364320   -1.6173950   -3.6604140  
C    -3.7812140   -1.0713830   -1.6967710  
O    -4.8563330   -1.4877320   -2.4518780  
C    -3.8844890   -0.5826670   -0.3926880  
H    -3.0326290    0.3844560    2.4002960  
H    -0.4162730   -0.7896380   -2.3285120  
H    -3.4650180   -1.8533750   -3.8506110  
H    -5.4169050   -2.0590470   -1.8823770  
H    -0.3456910    0.7560750    2.4417290  
C     1.7619790   -0.9215800    0.2525400  
C     3.0285420   -0.5398890   -0.1190840  
C     2.9421580    0.8504710   -0.5232190  
C     1.5944030    1.2532560   -0.3774890  
N     0.8924260    0.1496490    0.0958390  
C     1.1374190    2.5371990   -0.6868140  
C     2.0734080    3.4433000   -1.1611390  
O     1.6922420    4.7136410   -1.4729490  
C     3.4317460    3.0598940   -1.3283240  
O     4.2360730    4.0680600   -1.8197660  
C     3.8712490    1.7846470   -1.0243840  
H     0.1010680    2.8330310   -0.5706490  
H     2.4865620    5.1878230   -1.7745680  
H     5.1594330    3.7749500   -1.8282870  
H     4.9138020    1.5134130   -1.1699110  
H     1.3938280   -1.8600110    0.6407010  
C    -5.6448470    2.9175440    1.6584820  
C    -6.8385870    2.3513460    2.0241630  
C    -6.8223680    0.9969480    1.5513390  
C    -5.5721670    0.7957180    0.9051910  
N    -4.8843210    1.9886400    0.9780750  
C    -5.1961510   -0.4198470    0.2856740  
C    -6.1635870   -1.4226330    0.3331900  
O    -5.9167730   -2.6435730   -0.2721060  
C    -7.4137440   -1.2466550    0.9713400  
O    -8.2271830   -2.3656790    0.9117750  
C    -7.7543750   -0.0580270    1.5855060  
H    -7.6403200    2.8424770    2.5581040  
H    -3.9427580    2.1251520    0.6436020  
H    -6.7020270   -3.1995740   -0.1161250  
H    -9.0607870   -2.1856310    1.3705170  
H    -8.7223450    0.0603800    2.0678590  
H    -5.2678030    3.9171800    1.8229550  
C     4.2800450   -2.6695000   -0.6437660  
C     4.2064930   -1.4082390   -0.1292010  
C     5.5222200   -1.1258610    0.4411870  
C     6.3555420   -2.3321110    0.2024740  
N     5.5351680   -3.2370880   -0.4376620  
C     7.6565340   -2.4540550    0.5722470  
C     8.2895420   -1.3371740    1.2649810  
O     9.4552000   -1.3511120    1.6314860  
C     7.4186270   -0.0590670    1.5529390  
O     7.9293780    0.8867310    2.1326210  
C     6.0227980   -0.0499450    1.1033120  
H     8.2487800   -3.3447700    0.3855580  
H     5.4298440    0.8342650    1.3130980  
H     3.5128910   -3.2281820   -1.1636370  
H     5.8331360   -4.1309360   -0.7953840  
