62


C     5.5733260   -1.3086240   -1.8138080  
C     4.9151520   -0.5774240   -0.8460040  
C     5.9472820    0.1165890   -0.0977230  
C     7.1951420   -0.2399040   -0.6716460  
N     6.9323140   -1.1082500   -1.7121980  
C     8.4187180    0.2347780   -0.1833740  
C     8.3848620    1.0844620    0.9109450  
O     9.5472900    1.5793830    1.4245570  
C     7.1469030    1.4425820    1.5093560  
O     7.2781990    2.2862490    2.5952520  
C     5.9404390    0.9715550    1.0265740  
H     7.6263830   -1.5207510   -2.3158500  
H     9.3734660   -0.0382310   -0.6211850  
H     9.3113150    2.1387410    2.1847270  
H     6.4028570    2.4807410    2.9618750  
H     5.0071640    1.2539760    1.5070070  
H     5.1619420   -1.9420050   -2.5864970  
C     1.7769120   -3.7825260   -0.6007340  
C     2.9627260   -3.1031290   -0.6935750  
C     2.6583200   -1.7023310   -0.5988450  
C     1.2533010   -1.5954370   -0.4335060  
N     0.7438570   -2.8767960   -0.4457260  
C     0.5738990   -0.3595820   -0.3248140  
C     1.3843290    0.7800080   -0.3749150  
O     0.8199690    2.0107800   -0.2337160  
C     2.7871780    0.6884460   -0.5280990  
O     3.4158990    1.9199650   -0.5674590  
C     3.4564290   -0.5289270   -0.6464860  
H     3.9423140   -3.5446220   -0.8051140  
H    -0.2324970   -3.1099180   -0.3528900  
H     1.5181390    2.6641390   -0.4175970  
H     4.3375920    1.7927560   -0.8489660  
H     1.5746560   -4.8439510   -0.6258740  
C    -2.4323880   -2.2032710    2.3780550  
C    -1.2844550   -1.7944630    1.7855440  
C    -1.6577470   -0.9036430    0.7026190  
C    -3.1385030   -0.8055440    0.7386030  
N    -3.5388200   -1.5958300    1.7889360  
C    -3.9287480    0.0030110   -0.0718210  
C    -3.1722850    0.7760720   -1.0517840  
O    -3.6509660    1.6469850   -1.7817160  
C    -1.6326590    0.5294900   -1.2388270  
O    -1.1186580    0.9546810   -2.2548200  
C    -0.8866810   -0.2418500   -0.2155560  
H    -0.2771120   -2.0544320    2.0727110  
H    -2.5770800   -2.8763160    3.2127890  
H    -4.4721920   -1.9947360    1.7913770  
C    -6.6854480    3.4896190   -0.2966830  
C    -7.8673180    2.8739030   -0.0433820  
C    -7.5823060    1.4673480    0.1257990  
C    -6.1081230    1.3185310   -0.0390360  
N    -5.6248040    2.5896420   -0.2503200  
C    -5.4028150    0.1312500    0.0592120  
C    -6.2420300   -1.0516180    0.3089460  
O    -5.7942200   -2.1891230    0.4414210  
C    -7.8068290   -0.9130470    0.4591950  
O    -8.4499150   -1.9313320    0.6609200  
C    -8.3979010    0.4098370    0.3757630  
H    -8.8411540    3.3367290    0.0221760  
H    -9.4719430    0.5052700    0.4993530  
H    -6.4851530    4.5333900   -0.5009450  
H    -4.7593970    2.7001790   -0.7773960  
