62


C    -4.6966730   -0.6032550    2.2488610  
C    -4.1516800   -0.3298750    1.0112010  
C    -5.1509220   -0.7322790    0.0380450  
C    -6.2675310   -1.2292990    0.7599320  
N    -5.9591840   -1.1361930    2.1020290  
C    -7.4162460   -1.7276260    0.1331470  
C    -7.4390510   -1.7316320   -1.2526910  
O    -8.5352030   -2.2036220   -1.9150870  
C    -6.3261380   -1.2534710   -1.9940650  
O    -6.4939440   -1.3317600   -3.3640910  
C    -5.1929220   -0.7622180   -1.3733800  
H    -6.5626110   -1.4164430    2.8592250  
H    -8.2694200   -2.1093850    0.6847620  
H    -8.3450020   -2.1370390   -2.8667770  
H    -5.6866060   -1.0274980   -3.8046170  
H    -4.3506100   -0.4101250   -1.9633250  
H    -4.2750730   -0.4355400    3.2294230  
C    -0.0713600   -1.3622320    2.5496790  
C    -1.4186820   -1.3363320    2.2926920  
C    -1.6520550   -0.2305410    1.4098600  
C    -0.3917980    0.3898850    1.1804300  
N     0.5450930   -0.3068980    1.9145650  
C    -0.2351030    1.5379670    0.3614140  
C    -1.3971440    1.9470850   -0.3159540  
O    -1.3392030    2.9640800   -1.2201900  
C    -2.6498310    1.3267530   -0.1018400  
O    -3.6813830    1.9092710   -0.8239180  
C    -2.8218900    0.2558440    0.7693720  
H    -2.1561310   -2.0332840    2.6638540  
H     1.5350540   -0.3003240    1.6838640  
H    -2.2582260    3.1535770   -1.4810000  
H    -4.5271790    1.5652390   -0.4915970  
H     0.5195540   -2.0612430    3.1244760  
C     3.9919010    0.3075640   -0.1947610  
C     4.5928280    1.5186480   -0.4179290  
C     3.5519180    2.5086050   -0.2595460  
C     2.3126210    1.7108070    0.0132930  
N     2.5841110    0.4391470    0.0542570  
C     1.0091070    2.3251420    0.2259140  
C     1.0322330    3.6945830    0.3199930  
O    -0.0331430    4.4393240    0.6452130  
C     2.2595490    4.5178530    0.0776280  
O     2.1553780    5.7453830    0.1735460  
C     3.5325300    3.8582390   -0.2383170  
H     5.6445720    1.7179350   -0.5675430  
H     0.2925520    5.3675860    0.6186930  
H     4.3982280    4.4915750   -0.4063980  
C     7.2526600   -1.5955300   -2.5362010  
C     6.3194070   -0.7325240   -2.0476320  
C     5.6261470   -1.4045250   -0.9754230  
C     6.2288560   -2.7529130   -0.8840350  
N     7.2252860   -2.7947540   -1.8411180  
C     5.8302900   -3.7329400   -0.0311070  
C     4.7221870   -3.4468820    0.8660050  
O     4.2483430   -4.2710140    1.6327280  
C     4.1130650   -1.9969290    0.8584550  
O     3.3081190   -1.7249280    1.7331540  
C     4.5886780   -1.0150930   -0.1531220  
H     6.1195020    0.2619220   -2.4142790  
H     6.2780040   -4.7214660   -0.0028590  
H     7.9570210   -1.4564770   -3.3456000  
H     7.7777990   -3.6092760   -2.0587860  
