62


C     0.7613760    4.0414380   -0.1609320  
C     1.7241140    4.9986940   -0.2212040  
C     2.9994380    4.3294450   -0.2732710  
C     2.7497210    2.9366400   -0.2381200  
N     1.3470020    2.7669650   -0.1699030  
C     3.7834100    1.9965680   -0.2756320  
C     5.0853880    2.4774210   -0.3484120  
O     6.1253220    1.5938860   -0.3863610  
C     5.3490680    3.8675120   -0.3834390  
O     6.6893550    4.1889130   -0.4552340  
C     4.3207990    4.7954490   -0.3463120  
H     1.5535150    6.0668900   -0.2245770  
H     3.5900000    0.9342340   -0.2458910  
H     6.9448440    2.1146150   -0.4415360  
H     6.7914150    5.1516330   -0.4864150  
H     4.5363860    5.8616320   -0.3744680  
H    -0.3108290    4.1379370   -0.0996970  
C     0.6201400    1.6008350   -0.1357940  
C    -0.7570110    1.4594660   -0.1421110  
C    -0.9886470    0.0560230   -0.1116000  
C     0.3778540   -0.5396460   -0.0792510  
N     1.3119910    0.3728250   -0.0971540  
C     0.6193070   -1.9698660   -0.0738700  
C    -0.4844750   -2.7488140   -0.1951370  
O    -0.4508620   -4.0845630   -0.2482810  
C    -1.8883540   -2.1822890   -0.2566860  
O    -2.7795450   -3.0347840   -0.3979380  
C    -2.1280410   -0.7368710   -0.1374280  
H    -1.4964250    2.2364480   -0.2393010  
H    -1.3926380   -4.3573180   -0.3416800  
C     3.5806240   -1.7188010    3.1526950  
C     4.6412680   -2.3757950    2.6314650  
C     4.2023530   -2.8137690    1.3097800  
C     2.8012320   -2.2913870    1.2004270  
N     2.4412340   -1.6680570    2.2821220  
C     1.9872560   -2.5184700    0.0168790  
C     2.5478090   -3.2691120   -0.9700530  
O     1.9287450   -3.5720930   -2.1208720  
C     3.9474390   -3.8137010   -0.8770720  
O     4.3650800   -4.4690100   -1.8311520  
C     4.7569300   -3.5450790    0.3247530  
H     5.6077580   -2.5561970    3.0809000  
H     2.5789030   -4.1067920   -2.6288350  
H     5.7594510   -3.9611130    0.3519430  
H     3.5017660   -1.2444000    4.1236720  
C    -3.4834610   -0.2380340   -0.0598760  
C    -3.9589940    1.0196550    0.3179060  
C    -5.3759210    0.9864210    0.2549810  
C    -5.7419630   -0.3255020   -0.1697550  
N    -4.5849180   -1.0349870   -0.3550080  
C    -7.0758580   -0.7181420   -0.3362190  
C    -8.0561890    0.2240510   -0.0696430  
O    -9.3704600   -0.1024870   -0.2133240  
C    -7.7095140    1.5404910    0.3563510  
O    -8.8045640    2.3534040    0.5777570  
C    -6.3969220    1.9280630    0.5196840  
H    -3.3534260    1.8459550    0.6560240  
H    -4.4904510   -2.0182460   -0.5693670  
H    -7.3606730   -1.7141380   -0.6584100  
H    -9.8917370    0.6848010    0.0217740  
H    -8.5054420    3.2256290    0.8742620  
H    -6.1552080    2.9377040    0.8458190  
