62


C     0.7426900   -1.2465090   -2.2013980  
C    -0.0255570   -0.1829560   -1.7907740  
C     0.7181910    0.5178800   -0.7770910  
C     1.9489120   -0.1713170   -0.6330590  
N     1.9289100   -1.2471920   -1.4994680  
C     2.9822690    0.2252970    0.2386320  
C     2.7409440    1.3999470    0.9532730  
O     3.6904090    1.8991040    1.7812800  
C     1.5237400    2.1225060    0.8225810  
O     1.4677060    3.2425270    1.6199920  
C     0.4749040    1.6890390    0.0052390  
H    -0.9885970    0.0919740   -2.1956620  
H     2.6842900   -1.9077310   -1.6026460  
H     3.3143520    2.7238680    2.1453860  
H     1.0639830    3.9616690    1.0859250  
H     0.5519610   -1.9910660   -2.9618840  
C    -3.7281350    0.2104210    0.1491930  
C    -2.3620380    0.3068240    0.2784380  
C    -2.0296570    1.6791050    0.0171450  
C    -3.3479700    2.3251570   -0.2463270  
N    -4.3334970    1.4802700   -0.1794230  
C    -3.4482560    3.7312970   -0.5497020  
C    -2.3032630    4.4486960   -0.5348280  
O    -2.2464760    5.7736770   -0.7528770  
C    -0.9660750    3.8198080   -0.2358020  
O    -0.0070320    4.6080710   -0.1704670  
C    -0.8403920    2.3604330   -0.0510230  
H    -1.6696980   -0.4505950    0.6130160  
H    -4.4136570    4.1827310   -0.7476120  
H    -1.3022300    6.0189860   -0.6455670  
C    -2.7911570   -3.9346980   -0.8958440  
C    -3.9872370   -4.5150830   -0.6233680  
C    -4.8651120   -3.4716540   -0.1373680  
C    -4.0681740   -2.2251360   -0.1362490  
N    -2.8193510   -2.5764340   -0.5914430  
C    -4.5442750   -0.9780930    0.2201500  
C    -5.9491210   -0.9273420    0.7022200  
O    -6.4454560    0.0592990    1.2094270  
C    -6.8215100   -2.2322260    0.6261100  
O    -8.0080420   -2.1618430    0.9036100  
C    -6.1740600   -3.4836800    0.2363500  
H    -4.2437070   -5.5568690   -0.7483710  
H    -6.7785840   -4.3856260    0.2263670  
H    -1.8817260   -4.3747840   -1.2824950  
H    -2.0840770   -1.9167870   -0.8169140  
C     6.0583910   -0.6271150   -2.8132990  
C     6.8998440   -1.3767890   -2.0340970  
C     6.3146400   -1.4466390   -0.7239090  
C     5.1002970   -0.7153830   -0.7731860  
N     4.9590440   -0.2421210   -2.0647140  
C     4.2514680   -0.5344920    0.3402680  
C     4.6689460   -1.1293090    1.5319380  
O     3.8934230   -1.0323330    2.6463550  
C     5.8805680   -1.8674670    1.5969540  
O     6.1360310   -2.3989630    2.8485410  
C     6.6985860   -2.0366930    0.4964790  
H     7.8292200   -1.8277650   -2.3541580  
H     4.2550280    0.4192610   -2.3551770  
H     4.3807690   -1.4593350    3.3721760  
H     7.0173440   -2.8003620    2.8545860  
H     7.6201530   -2.6098560    0.5773890  
H     6.1405320   -0.3386860   -3.8518090  
