64


C     2.3628580   -0.7191570    0.6586810  
C     1.4822610    0.3309620    0.5529440  
C     2.2364310    1.4956350    0.1703550  
C     3.5847200    1.0789350    0.0603390  
N     3.6437550   -0.2773780    0.3699750  
C     4.6132410    1.9524790   -0.3119070  
C     4.2685550    3.2684100   -0.5725670  
O     5.2294550    4.1628380   -0.9422420  
C     2.9187220    3.7030550   -0.4607870  
O     2.7402610    5.0416480   -0.7474900  
C     1.9052120    2.8392980   -0.0933510  
H     5.6458390    1.6346290   -0.3957280  
H     4.7861260    5.0151650   -1.0953120  
H     1.7944140    5.2511120   -0.7459260  
H     0.8779600    3.1872870   -0.0180280  
H     2.1876270   -1.7482070    0.9380860  
C    -0.4645140   -0.0672530    2.0664570  
C    -1.8195520   -0.0733680    2.0063410  
C    -2.1985580    0.2784600    0.6526090  
C    -0.9297780    0.4713680   -0.0816740  
N     0.0978910    0.2709010    0.8303900  
C    -0.8242060    0.7636370   -1.4090130  
C    -2.0466920    0.8899840   -2.1693320  
O    -2.0859130    1.1075440   -3.3740860  
C    -3.4199200    0.7265880   -1.4096080  
O    -4.4414730    0.8648400   -2.0622880  
C    -3.4281270    0.4250230    0.0481490  
H    -2.4912020   -0.3232090    2.8128200  
H     0.1275140    0.8894540   -1.9125880  
H     0.1969120   -0.2772520    2.8961210  
C    -4.8689430    0.8665250    2.0598450  
C    -4.6899920    0.3584110    0.7823590  
C    -5.9671530   -0.2252490    0.4045610  
C    -6.8474130   -0.0472500    1.5005960  
N    -6.1489400    0.6255690    2.4883570  
C    -8.1679220   -0.5123310    1.5105100  
C    -8.6157800   -1.1776440    0.3809290  
O    -9.8959570   -1.6459620    0.3237980  
C    -7.7493340   -1.3727310   -0.7265000  
O    -8.3350630   -2.0503420   -1.7803710  
C    -6.4463220   -0.9147390   -0.7266990  
H    -6.5402360    0.9482020    3.3596510  
H    -8.8369310   -0.3677380    2.3527240  
H   -10.0124080   -2.0444240   -0.5563630  
H    -7.7496380   -2.0075990   -2.5512840  
H    -5.8180470   -1.0510290   -1.6001080  
H    -4.1781040    1.4272920    2.6724820  
C     4.6463740   -3.5289730   -2.3558460  
C     5.8501210   -3.8641310   -1.7929940  
C     6.0615880   -2.9758680   -0.6843230  
C     4.9328780   -2.1185400   -0.6293100  
N     4.0844180   -2.4784180   -1.6516780  
C     4.7981610   -1.1072720    0.3386740  
C     5.8274970   -0.9576610    1.2653800  
O     5.7430710    0.0008060    2.2279540  
C     6.9664240   -1.8038430    1.2082630  
O     7.8995880   -1.5285290    2.1898920  
C     7.0925680   -2.8022050    0.2606650  
H     6.5106880   -4.6517740   -2.1280840  
H     3.2219040   -2.0081560   -1.8797090  
H     6.5629400   -0.0468920    2.7503410  
H     8.6542520   -2.1285950    2.0982880  
H     7.9769030   -3.4359310    0.2455680  
H     4.1314220   -3.9531310   -3.2060810  
