60


C    -4.4212100    0.7194650   -2.4688650  
C    -3.3293090    0.1624530   -1.8506700  
C    -3.8066250   -0.5526480   -0.7008260  
C    -5.2199410   -0.4000910   -0.6885820  
N    -5.5611370    0.3932770   -1.7646150  
C    -6.0457400   -1.0113950    0.2568320  
C    -5.4337040   -1.8301200    1.1955680  
O    -6.1839560   -2.4658960    2.1324880  
C    -4.0293440   -2.0293240    1.2006500  
O    -3.5980010   -2.8506660    2.2150430  
C    -3.1825910   -1.3701870    0.2956670  
H    -2.3074930    0.2476110   -2.1893500  
H    -6.5019630    0.6436790   -2.0257800  
H    -7.1245220   -0.8935000    0.2647420  
H    -5.5579040   -3.0064040    2.6516960  
H    -2.9175180   -3.4489900    1.8343440  
H    -4.4793940    1.3225960   -3.3638370  
C     0.1436450    1.6031250    0.1746700  
C    -1.0928460    1.0287210    0.2765770  
C    -0.8706240   -0.4003180    0.2558120  
C     0.6040050   -0.5357690    0.1174410  
N     1.1903450    0.6238690    0.0599560  
C     1.2602530   -1.8354930    0.0365980  
C     0.4429020   -2.9132850    0.2264750  
O     0.9048010   -4.1708440    0.3059320  
C    -1.0264890   -2.7921090    0.4523010  
O    -1.6245970   -3.8475070    0.7177070  
C    -1.7147580   -1.4733170    0.3462510  
H    -2.0409270    1.5246140    0.4171400  
H     0.1194500   -4.7412360    0.4436970  
C     5.0548090   -0.1774710    1.7645150  
C     3.7506350   -0.4369390    1.4910960  
C     3.7165760   -1.3728180    0.3902830  
C     5.1372610   -1.6443870    0.0430070  
N     5.8944790   -0.8906990    0.9143780  
C     5.5605810   -2.4943580   -0.9278470  
C     4.5554410   -3.1950370   -1.7088260  
O     4.8254920   -3.9997220   -2.5874420  
C     3.0430630   -2.8946410   -1.4079550  
O     2.2063160   -3.3752320   -2.1506350  
C     2.6895480   -2.0031310   -0.2680790  
H     2.9001210    0.0274330    1.9615790  
H     6.6081960   -2.6898300   -1.1355820  
H     5.4785610    0.4820130    2.5101010  
H     6.9017010   -0.8692960    0.9298460  
C    -1.7649310    5.2517370   -1.5425890  
C    -1.5304510    3.9561250   -1.2125870  
C    -0.3031630    3.9804440   -0.4307630  
C     0.0785630    5.4251370   -0.4084710  
N    -0.7792070    6.1624330   -1.0574990  
C     1.2738980    5.8858360    0.2465080  
C     2.0524510    4.9625100    0.8547260  
O     3.1873520    5.2512460    1.5136560  
C     1.6859940    3.5010150    0.8882870  
O     2.4013150    2.7708990    1.5683420  
C     0.4640980    3.0209850    0.1665180  
H    -2.1171970    3.0874770   -1.4747360  
H     1.5223460    6.9413510    0.2449360  
H     3.4925130    4.3949770    1.8862960  
H    -2.5890820    5.6488180   -2.1236950  
