60


C    -8.0120970    2.5510240   -0.9918830  
C    -8.9746730    1.6571460   -0.6033960  
C    -8.2956350    0.5339680   -0.0222960  
C    -6.9054310    0.8110820   -0.0804550  
N    -6.7644730    2.0517770   -0.6653370  
C    -5.9083050   -0.0869810    0.3729410  
C    -6.3805670   -1.2953530    0.9001440  
O    -5.5004660   -2.2203950    1.3890850  
C    -7.7666130   -1.5820770    0.9697390  
O    -8.0442530   -2.8180190    1.5252160  
C    -8.7237990   -0.6911750    0.5236870  
H   -10.0427230    1.7816380   -0.7165010  
H    -5.8808770    2.4647990   -0.9212340  
H    -6.0316270   -2.9491690    1.7570170  
H    -8.9991750   -2.9081560    1.6591920  
H    -9.7813000   -0.9390570    0.5862460  
H    -8.1066340    3.5164340   -1.4685290  
C    -3.9164120    1.4758420    0.5744510  
C    -4.4867510    0.2647510    0.3182470  
C    -3.3450340   -0.5731770   -0.1104510  
C    -2.1577550    0.3257930   -0.0282820  
N    -2.5107960    1.5127330    0.3757690  
C    -0.7995710   -0.1182040   -0.3625100  
C    -0.7072730   -1.4131130   -0.8271320  
O     0.4096300   -2.0234910   -1.2406770  
C    -1.9060410   -2.3139160   -0.9452510  
O    -1.7109180   -3.4529410   -1.3752140  
C    -3.2399830   -1.8355560   -0.5573690  
H     0.1046820   -2.9270910   -1.4987740  
H    -4.0666140   -2.5319070   -0.6275600  
H    -4.4061680    2.3708300    0.9396940  
C     0.3319790    0.7782710   -0.2141190  
C     0.3356060    2.1185790    0.0675450  
C     1.7238750    2.5158830    0.0800420  
C     2.4802100    1.2546140   -0.1945880  
N     1.6711080    0.2565780   -0.3625900  
C     3.9449850    1.2061740   -0.2558040  
C     4.5620370    2.4216930   -0.1326350  
O     5.8901740    2.6074490   -0.2578250  
C     3.8267340    3.6975150    0.1407450  
O     4.5002040    4.7272820    0.2427580  
C     2.3633910    3.6915830    0.2557950  
H    -0.5246050    2.7437290    0.2427970  
H     6.0219330    3.5726460   -0.1097100  
H     1.8710840    4.6376230    0.4582250  
C     4.0600700   -1.1452850   -1.1181330  
C     4.6231730   -0.0718530   -0.4704740  
C     5.9450530   -0.5200980   -0.0157790  
C     6.0945720   -1.9193510   -0.4948250  
N     4.9243490   -2.2193370   -1.1629380  
C     7.1738020   -2.7130690   -0.2798100  
C     8.2821900   -2.1797620    0.5022920  
O     9.2970150   -2.8147770    0.7480190  
C     8.1370580   -0.7203130    1.0604550  
O     9.0401400   -0.2550290    1.7386890  
C     6.9203520    0.0387110    0.7484770  
H     7.2438530   -3.7324110   -0.6475110  
H     6.8587460    1.0485380    1.1303050  
H     3.0668650   -1.2219320   -1.5345530  
H     4.7041520   -3.1195120   -1.5600500  
