62


C    -5.1975800    0.1198310    0.1536300  
C    -5.3858440   -1.1520610   -0.3984770  
C    -6.7560380   -1.4860780   -0.2610260  
C    -7.3896790   -0.3813380    0.3843290  
N    -6.4286380    0.5630800    0.6221090  
C    -8.7597500   -0.3647770    0.6760200  
C    -9.5017720   -1.4753390    0.3103910  
O   -10.8364500   -1.5150400    0.5667710  
C    -8.8853510   -2.5895740   -0.3376400  
O    -9.7681430   -3.6089480   -0.6305620  
C    -7.5384780   -2.6074860   -0.6244340  
H    -4.6356080   -1.7392980   -0.9061280  
H    -6.5502480    1.5050230    0.9731810  
H    -9.2471580    0.4718550    1.1648990  
H   -11.1731730   -2.3648700    0.2328180  
H    -9.2996280   -4.3267290   -1.0818380  
H    -7.0891880   -3.4664690   -1.1185440  
C    -0.8607280   -0.8122910   -0.0651930  
C    -2.2071530   -0.8757110    0.0595500  
C    -2.7193030    0.4704560    0.1224880  
C    -1.5466750    1.3598320    0.0484750  
N    -0.4159340    0.5184120   -0.0953220  
C    -1.6006320    2.7174270    0.1038110  
C    -2.9007750    3.3344330    0.2950650  
O    -3.0749930    4.5430110    0.3446680  
C    -4.1535640    2.4092720    0.4700640  
O    -5.2016130    2.9424550    0.8092230  
C    -4.0146420    0.9450470    0.2381560  
H    -2.7816190   -1.7835850    0.1536910  
H    -0.7234510    3.3419290    0.0203020  
H    -0.1409440   -1.6146110   -0.1133520  
C     0.9133110    0.8556310   -0.2295970  
C     1.9798910   -0.0045490   -0.4126700  
C     3.1251540    0.8447110   -0.4650270  
C     2.5793590    2.2277270   -0.3061230  
N     1.2789680    2.2176830   -0.1670340  
C     3.4173120    3.3930390   -0.2871630  
C     4.7477520    3.1932430   -0.4274710  
O     5.6615060    4.1662930   -0.4163550  
C     5.3514610    1.8101430   -0.6251700  
O     6.5683910    1.7742550   -0.8064690  
C     4.4740740    0.6316480   -0.6091650  
H     1.9789330   -1.0805400   -0.4850900  
H     2.9862380    4.3788410   -0.1563890  
H     6.5223130    3.7128040   -0.5756990  
C     4.5210390   -1.5292570   -1.8110670  
C     5.2334590   -2.6916410   -1.7814540  
C     6.2300410   -2.5571100   -0.7531910  
C     6.0814640   -1.2654820   -0.1905340  
N     5.0232810   -0.6362580   -0.8576490  
C     6.8631380   -0.8237080    0.8823200  
C     7.8299140   -1.6883060    1.3725550  
O     8.6229130   -1.2966350    2.4122440  
C     8.0041940   -2.9777240    0.8071830  
O     9.0049680   -3.7206780    1.4024300  
C     7.2171860   -3.4189370   -0.2412290  
H     5.0804530   -3.5446250   -2.4287700  
H     6.7589760    0.1582920    1.3260630  
H     9.2358810   -2.0281650    2.5992740  
H     9.0901120   -4.5717640    0.9480240  
H     7.3545110   -4.4171000   -0.6524970  
H     3.7125240   -1.2155430   -2.4547060  
