60


C     3.5370630    0.3622580    2.1844560  
C     3.6704530   -0.2133700    0.9292610  
C     4.8046250    0.4449940    0.3066340  
C     5.2903190    1.4027120    1.2309660  
N     4.5019490    1.3228980    2.3641140  
C     6.3725820    2.2496860    0.9607920  
C     6.9832730    2.1246220   -0.2758740  
O     8.0489890    2.9125990   -0.5955950  
C     6.5104290    1.1722410   -1.2183050  
O     7.2223620    1.1616170   -2.4028510  
C     5.4392820    0.3445650   -0.9475790  
H     4.6419090    1.8550470    3.2088150  
H     6.7414440    2.9798750    1.6737540  
H     8.3410740    2.6488080   -1.4856080  
H     6.9389310    0.4065080   -2.9398560  
H     5.1197590   -0.3952420   -1.6735340  
H     2.8627700    0.1034550    2.9890250  
C    -0.6564770   -0.6366400    1.1932200  
C    -0.8449920   -1.8518180    0.5807750  
C     0.4799020   -2.2999950    0.1521610  
C     1.4338150   -1.2650510    0.6041390  
N     0.6761860   -0.3051810    1.2597840  
C     2.7883770   -1.2524560    0.3930100  
C     3.3123450   -2.3866260   -0.3997880  
O     4.4937490   -2.5190800   -0.6765420  
C     2.3101590   -3.4840300   -0.9218750  
O     2.7618650   -4.3902230   -1.6079640  
C     0.9000800   -3.3677950   -0.5828140  
H     0.2320030   -4.1441260   -0.9307170  
H    -1.4038570    0.0234790    1.6066570  
H     1.0393440    0.6064880    1.5019730  
C    -4.7330360   -0.0351450   -0.2977030  
C    -5.5241380   -1.1443030   -0.4534030  
C    -4.6690260   -2.2757640   -0.2191780  
C    -3.3234680   -1.6759970    0.0721000  
N    -3.3723580   -0.3776370    0.0232330  
C    -2.1436840   -2.4888180    0.3584150  
C    -2.3685490   -3.8377340    0.3974120  
O    -1.4260450   -4.7408060    0.7144860  
C    -3.7030920   -4.4642760    0.1072160  
O    -3.7694790   -5.6954840    0.1737050  
C    -4.8514750   -3.6170010   -0.2136290  
H    -6.5754180   -1.1852590   -0.7037390  
H    -1.8818970   -5.6124290    0.6500330  
H    -5.7969740   -4.1090540   -0.4184480  
C    -6.3341960    1.8711770   -0.6244170  
C    -5.0769920    1.3610920   -0.3989180  
C    -4.1877050    2.5211650   -0.2671720  
C    -5.0425760    3.7215260   -0.4270420  
N    -6.3266300    3.2463560   -0.6468860  
C    -4.6078080    5.0038960   -0.3651830  
C    -3.1864100    5.2390510   -0.1149920  
O    -2.6995850    6.3556520   -0.0384730  
C    -2.2590210    3.9840610    0.0643650  
O    -1.0742530    4.1516640    0.3070730  
C    -2.8539050    2.6470000   -0.0517280  
H    -5.2580130    5.8640160   -0.4919960  
H    -2.2103410    1.7824870    0.0451600  
H    -7.2635120    1.3361010   -0.7686710  
H    -7.1390120    3.8279360   -0.7872050  
