62


C     2.0809990   -0.7729560    0.4784540  
C     1.1019630    0.1723030    0.2867590  
C     1.7503800    1.4017730   -0.0866710  
C     3.1395070    1.1248010   -0.1120810  
N     3.3232430   -0.2067370    0.2510690  
C     4.0922630    2.0961420   -0.4608920  
C     3.6256800    3.3654790   -0.7730330  
O     4.5059600    4.3412050   -1.1265840  
C     2.2348200    3.6581120   -0.7366780  
O     1.9348190    4.9632790   -1.0635660  
C     1.2987530    2.6967680   -0.4040090  
H     5.1517110    1.8770390   -0.5425430  
H     3.9875320    5.1366440   -1.3404130  
H     0.9749020    5.0701340   -1.1417800  
H     0.2383600    2.9360310   -0.3930460  
H     1.9998270   -1.8087320    0.7735150  
C    -0.8966590   -0.3713140    1.6854840  
C    -2.2400220   -0.4985540    1.5486460  
C    -2.5615410   -0.2163410    0.1686460  
C    -1.2685350    0.0748620   -0.4988540  
N    -0.2832370   -0.0263260    0.4765560  
C    -1.1206330    0.3524150   -1.8201170  
C    -2.3155560    0.3901110   -2.6490310  
O    -2.2923380    0.6155870   -3.8500690  
C    -3.7072640    0.1354940   -1.9632010  
O    -4.7144290    0.2616790   -2.6374640  
C    -3.7443460   -0.2138720   -0.5207990  
H    -2.9435980   -0.7325520    2.3316540  
H    -0.1568280    0.5320410   -2.2834870  
H    -0.2766710   -0.4857020    2.5647070  
C    -5.8964840    1.7267100    2.8104650  
C    -7.0730860    1.0605020    2.8193860  
C    -6.9539550    0.0678590    1.7562440  
C    -5.5791650    0.2939720    1.1958820  
N    -4.9725070    1.2635090    1.8170810  
C    -5.0580400   -0.4950530    0.0897300  
C    -5.8876050   -1.4620540   -0.3990280  
O    -5.5426530   -2.3033270   -1.3812620  
C    -7.2679040   -1.7072310    0.1466120  
O    -7.9295780   -2.6098710   -0.3629920  
C    -7.7701050   -0.8793650    1.2582250  
H    -7.9296400    1.2169530    3.4601910  
H    -6.3346720   -2.8631200   -1.5401460  
H    -8.7747400   -1.0822800    1.6165960  
H    -5.5895110    2.5456400    3.4503440  
C     5.0002720   -3.8516010   -1.6546370  
C     4.1878830   -2.7973240   -1.3274710  
C     4.8710140   -2.0438650   -0.3142100  
C     6.1087780   -2.6951080   -0.0671580  
N     6.1558030   -3.7960620   -0.8972200  
C     7.0523800   -2.2180200    0.8505090  
C     6.7390070   -1.0589080    1.5429440  
O     7.6193760   -0.5458210    2.4480100  
C     5.4998360   -0.3956760    1.3393740  
O     5.3093620    0.7061240    2.1454740  
C     4.5696240   -0.8770550    0.4222880  
H     3.2233000   -2.5785620   -1.7624310  
H     6.9239370   -4.4457690   -0.9571560  
H     8.0043560   -2.7078910    1.0267980  
H     7.2232200    0.2741180    2.7932490  
H     4.6643950    1.3118370    1.7417290  
H     4.8532980   -4.6453990   -2.3732180  
