64


C    -3.0361810   -1.3767200   -1.7722670  
C    -4.2886760   -1.9081700   -1.6317490  
C    -4.2105620   -2.9134950   -0.6091940  
C    -2.8658120   -2.9489510   -0.1599750  
N    -2.1535910   -1.9983460   -0.8871540  
C    -2.4325010   -3.8041090    0.8598450  
C    -3.3733870   -4.6478760    1.4283340  
O    -3.0037660   -5.5078920    2.4246560  
C    -4.7228050   -4.6324390    0.9870270  
O    -5.5395210   -5.5314710    1.6505420  
C    -5.1483660   -3.7815890   -0.0156680  
H    -5.1635600   -1.6261610   -2.2018160  
H    -1.4039620   -3.8360200    1.1990450  
H    -3.7961520   -6.0146760    2.6718160  
H    -6.4308280   -5.4927160    1.2737970  
H    -6.1891060   -3.7818450   -0.3344900  
H    -2.6640810   -0.6271330   -2.4565600  
C    -0.5496520    1.8430300    0.3567710  
C     0.7857050    1.4941740    0.2990540  
C     0.8637150    0.1217800   -0.1006260  
C    -0.4686760   -0.3191320   -0.2902300  
N    -1.3070720    0.7405630   -0.0243740  
C    -0.8012000   -1.6204920   -0.7039610  
C     0.2587400   -2.4972010   -0.9302260  
O     0.0124870   -3.7756190   -1.3206880  
C     1.5993830   -2.0743440   -0.7426040  
O     2.5194980   -3.0719160   -0.9956730  
C     1.9385320   -0.7785470   -0.3401500  
H     1.6159030    2.1656820    0.4637840  
H    -2.3083200    0.6573080    0.0746660  
H     0.8744130   -4.2265780   -1.3697170  
H     3.3963770   -2.7813240   -0.6826520  
C     3.3332140   -0.3919920   -0.1304820  
C     3.9139030    0.3943380    0.8365890  
C     5.3303650    0.4208770    0.6010390  
C     5.5748660   -0.3776610   -0.5417820  
N     4.3569980   -0.9239700   -0.9462820  
C     6.8506960   -0.5546540   -1.0825220  
C     7.9089050    0.0808700   -0.4469620  
O     9.1745850   -0.0557560   -0.9358400  
C     7.6866040    0.8672030    0.7136740  
O     8.8371650    1.4231870    1.2380050  
C     6.4200150    1.0408110    1.2429940  
H     3.3882500    0.8516840    1.6633350  
H     4.1756580   -1.1376550   -1.9200880  
H     7.0412690   -1.1627490   -1.9609340  
H     9.7658630    0.4524380   -0.3541020  
H     8.6173220    1.9415540    2.0260520  
H     6.2740320    1.6513780    2.1318820  
C    -0.6967010    3.9895490    1.6562070  
C    -1.1720020    3.0997680    0.7346900  
C    -2.4009900    3.6844370    0.1967780  
C    -2.5866190    4.9829220    0.8938130  
N    -1.5071610    5.1146810    1.7434720  
C    -3.6291350    5.8270390    0.6864720  
C    -4.6403760    5.4553680   -0.2978810  
O    -5.6167190    6.1458510   -0.5466920  
C    -4.4479930    4.1024180   -1.0743790  
O    -5.2689530    3.7798800   -1.9176730  
C    -3.2807220    3.2721750   -0.7529610  
H    -3.7453900    6.7707140    1.2106840  
H    -3.1618910    2.3482890   -1.3095830  
H     0.1822260    3.9042960    2.2808030  
H    -1.3841590    5.8665800    2.4033580  
