62


C     4.3121430   -1.5608230   -2.3891220  
C     5.0628430   -2.6957110   -2.2874320  
C     5.2005460   -3.0068190   -0.8880040  
C     4.5045700   -2.0128360   -0.1602960  
N     3.9620870   -1.1400220   -1.1025460  
C     4.4241550   -1.9934670    1.2345350  
C     5.0701190   -3.0144780    1.9163500  
O     5.0298920   -3.0507520    3.2771210  
C     5.7750570   -4.0260870    1.2093520  
O     6.3593070   -4.9703390    2.0294410  
C     5.8462260   -4.0337800   -0.1714630  
H     5.4765360   -3.2535650   -3.1164010  
H     3.8953070   -1.2240480    1.7860430  
H     5.5538310   -3.8189540    3.5633440  
H     6.8747480   -5.5927220    1.4954320  
H     6.3917250   -4.8187440   -0.6912470  
H     3.9827130   -0.9912080   -3.2457330  
C     1.8534610    0.0068350   -0.6612500  
C     1.4060660    1.2756280   -0.4001160  
C     2.5981920    2.1392940   -0.3936450  
C     3.7598010    1.2643100   -0.6648730  
N     3.2347070   -0.0190660   -0.8159780  
C     5.0504220    1.6638360   -0.7483550  
C     5.3363970    3.0841900   -0.5541570  
O     6.4626790    3.5518460   -0.6114140  
C     4.1248470    4.0413590   -0.2607250  
O     4.3396940    5.2306740   -0.0951100  
C     2.7700080    3.4703060   -0.1976360  
H     5.8712200    0.9837880   -0.9488820  
H     1.9332010    4.1284600    0.0011490  
H     1.3037840   -0.9192300   -0.7571510  
C     0.0358300    1.6671990   -0.1772670  
C    -1.0936730    0.8780260   -0.1177150  
C    -2.1890720    1.7665520    0.1370040  
C    -1.5519010    3.1021030    0.2215540  
N    -0.2611030    3.0465150    0.0278290  
C    -2.2974050    4.3040280    0.5018110  
C    -3.6208590    4.1761540    0.7308240  
O    -4.4357390    5.1997480    1.0412020  
C    -4.3091070    2.8388530    0.6741370  
O    -5.5140670    2.8484410    0.9579440  
C    -3.5575390    1.6090410    0.2916040  
H    -1.1343350   -0.1986340   -0.1832640  
H    -1.7909810    5.2616020    0.5478230  
H    -5.3229030    4.7994480    1.1677120  
C    -4.2793960    0.3774890    0.0945450  
C    -3.8716700   -0.8132240   -0.5203690  
C    -4.9587600   -1.7168650   -0.4845610  
C    -6.0382270   -1.0428840    0.1652330  
N    -5.5994410    0.2082410    0.5012130  
C    -7.2860330   -1.6440960    0.3703810  
C    -7.4494390   -2.9415240   -0.0865150  
O    -8.6383490   -3.5754270    0.0836420  
C    -6.3812410   -3.6320090   -0.7402660  
O    -6.7171840   -4.9118310   -1.1284240  
C    -5.1542240   -3.0421790   -0.9424120  
H    -2.9145090   -0.9816270   -0.9885160  
H    -6.1360330    0.9650320    0.9030230  
H    -8.1102430   -1.1389090    0.8622800  
H    -8.5544270   -4.4655040   -0.3014440  
H    -5.9619860   -5.3300080   -1.5681240  
H    -4.3540840   -3.5842720   -1.4417820  
