60


C     6.1987700    1.2325820    3.1354170  
C     7.3103850    1.6023670    2.4271630  
C     6.9704370    1.5271870    1.0341040  
C     5.6182610    1.0989260    0.9662090  
N     5.1717000    0.9280070    2.2570530  
C     4.9570860    0.9192210   -0.2627770  
C     5.6676760    1.1865350   -1.4316810  
O     5.0589840    1.0328970   -2.6407660  
C     7.0131280    1.6289020   -1.3669190  
O     7.5690380    1.8585750   -2.6084290  
C     7.6668580    1.7957860   -0.1604100  
H     8.2626680    1.8958500    2.8460380  
H     4.2492450    0.6204040    2.5223390  
H     5.7216470    1.2414540   -3.3234080  
H     8.5083770    2.0762390   -2.5147520  
H     8.6994720    2.1367150   -0.1378420  
H     6.0434190    1.1562160    4.2020400  
C     2.5704280    1.1761450   -0.9424210  
C     1.4040720    0.4624010   -0.9201400  
C     1.6722110   -0.7888500   -0.2777880  
C     3.1140060   -0.7595320    0.0610040  
N     3.6010240    0.4882350   -0.3304780  
C     3.8040170   -1.7749680    0.6389260  
C     3.0817550   -3.0032980    0.9378960  
O     3.5977810   -3.9703620    1.4721720  
C     1.5644270   -3.0907160    0.5472200  
O     1.0211630   -4.1790750    0.6979880  
C     0.8765300   -1.8915270    0.0193440  
H     0.4747620    0.7832710   -1.3603530  
H     4.8614740   -1.7214770    0.8720440  
H     2.7660520    2.1523330   -1.3637040  
C    -0.5592050   -1.9146400   -0.1760560  
C    -1.4535690   -0.8668180   -0.3487120  
C    -2.7688240   -1.4162410   -0.4200610  
C    -2.6175530   -2.8822570   -0.2778200  
N    -1.2669360   -3.1142530   -0.1580510  
C    -3.6471570   -3.7676220   -0.2553230  
C    -5.0034850   -3.2537120   -0.3878180  
O    -5.9986540   -3.9591760   -0.3393330  
C    -5.2033850   -1.7073140   -0.6072770  
O    -6.3259590   -1.2790000   -0.8164830  
C    -4.0099480   -0.8429190   -0.5743870  
H    -1.2175760    0.1839320   -0.3286050  
H    -3.5097980   -4.8371620   -0.1346640  
H    -0.8114830   -3.9866370    0.0840380  
C    -3.5293130    1.2196500   -1.8793110  
C    -3.8575880    2.5350150   -1.8937150  
C    -4.7543360    2.7671990   -0.7823550  
C    -4.9291950    1.4553210   -0.1118540  
N    -4.1515180    0.5383880   -0.8259800  
C    -5.6727610    1.2679910    1.0051880  
C    -6.3649920    2.4208350    1.5814210  
O    -7.0427480    2.3471610    2.5945940  
C    -6.2137560    3.8140820    0.8700220  
O    -6.7889480    4.7852050    1.3368490  
C    -5.3679850    3.8892110   -0.3224320  
H    -3.5280710    3.2702860   -2.6137850  
H    -5.7969340    0.3058120    1.4876620  
H    -5.2501470    4.8581880   -0.7982100  
H    -2.9002310    0.6584980   -2.5573400  
