62


C     1.0658010    4.0673320    0.9870160  
C     0.4156060    5.2611100    1.0149270  
C    -0.8718640    5.0715900    0.3963840  
C    -0.9553670    3.7154390    0.0017830  
N     0.2481810    3.0967360    0.3850300  
C    -2.0561340    3.2071560   -0.6974530  
C    -3.1104860    4.0745220   -0.9533810  
O    -4.2066720    3.6191860   -1.6219810  
C    -3.0549390    5.4280400   -0.5356100  
O    -4.1765490    6.1589380   -0.8615190  
C    -1.9475760    5.9335650    0.1235920  
H     0.8002020    6.1785120    1.4389260  
H    -2.1049910    2.1945640   -1.0780010  
H    -4.8112790    4.3729800   -1.7365680  
H    -4.0571070    7.0827730   -0.5952270  
H    -1.9096980    6.9806510    0.4160270  
H     2.0300230    3.7793010    1.3775750  
C     0.6151330    1.7757570    0.2452040  
C     1.8741730    1.2368170    0.1574930  
C     1.7330350   -0.1880470    0.1319440  
C     0.2906210   -0.4588490    0.1788660  
N    -0.3535410    0.7768720    0.1983620  
C    -0.3062230   -1.6977520    0.1915010  
C     0.6423990   -2.8372320    0.2421120  
O     0.2860550   -3.9965350    0.4032120  
C     2.1857310   -2.5788520    0.0958300  
O     2.9158600   -3.5577900    0.1214720  
C     2.6690880   -1.2013450    0.0229520  
H     2.7977250    1.7887910    0.0818480  
H    -1.2613540    0.8847970    0.6350240  
C     5.8283260    1.0634080    2.2898990  
C     4.6246180    0.5532490    1.9286280  
C     4.8821090   -0.2058780    0.7092090  
C     6.3480380   -0.0386660    0.4901070  
N     6.8945120    0.7052960    1.4137900  
C     7.0329950   -0.6742930   -0.6059630  
C     6.2993430   -1.4385600   -1.4459330  
O     6.8006930   -2.0850340   -2.5118030  
C     4.8107070   -1.5961390   -1.2832090  
O     4.2138160   -2.1903170   -2.1744500  
C     4.1112020   -0.9716160   -0.1106610  
H     3.6761160    0.6570740    2.4354760  
H     8.1009390   -0.5355150   -0.7327720  
H     6.0267130   -2.5072080   -2.9456170  
H     6.0560170    1.6806950    3.1514300  
C    -1.7356360   -1.9203770    0.1763730  
C    -2.7964400   -1.0628940   -0.1344220  
C    -4.0014330   -1.8032390   -0.0080750  
C    -3.6373340   -3.1236190    0.3878050  
N    -2.2722440   -3.1598910    0.4953530  
C    -4.5847520   -4.1332560    0.6019600  
C    -5.9169910   -3.8066590    0.4109010  
O    -6.8815010   -4.7469670    0.6024360  
C    -6.2992410   -2.4901250    0.0125740  
O    -7.6631870   -2.3347930   -0.1322040  
C    -5.3682750   -1.4959520   -0.1964970  
H    -2.7197650   -0.0495900   -0.4994710  
H    -1.6763060   -3.9613800    0.6646890  
H    -4.3141800   -5.1399380    0.9018360  
H    -7.7388160   -4.3281230    0.4113570  
H    -7.8578520   -1.4339200   -0.4303710  
H    -5.6802740   -0.4988600   -0.5003710  
