64


C    -0.8289210    0.7142440   -0.4602240  
C    -1.9708810   -0.0356370   -0.2708020  
C    -3.0872540    0.8625710   -0.2580930  
C    -2.5689450    2.1715670   -0.4464620  
N    -1.1937910    2.0592340   -0.5328960  
C    -3.3795970    3.3092940   -0.5119640  
C    -4.7472630    3.1255480   -0.3727200  
O    -5.5891420    4.2008100   -0.4162590  
C    -5.2869110    1.8293650   -0.1754450  
O    -6.6598750    1.8093810   -0.0341840  
C    -4.4878590    0.6845040   -0.1151670  
H    -1.9998030   -1.1025910   -0.1031550  
H    -0.5832480    2.7768730   -0.8938920  
H    -2.9839270    4.3096050   -0.6565660  
H    -6.4870350    3.8628660   -0.2531170  
H    -6.9275250    0.9155190    0.2424130  
C     1.0211850   -0.8449080   -1.1721740  
C     0.5615310    0.3117790   -0.5827650  
C     1.7365190    1.0207080   -0.1171130  
C     2.8624000    0.2280950   -0.4513610  
N     2.3939620   -0.9206670   -1.0590250  
C     4.1880590    0.5858930   -0.1172060  
C     4.3478570    1.8310650    0.5044910  
O     5.5941160    2.3160580    0.7489380  
C     3.2274340    2.6233060    0.8571650  
O     3.5625590    3.8056210    1.4921740  
C     1.9326940    2.2291020    0.5762010  
H     2.9771690   -1.4912560   -1.6554040  
H     5.4880640    3.1213610    1.2850370  
H     2.7607420    4.2247110    1.8378020  
H     1.0900890    2.8417710    0.8889060  
H     0.4639810   -1.6210980   -1.6771210  
C    -4.1945770   -2.3661240    3.2042320  
C    -4.0409170   -1.2508530    2.4229390  
C    -4.8463830   -1.4431880    1.2497620  
C    -5.4755820   -2.7098560    1.3807480  
N    -5.0601650   -3.2484060    2.5815660  
C    -6.3514280   -3.2293380    0.4187670  
C    -6.5931690   -2.4540660   -0.7033720  
O    -7.4253740   -2.9118390   -1.6850700  
C    -5.9800370   -1.1825910   -0.8528910  
O    -6.3090300   -0.5380030   -2.0283750  
C    -5.1106670   -0.6514700    0.1015670  
H    -3.4220050   -0.3942510    2.6468830  
H    -5.3409320   -4.1452610    2.9450440  
H    -6.8295430   -4.1988240    0.5163200  
H    -7.4220920   -2.2433250   -2.3923090  
H    -5.7353420    0.2427450   -2.1212440  
H    -3.7564580   -2.6127940    4.1611300  
C     7.2760000   -0.8874240    2.6490270  
C     8.0958760   -1.5839080    1.8311680  
C     7.4753240   -1.4952950    0.5118620  
C     6.2652890   -0.6396200    0.7311510  
N     6.1443500   -0.3111980    1.9812570  
C     5.3449220   -0.3005030   -0.3570750  
C     5.6007740   -0.9172310   -1.5456080  
O     4.8119840   -0.7904810   -2.6415970  
C     6.7914140   -1.7873680   -1.7856430  
O     6.9387320   -2.2535670   -2.9182530  
C     7.7370690   -2.0484470   -0.6865440  
H     9.0005040   -2.1203790    2.0817540  
H     5.2831850   -1.2966810   -3.3428520  
H     8.5828780   -2.6952530   -0.8993800  
H     7.3753070   -0.7256120    3.7157330  
