60


C     3.4668020   -1.5898520   -1.9006790  
C     4.7003820   -2.1645360   -1.9512000  
C     5.4898940   -1.5844140   -0.8966400  
C     4.6767450   -0.6329520   -0.2349560  
N     3.4239250   -0.6394360   -0.8696330  
C     5.1193250    0.0719880    0.8888380  
C     6.4147020   -0.1618000    1.3264580  
O     6.8910590    0.5125240    2.4116360  
C     7.2490840   -1.0949610    0.6594910  
O     8.5069790   -1.2170760    1.2120700  
C     6.8002250   -1.8073140   -0.4387030  
H     5.0243200   -2.9039390   -2.6711050  
H     4.5122830    0.8010940    1.4095010  
H     7.8121830    0.2312010    2.5475580  
H     9.0402250   -1.8248880    0.6786350  
H     7.4462550   -2.5333220   -0.9279870  
H     2.6045630   -1.7161020   -2.5382570  
C    -0.7879600   -1.7467530   -0.2564190  
C     0.5644230   -1.8356670   -0.4850070  
C     1.0325080   -0.4831290   -0.4461660  
C    -0.1883610    0.3429290   -0.2116330  
N    -1.2486310   -0.4239750   -0.0843560  
C    -0.1695190    1.7887480   -0.1114950  
C     1.0837540    2.3404540   -0.1306250  
O     1.3189780    3.6314840    0.0816520  
C     2.3509740    1.5500320   -0.3865380  
O     3.3908850    2.1988060   -0.4682910  
C     2.2754880    0.0843980   -0.5383750  
H     1.1677100   -2.7147760   -0.6478740  
H     2.2822750    3.7604480   -0.0783450  
C    -3.9675520    1.5808180    2.2158890  
C    -4.5334050    2.7453850    1.8118980  
C    -3.6300610    3.3525590    0.8593120  
C    -2.4647230    2.4348490    0.7590490  
N    -2.7070090    1.4025640    1.6446030  
C    -1.3734400    2.6386380   -0.0442240  
C    -1.4571060    3.8003450   -0.9639770  
O    -0.6697010    3.9789810   -1.8767970  
C    -2.6293900    4.8313970   -0.7885100  
O    -2.6026780    5.8583780   -1.4488920  
C    -3.7007740    4.5077710    0.1458600  
H    -5.4859120    3.1441280    2.1288590  
H    -4.5265180    5.2065630    0.2376740  
H    -4.3521920    0.8354330    2.8995520  
H    -2.2800480    0.4946130    1.4815240  
C    -1.2976550   -4.1330400   -0.0372540  
C    -2.3598360   -4.9591280    0.0802660  
C    -3.5556630   -4.1446540    0.0503930  
C    -3.1021850   -2.7403880   -0.1046810  
N    -1.6925920   -2.7860770   -0.1419360  
C    -3.9514180   -1.6899400   -0.2125710  
C    -5.3936240   -1.9444340   -0.1133300  
O    -6.2174930   -1.0451250   -0.1544770  
C    -5.8863680   -3.4213060    0.0641910  
O    -7.0826110   -3.6483310    0.1409540  
C    -4.8694350   -4.4745410    0.1293580  
H    -2.3228530   -6.0337380    0.1883890  
H    -3.6174340   -0.6725820   -0.3597830  
H    -5.2085940   -5.5004350    0.2359190  
H    -0.2444380   -4.3713840   -0.0359640  
