62


C    -3.7242170    0.1705030   -1.4707170  
C    -3.1363680   -0.8464650   -0.7365280  
C    -4.2261630   -1.5942030   -0.1412490  
C    -5.4315880   -0.9741620   -0.5554540  
N    -5.0905370    0.0882970   -1.3707230  
C    -6.6970860   -1.4135130   -0.1474250  
C    -6.7482930   -2.5052680    0.7033980  
O    -7.9526980   -2.9810810    1.1321200  
C    -5.5516400   -3.1368350    1.1354230  
O    -5.7640020   -4.2104430    1.9807100  
C    -4.3057090   -2.6975590    0.7316460  
H    -5.7413880    0.7190040   -1.8126200  
H    -7.6174260   -0.9354720   -0.4667660  
H    -7.7714060   -3.7448510    1.7066670  
H    -4.9134710   -4.6174400    2.2019620  
H    -3.4078770   -3.2113900    1.0604310  
H    -3.2657960    0.9239960   -2.0957670  
C     0.0027640    2.1372600   -0.0892950  
C     1.0976690    1.2686990   -0.1148350  
C     0.6005570   -0.0464760   -0.3253850  
C    -0.8132580    0.0580060   -0.4183440  
N    -1.1367590    1.3824250   -0.2730970  
C    -1.6883810   -1.0383220   -0.5974670  
C    -1.0595760   -2.2877830   -0.6561760  
O    -1.8022650   -3.4127180   -0.8649970  
C     0.3456860   -2.4298220   -0.5467840  
O     0.7642660   -3.7361610   -0.6690860  
C     1.2121250   -1.3357430   -0.3931100  
H     2.1364250    1.5550890   -0.0675960  
H    -2.0585510    1.7972290   -0.3223800  
H    -1.1741950   -4.1489800   -0.9765700  
H     1.7326270   -3.7591960   -0.7926490  
C     2.8642730    5.0284680    1.5912130  
C     2.1982740    6.1803340    1.3238100  
C     0.9491620    5.8194570    0.6880860  
C     0.9510140    4.3458940    0.5888130  
N     2.1542540    3.9253830    1.1198590  
C    -0.0655220    3.5781920    0.0653390  
C    -1.2811670    4.3241260   -0.3212800  
O    -2.3297670    3.7799840   -0.6479020  
C    -1.2597800    5.8999170   -0.3136060  
O    -2.2370290    6.4831390   -0.7574710  
C    -0.0931850    6.5721190    0.2337020  
H     2.5319470    7.1834320    1.5459230  
H    -0.0972550    7.6566470    0.2696650  
H     3.8209090    4.8816640    2.0748300  
H     2.3207520    2.9720480    1.4087430  
C     2.6484810   -1.5084190   -0.3383380  
C     3.6635590   -0.6966940   -0.7754860  
C     4.9235270   -1.3293120   -0.4970290  
C     4.5971200   -2.6101430    0.1655820  
N     3.1975870   -2.7260350    0.1697770  
C     5.5140080   -3.4726680    0.6568380  
C     6.9344890   -3.1436270    0.4945550  
O     7.8265830   -3.8665900    0.9077120  
C     7.3057880   -1.8146060   -0.2563360  
O     8.4873470   -1.5360810   -0.4070810  
C     6.2174740   -0.9621680   -0.7231580  
H     3.5314060    0.2276740   -1.3187760  
H     5.2583450   -4.4066230    1.1485950  
H     6.4830780   -0.0353540   -1.2226440  
H     2.7563640   -3.1434810    0.9837700  
