60


C    -4.6343570   -0.3778420    0.0189350  
C    -5.3603820   -1.3634220    0.7011880  
C    -6.7059760   -1.2695110    0.2846750  
C    -6.7801780   -0.2045190   -0.6672170  
N    -5.5214130    0.3114100   -0.8063830  
C    -7.9778450    0.1655380   -1.2894680  
C    -9.1165500   -0.5467040   -0.9479270  
O   -10.3062540   -0.2334070   -1.5182260  
C    -9.0629970   -1.6159350    0.0028920  
O   -10.2876960   -2.2100000    0.2193940  
C    -7.8866070   -1.9800960    0.6143880  
H    -4.9295480   -2.0493220    1.4127540  
H    -5.2370900    1.0731590   -1.4057980  
H    -8.0444880    0.9715900   -2.0121730  
H   -10.9765810   -0.8378450   -1.1527640  
H   -10.1977080   -2.9210270    0.8713940  
H    -7.8624960   -2.7946560    1.3347110  
C    -1.4095900   -2.1221240    2.4274800  
C    -0.3376890   -1.4017180    2.0142030  
C    -0.8654010   -0.4751290    1.0235000  
C    -2.3156020   -0.7852420    0.9584750  
N    -2.6195360   -1.7479290    1.7845930  
C    -3.2366220   -0.0499330    0.0770450  
C    -2.6542900    0.9566940   -0.6655760  
O    -3.3620740    1.7317090   -1.5388380  
C    -1.2360080    1.2854360   -0.6401530  
O    -0.8116080    2.1667620   -1.4054110  
C    -0.3314170    0.5267860    0.2770680  
H     0.6806570   -1.4675750    2.3702040  
H    -2.6901140    2.3211130   -1.9489810  
H    -1.4394110   -2.9084390    3.1715400  
C     2.0119910   -0.1991110    0.1554110  
C     3.2815770    0.3064650    0.1684270  
C     3.1539590    1.7549120    0.3007910  
C     1.7018450    2.0423930    0.3395900  
N     1.0456910    0.7952390    0.2348760  
C     1.1815190    3.2744440    0.5301630  
C     2.1007030    4.4121930    0.6563960  
O     1.7069440    5.5549440    0.8142540  
C     3.6398230    4.1323300    0.5948260  
O     4.4224700    5.0618020    0.6977760  
C     4.0779720    2.7420230    0.4300250  
H     0.1201470    3.4807410    0.5700860  
H     5.1455480    2.5513350    0.4577950  
H     1.6984320   -1.2264270    0.0334490  
C     4.4903750   -0.4797050    0.0419840  
C     4.7254670   -1.7771920    0.4159540  
C     6.0725550   -2.1162620    0.0375690  
C     6.6342490   -0.9031640   -0.6054780  
N     5.6490960    0.0710160   -0.5258000  
C     7.8734850   -0.8269030   -1.1476100  
C     8.7360250   -2.0065660   -1.0742650  
O     9.8665320   -2.0296580   -1.5342820  
C     8.1756770   -3.2922300   -0.3625220  
O     8.8880410   -4.2819630   -0.2856280  
C     6.8135230   -3.2514150    0.1689390  
H     4.0387330   -2.4136800    0.9557840  
H     8.2661820    0.0667160   -1.6230820  
H     6.4305650   -4.1500530    0.6429790  
H     5.6340710    0.8877700   -1.1194700  
