62


C    -2.8007750    2.4785480   -0.0287820  
C    -4.0775370    2.4839460    0.4766000  
C    -4.4688550    1.1103420    0.6319730  
C    -3.3711880    0.3112110    0.2223160  
N    -2.3593630    1.1704060   -0.1673390  
C    -3.3949710   -1.0980220    0.2188090  
C    -4.5823550   -1.6960950    0.6487100  
O    -4.6670880   -3.0537910    0.7054210  
C    -5.6832520   -0.9121220    1.0737310  
O    -6.7691150   -1.6604820    1.4896740  
C    -5.6422750    0.4708630    1.0736860  
H    -4.6513750    3.3629250    0.7334380  
H    -1.5292010    0.9034370   -0.6744460  
H    -5.5860000   -3.2757130    0.9359930  
H    -7.5307070   -1.0772490    1.6231030  
H    -6.5029330    1.0469240    1.4072690  
C     0.7806960   -1.4068520    1.6425980  
C    -0.5349430   -1.1220430    1.4976980  
C    -1.0130290   -1.8477980    0.3373900  
C     0.1487490   -2.6031970   -0.1843920  
N     1.2265970   -2.2932170    0.6472800  
C     0.1098740   -3.4295830   -1.2604510  
C    -1.1614240   -3.5983320   -1.9513790  
O    -1.3078940   -4.3508200   -2.9028810  
C    -2.3992690   -2.7652260   -1.4535680  
O    -3.4299920   -2.8205090   -2.0974090  
C    -2.2478910   -1.9054840   -0.2479790  
H    -1.1292990   -0.4904930    2.1405800  
H     0.9701940   -3.9781270   -1.6274340  
H     1.4811800   -1.0663110    2.3928300  
C     3.0571870   -3.9424330    0.3273600  
C     2.5655560   -2.6782910    0.4700200  
C     3.6905340   -1.7592540    0.3766420  
C     4.8879750   -2.6059380    0.1689200  
N     4.4329930   -3.9116340    0.1388820  
C     6.1474400   -2.1177750    0.0387180  
C     6.3417310   -0.6694760    0.1010420  
O     7.4352300   -0.1390790   -0.0098270  
C     5.0758590    0.2381250    0.3229030  
O     5.2265050    1.4518570    0.3925250  
C     3.7673310   -0.4058220    0.4430390  
H     7.0205150   -2.7445940   -0.1132680  
H     2.9078660    0.2385380    0.5963660  
H     2.5261910   -4.8842520    0.3416020  
H     5.0101410   -4.7210480   -0.0282860  
C    -2.4286030    4.6558530   -1.1392040  
C    -1.3746330    5.4778010   -1.4194970  
C    -0.1955430    4.8651550   -0.8708880  
C    -0.6047850    3.6602500   -0.2473450  
N    -1.9853950    3.5399210   -0.4272890  
C     0.2963130    2.8191170    0.4171010  
C     1.6354820    3.1829600    0.4265120  
O     2.5322460    2.3819700    1.0743350  
C     2.0680140    4.3758440   -0.2087470  
O     3.4228680    4.6042510   -0.1253370  
C     1.1683380    5.2145120   -0.8456040  
H    -1.4271940    6.4086140   -1.9675720  
H    -0.0072980    1.9087890    0.9212550  
H     3.4471540    2.5993110    0.8021210  
H     3.6542930    5.3730440   -0.6673590  
H     1.5156500    6.1327990   -1.3153300  
H    -3.4735820    4.7331930   -1.4011870  
