60


C    -3.7840620    0.2642350   -0.4802620  
C    -4.2582920    1.5237720   -0.7867500  
C    -5.6772470    1.5142570   -0.5978450  
C    -6.0275450    0.2076820   -0.1651680  
N    -4.8590740   -0.5239430   -0.0760330  
C    -7.3468230   -0.1705450    0.1097920  
C    -8.3335610    0.7900260   -0.0500790  
O    -9.6367190    0.4740610    0.2000880  
C    -8.0016210    2.1065550   -0.4708020  
O    -9.0933420    2.9478840   -0.5761330  
C    -6.6979110    2.4769270   -0.7409120  
H    -3.6466630    2.3699240   -1.0702750  
H    -4.8157270   -1.5266170    0.0268270  
H    -7.6183610   -1.1685480    0.4381240  
H   -10.1650680    1.2734040    0.0327370  
H    -8.8015960    3.8198320   -0.8802250  
H    -6.4698970    3.4911030   -1.0635220  
C    -1.4721290    0.0810900   -1.4500940  
C    -2.4327070   -0.2657830   -0.5423380  
C    -1.8190060   -1.2536800    0.3460510  
C    -0.4308210   -1.4402780   -0.1316140  
N    -0.2674030   -0.5603760   -1.1875940  
C     0.4675250   -2.3381760    0.3741520  
C     0.0227070   -3.1265760    1.5487170  
O     0.7665670   -3.8705420    2.1601420  
C    -1.4436260   -2.9305490    2.0770280  
O    -1.8227750   -3.6044950    3.0212330  
C    -2.2973890   -1.9426200    1.4169660  
H    -3.2989090   -1.8031320    1.8104030  
H    -1.5548670    0.7581370   -2.2898000  
H     0.5118520   -0.6055250   -1.8273220  
C     3.9507550    0.4115400   -0.2392470  
C     2.7245270   -0.1472160    0.0821550  
C     2.7541470   -1.5317690   -0.2823960  
C     4.1039560   -1.7789590   -0.8410140  
N     4.7587620   -0.5678560   -0.8148020  
C     4.5576270   -2.9893150   -1.2571500  
C     3.6612450   -4.1335380   -1.1583110  
O     3.9854230   -5.2679190   -1.4739270  
C     2.1980220   -3.8901260   -0.6403890  
O     1.3952370   -4.8042010   -0.7073030  
C     1.8215710   -2.5373390   -0.1592570  
H     1.9206010    0.3376160    0.6100310  
H     5.5608410   -3.1499460   -1.6389290  
H     5.7431720   -0.4005480   -0.9853860  
C     1.9168070    4.2969890    0.6040330  
C     2.1853610    3.0034690    0.2566000  
C     3.6142010    2.8408860    0.2515530  
C     4.1687940    4.1657580    0.6116540  
N     3.0836230    4.9943220    0.8367420  
C     5.4885480    4.4714550    0.6997100  
C     6.4485650    3.4279690    0.3799630  
O     7.6570960    3.5834570    0.4335010  
C     5.8985250    2.0281460   -0.0727340  
O     6.7234400    1.2144030   -0.4689990  
C     4.4415950    1.7577870   -0.0158700  
H     1.4463760    2.2644190   -0.0054450  
H     5.8612270    5.4478090    0.9925080  
H     0.9592910    4.7908830    0.7033830  
H     3.1465110    5.9725240    1.0730570  
