62


C     4.7178920    2.1129360    2.1612720  
C     3.9588170    1.0155620    1.8434640  
C     4.6136220    0.3391610    0.7539600  
C     5.7884120    1.0835700    0.4656510  
N     5.8143600    2.1658270    1.3233870  
C     6.7207810    0.6974410   -0.5032830  
C     6.4653460   -0.4855140   -1.1763550  
O     7.3366880   -0.9447360   -2.1147860  
C     5.2959720   -1.2531680   -0.9162540  
O     5.1965390   -2.3813610   -1.6938710  
C     4.3333730   -0.8501150    0.0137510  
H     3.0522870    0.7139100    2.3476980  
H     6.5652020    2.8350980    1.3863030  
H     7.6235620    1.2612420   -0.7152970  
H     6.9678200   -1.8001840   -2.4103750  
H     4.8663690   -3.1043010   -1.1053940  
H     4.5705400    2.8647390    2.9238380  
C     0.1728060    0.5851630    0.1084740  
C    -0.4620410   -0.5913580    0.4256540  
C     0.5344100   -1.6218340    0.5140600  
C     1.8373060   -0.9679800    0.2395240  
N     1.5526340    0.3481410   -0.0042480  
C     3.0662020   -1.5931550    0.2243060  
C     3.0156750   -3.0439030    0.3860500  
O     3.9822460   -3.7884910    0.1996920  
C     1.6657910   -3.7463460    0.7905870  
O     1.6971080   -4.9360570    1.0678440  
C     0.4463040   -2.9532230    0.7895790  
H    -1.5201330   -0.7098550    0.5819840  
H    -0.4917470   -3.4479850    1.0198520  
H     2.2465960    1.0691760   -0.1439120  
C    -3.9857940    1.9692060   -0.1118600  
C    -3.8176520    3.3327900   -0.2426040  
C    -2.4114590    3.5329960   -0.2752610  
C    -1.8241380    2.1487900   -0.1300770  
N    -2.7589850    1.2491630   -0.0473540  
C    -0.3836170    1.9132650   -0.0954850  
C     0.3781560    3.0414750   -0.2723740  
O     1.7109790    3.0470550   -0.3010160  
C    -0.1906750    4.4408090   -0.4368550  
O     0.6532350    5.3372170   -0.5654290  
C    -1.6173540    4.6324590   -0.4226740  
H    -4.5752580    4.0939190   -0.3497750  
H     1.9506510    4.0025460   -0.4285220  
H    -1.9993660    5.6416840   -0.5333540  
C    -6.4042320    1.8811260    0.1908870  
C    -7.3756700    0.9362580    0.2646290  
C    -6.7505280   -0.3523990    0.0873730  
C    -5.3658470   -0.1321560   -0.0901870  
N    -5.1546340    1.2680470   -0.0152230  
C    -4.4750790   -1.1783870   -0.3372690  
C    -4.9903260   -2.4701070   -0.3636650  
O    -4.1481830   -3.5156380   -0.5857990  
C    -6.3722600   -2.7066150   -0.1672010  
O    -6.7300610   -4.0341320   -0.2238520  
C    -7.2554170   -1.6601940    0.0513210  
H    -8.4269160    1.1253350    0.4355070  
H    -3.4213630   -1.0160720   -0.5080770  
H    -4.6782130   -4.3313830   -0.5764000  
H    -7.6846340   -4.1261210   -0.0861050  
H    -8.3176540   -1.8522240    0.1856160  
H    -6.4624120    2.9520620    0.3033720  
