62


C     0.5893950    1.2088760   -0.1178440  
C     1.6983890    0.3543570   -0.0565680  
C     2.8614010    1.1565010   -0.0238460  
C     2.4300880    2.5181680   -0.0564580  
N     1.0641430    2.5156990   -0.1099630  
C     3.3250140    3.5946690   -0.0269200  
C     4.6745120    3.2902830    0.0325680  
O     5.5955600    4.2875930    0.0480040  
C     5.1268440    1.9350310    0.0721650  
O     6.4965770    1.8179050    0.1129290  
C     4.2527680    0.8545610    0.0514230  
H     1.6709950   -0.7207990    0.0137940  
H     0.4317010    3.3063180   -0.0833940  
H     3.0043270    4.6303260   -0.0544720  
H     6.4759280    3.8711280    0.0559130  
H     6.7360650    0.8806450    0.0053180  
C    -1.7332730   -2.4690020   -1.1023900  
C    -0.7450420   -1.5458330   -0.9566500  
C    -1.3517800   -0.3366030   -0.4492390  
C    -2.7873970   -0.6233940   -0.3234880  
N    -2.9522180   -1.9296950   -0.7155740  
C    -3.7703110    0.2710640    0.0643470  
C    -3.3043810    1.6097700    0.4211280  
O    -4.0017340    2.4566540    0.9560860  
C    -1.8048450    1.9800660    0.1593550  
O    -1.5114410    3.1669030    0.2188800  
C    -0.8172730    0.9088290   -0.1387940  
H     0.2883850   -1.6844310   -1.2309590  
H    -1.6827590   -3.4850870   -1.4688820  
H    -3.8343840   -2.4198360   -0.6918580  
C    -6.2801960   -3.0338640    1.8352320  
C    -5.1987240   -2.2845390    1.4913380  
C    -5.7393880   -1.1580560    0.7393670  
C    -7.2082140   -1.4039580    0.7438470  
N    -7.5164960   -2.5039190    1.3816240  
C    -8.1389570   -0.4894110    0.1359050  
C    -7.6369180    0.6175120   -0.4564510  
O    -8.3849160    1.5515770   -1.0669960  
C    -6.1558090    0.8721950   -0.5387050  
O    -5.7924400    1.8005590   -1.2519900  
C    -5.1912390   -0.0503620    0.1563710  
H    -4.1660300   -2.4507880    1.7637860  
H    -9.2027020   -0.6975680    0.1666370  
H    -7.7432450    2.1870290   -1.4536500  
H    -6.2917990   -3.9504240    2.4141120  
C     3.9125800   -2.6086860   -2.8261990  
C     3.8096010   -1.3814050   -2.2232440  
C     4.5052030   -1.4676730   -0.9691660  
C     5.0177870   -2.7884430   -0.8696810  
N     4.6387130   -3.4602700   -2.0138650  
C     5.7693820   -3.2354590    0.2242810  
C     6.0055590   -2.3295220    1.2450140  
O     6.7162070   -2.7111270    2.3448260  
C     5.5088320   -1.0015850    1.1658690  
O     5.8185580   -0.2254230    2.2652350  
C     4.7643350   -0.5424310    0.0771730  
H     3.3043270   -0.5150270   -2.6245580  
H     4.8711580   -4.4167500   -2.2303750  
H     6.1560690   -4.2464450    0.3025490  
H     6.7205500   -1.9558350    2.9587190  
H     5.2726550    0.5794180    2.2452020  
H     3.5311270   -2.9516420   -3.7776750  
