60


C    -5.2642660    2.1882530    0.5987590  
C    -5.2261100    0.8257610    0.3218810  
C    -6.5971030    0.4186150    0.0695280  
C    -7.3986170    1.5746870    0.2204960  
N    -6.5511670    2.6269050    0.5416270  
C    -8.7843030    1.5759600    0.0374770  
C    -9.3811610    0.3753000   -0.3156220  
O   -10.7248220    0.3188260   -0.5046770  
C    -8.5938300   -0.7944910   -0.4965180  
O    -9.3261020   -1.8981450   -0.8677340  
C    -7.2216490   -0.7856470   -0.3133610  
H    -6.8476400    3.5730740    0.7317270  
H    -9.3940930    2.4659960    0.1508890  
H   -10.9503750   -0.5903520   -0.7685230  
H    -8.7385120   -2.6471970   -1.0477880  
H    -6.6472270   -1.6890800   -0.5023280  
H    -4.4575340    2.8538370    0.8698620  
C    -4.0340650    0.0311070    0.3354130  
C    -2.7075420    0.4153140    0.1871520  
C    -1.8795770   -0.7312540    0.3083410  
C    -2.8030120   -1.8665460    0.5329570  
N    -4.0892810   -1.3475280    0.5070610  
C    -2.4325630   -3.1543450    0.7245090  
C    -1.0142760   -3.4723070    0.6375890  
O    -0.5732760   -4.5990220    0.7912380  
C    -0.0110780   -2.3134320    0.3019680  
O     1.1568530   -2.6489380    0.1141080  
C    -0.4975310   -0.9256080    0.2322100  
H    -2.3947710    1.4097420   -0.0846470  
H    -3.1337450   -3.9612350    0.9133520  
H    -4.8835830   -1.8206210    0.9124930  
C     0.4487630    0.1656050    0.0971020  
C     0.2919260    1.5287120    0.2781460  
C     1.5596030    2.1603390    0.0675780  
C     2.5122690    1.0734660   -0.2525060  
N     1.7794790   -0.0902080   -0.2475700  
C     3.8525600    1.2414560   -0.4895800  
C     4.3496320    2.6312390   -0.4524700  
O     5.5093380    2.9254790   -0.6972580  
C     3.3505970    3.7975560   -0.1017600  
O     3.7927680    4.9370640   -0.0399040  
C     1.9566710    3.4662460    0.1351400  
H    -0.6020450    2.0391040    0.5953110  
H     1.2736720    4.2759650    0.3732670  
H     2.1397640   -1.0382380   -0.2447320  
C     4.4582400   -0.9047350   -1.6706050  
C     4.7489490    0.1280810   -0.8230430  
C     6.0924780   -0.1483450   -0.2972630  
C     6.5302650   -1.4241890   -0.9172920  
N     5.5002600   -1.8172170   -1.7467380  
C     7.7170460   -2.0399880   -0.6787730  
C     8.6397520   -1.4228850    0.2644380  
O     9.7300270   -1.8984350    0.5468960  
C     8.1930350   -0.0814780    0.9506900  
O     8.9366710    0.4414120    1.7651760  
C     6.8893710    0.4944500    0.5926730  
H     8.0089630   -2.9725580   -1.1520940  
H     6.6189850    1.4388780    1.0487580  
H     3.5685700   -1.0579820   -2.2671430  
H     5.4860260   -2.6703120   -2.2833450  
