62


C     3.0852490   -1.2477250   -0.9567710  
C     3.3090880    0.0226780   -0.4379430  
C     4.7453410    0.1492030   -0.2681300  
C     5.3182650   -1.0673500   -0.7151890  
N     4.2777250   -1.8870460   -1.1222980  
C     6.6937720   -1.3185260   -0.6943920  
C     7.5187370   -0.3200250   -0.2003040  
O     8.8666810   -0.5117020   -0.1563870  
C     6.9660700    0.8981300    0.2752900  
O     7.9074660    1.7838500    0.7571990  
C     5.6033940    1.1403990    0.2502380  
H     4.3739020   -2.8250240   -1.4829690  
H     7.1264060   -2.2529230   -1.0363930  
H     9.2614640    0.2841480    0.2400840  
H     7.4674680    2.5635460    1.1270960  
H     5.2152300    2.0676290    0.6645940  
H     2.1620040   -1.7446780   -1.2228250  
C     2.2701930    0.9733330   -0.1464080  
C     0.9176860    0.7705890    0.0077270  
C     0.2769930    2.0268540    0.2519030  
C     1.3638700    3.0319780    0.2282140  
N     2.5502170    2.3354920    0.0453730  
C     1.1897230    4.3722980    0.3457550  
C    -0.1644190    4.8633250    0.5353660  
O    -0.4418200    6.0507000    0.6257040  
C    -1.3367830    3.8144800    0.6297520  
O    -2.4588840    4.2553640    0.8452840  
C    -1.0474010    2.3809940    0.4570940  
H     0.4463480   -0.1964000   -0.0142060  
H     2.0031620    5.0901880    0.3036870  
H     3.3720620    2.7723800   -0.3460670  
C    -1.9621410    0.1055750    0.9967680  
C    -2.1197870    1.3810050    0.5000100  
C    -3.4759980    1.4317270   -0.0307430  
C    -4.0511650    0.1508410    0.1505330  
N    -3.1090050   -0.6521890    0.8013560  
C    -5.3328320   -0.1847500   -0.2978170  
C    -6.0646240    0.8042830   -0.9362710  
O    -7.3254590    0.5387650   -1.3852760  
C    -5.5134040    2.0981130   -1.1175410  
O    -6.3616500    2.9826080   -1.7560450  
C    -4.2414890    2.4177120   -0.6826430  
H    -5.7620060   -1.1721340   -0.1684330  
H    -7.6670280    1.3628380   -1.7742440  
H    -5.9662830    3.8673150   -1.7464660  
H    -3.8529290    3.4220530   -0.8076050  
H    -1.1315770   -0.3203210    1.5384700  
C    -4.0979720   -2.7619030    1.6762870  
C    -3.1603800   -2.0379850    1.0003920  
C    -2.1789710   -2.9798010    0.4839000  
C    -2.6170220   -4.3206000    0.9377600  
N    -3.7971780   -4.1209040    1.6258550  
C    -1.9350660   -5.4659470    0.6782260  
C    -0.6984810   -5.3807600   -0.0971590  
O    -0.0180010   -6.3549400   -0.3781290  
C    -0.2260180   -3.9619140   -0.5878710  
O     0.8351370   -3.8648510   -1.1923420  
C    -1.0658700   -2.8098180   -0.2761800  
H    -2.2614650   -6.4459840    1.0118920  
H    -0.7630280   -1.8368620   -0.6459750  
H    -4.9775550   -2.4128380    2.1992670  
H    -4.3375860   -4.8472260    2.0689110  
