60


C    -6.8066670   -1.6705350    2.4200270  
C    -5.6456580   -1.1279290    1.9277220  
C    -5.9351530   -0.6118300    0.6138980  
C    -7.3118490   -0.8677930    0.3760650  
N    -7.8083310   -1.5268630    1.4832310  
C    -7.9786470   -0.4556750   -0.7824240  
C    -7.2370960    0.2589440   -1.7082780  
O    -7.8204230    0.7168570   -2.8472590  
C    -5.8557560    0.5320490   -1.5041250  
O    -5.2767800    1.2262870   -2.5373920  
C    -5.1661490    0.0762910   -0.3753050  
H    -4.7102820   -1.0616850    2.4647270  
H    -8.7708130   -1.7973730    1.6119220  
H    -9.0327330   -0.6444020   -0.9581550  
H    -7.1236130    1.2189060   -3.3132280  
H    -4.6774080    1.8991170   -2.1323760  
H    -7.0051780   -2.1416470    3.3723020  
C    -2.0872990   -2.8070890    0.7770260  
C    -0.9925460   -2.0047400    0.8323400  
C    -1.4144040   -0.6782920    0.4363510  
C    -2.8677730   -0.7745790    0.1576650  
N    -3.2015180   -2.0951850    0.3528120  
C    -3.7041630    0.2568760   -0.2123040  
C    -3.0274170    1.5267410   -0.4581480  
O    -3.5738260    2.5119090   -0.9571020  
C    -1.4968680    1.6830940   -0.1260880  
O    -0.9780670    2.7622790   -0.3448630  
C    -0.7351810    0.5069810    0.3402590  
H     0.0072990   -2.3008420    1.1101470  
H    -2.1769660   -3.8622350    0.9989370  
H    -4.1569200   -2.4223230    0.3905240  
C     3.0034760   -1.2950450   -1.2654840  
C     1.7136090   -0.9666160   -1.0193180  
C     1.7060670    0.0168590    0.0419560  
C     3.1263120    0.2415560    0.4016640  
N     3.8822470   -0.5659130   -0.4438930  
C     3.5484930    1.0840260    1.3852610  
C     2.5482450    1.8506810    2.1169870  
O     2.8339020    2.6531400    2.9925000  
C     1.0371540    1.6262230    1.7637150  
O     0.1909240    2.1818190    2.4391460  
C     0.6883520    0.6856760    0.6650840  
H     0.8474640   -1.3666010   -1.5240960  
H     4.5865190    1.1940500    1.6775340  
H     3.4144560   -1.9974070   -1.9744840  
C     7.0119260    2.4852310   -0.6888200  
C     8.0940470    1.6686220   -0.6545860  
C     7.6074070    0.3059080   -0.5893160  
C     6.1268300    0.4057470   -0.5796430  
N     5.8280660    1.7455590   -0.6714880  
C     5.2880850   -0.6731160   -0.4934280  
C     5.8941390   -2.0136080   -0.4792030  
O     5.2280030   -3.0363520   -0.4641930  
C     7.4638080   -2.1246620   -0.5089750  
O     7.9598260   -3.2391370   -0.4969260  
C     8.2474660   -0.8939620   -0.5619570  
H     9.1302190    1.9719080   -0.6836760  
H     9.3289360   -0.9826700   -0.5782960  
H     6.9637090    3.5647100   -0.7396100  
H     4.9068550    2.1346690   -0.5298040  
