60


C     0.7079880    4.1718600    0.8516760  
C    -0.0220250    3.1147770    0.3213210  
C    -1.3260080    3.6490350   -0.0279300  
C    -1.3122180    5.0189350    0.3269150  
N    -0.0597070    5.2971810    0.8560290  
C    -2.3997660    5.8738360    0.1249920  
C    -3.5350730    5.3335700   -0.4588310  
O    -4.6223200    6.1179780   -0.6754880  
C    -3.5643620    3.9659220   -0.8472870  
O    -4.7482630    3.5895480   -1.4360910  
C    -2.4814550    3.1278260   -0.6452340  
H     0.2303570    6.1932650    1.2189680  
H    -2.3836740    6.9238290    0.3973780  
H    -5.3060780    5.5685150   -1.0972640  
H    -4.7181050    2.6561180   -1.6939640  
H    -2.5220530    2.1006580   -0.9984820  
H     1.7093130    4.1748530    1.2576930  
C     0.4737750    1.7727720    0.2029460  
C     1.7625430    1.2984350    0.1258000  
C     1.7193670   -0.1297590    0.0968900  
C     0.2873390   -0.4986840    0.1394580  
N    -0.4151370    0.6806680    0.1571550  
C    -0.2142010   -1.7840370    0.1628300  
C     0.7940100   -2.8576650    0.2258870  
O     0.5147260   -4.0380980    0.3955770  
C     2.3119400   -2.4980960    0.0795380  
O     3.1140700   -3.4165750    0.1026360  
C     2.7074210   -1.0857320    0.0017760  
H     2.6527360    1.9052710    0.0622980  
H    -1.3648630    0.7334820    0.5020370  
C     5.7273790    1.2711390    2.3544050  
C     4.5530050    0.7157040    1.9665360  
C     4.8601600    0.0009020    0.7326410  
C     6.3237380    0.2430610    0.5338920  
N     6.8212200    0.9877970    1.4817150  
C     7.0456370   -0.3257330   -0.5734130  
C     6.3552440   -1.0972420   -1.4441940  
O     6.8956710   -1.6820060   -2.5238180  
C     4.8749200   -1.3346920   -1.2980310  
O     4.3133280   -1.9437240   -2.2014060  
C     4.1387780   -0.7740760   -0.1187410  
H     3.5943270    0.7654490    2.4621120  
H     8.1066950   -0.1333320   -0.6864280  
H     6.1532390   -2.1395400   -2.9760750  
H     5.9163590    1.8764830    3.2334900  
C    -1.6332030   -2.0910860    0.1525780  
C    -2.7165620   -1.3068150   -0.2040030  
C    -3.9061650   -2.0969960   -0.0578270  
C    -3.4555610   -3.4281520    0.4203350  
N    -2.0855460   -3.3500660    0.5392800  
C    -4.2879080   -4.4705400    0.6708930  
C    -5.7214600   -4.2817380    0.4630530  
O    -6.5447930   -5.1617240    0.6639150  
C    -6.2213470   -2.8777600   -0.0414140  
O    -7.4185760   -2.7034990   -0.2197170  
C    -5.2263910   -1.8345550   -0.2760940  
H    -2.6813940   -0.3184250   -0.6350160  
H    -3.9416530   -5.4387490    1.0185090  
H    -5.5846750   -0.8701480   -0.6245110  
H    -1.4343260   -4.1084670    0.7069630  
