62


C    -5.0043440    0.4478760    0.0395470  
C    -5.3869620   -0.5766570    0.8950530  
C    -6.8050550   -0.7244580    0.7908030  
C    -7.2507830    0.2420540   -0.1513690  
N    -6.1420400    0.9243100   -0.5960730  
C    -8.5997730    0.3925730   -0.4973950  
C    -9.5158360   -0.4458810    0.1177470  
O   -10.8442960   -0.3416100   -0.1819990  
C    -9.0882870   -1.4189040    1.0615610  
O   -10.1198840   -2.1785620    1.5844760  
C    -7.7571920   -1.5672750    1.4011280  
H    -4.7420060   -1.0973660    1.5896250  
H    -6.1381310    1.7573400   -1.1660650  
H    -8.9444090    1.1297200   -1.2152700  
H   -11.3115410   -1.0048080    0.3545260  
H    -9.7635890   -2.7964030    2.2395910  
H    -7.4555680   -2.3198200    2.1275090  
C    -1.0847890   -1.4842490    0.2293910  
C    -0.2776460   -0.3871360   -0.0507600  
C    -1.1894330    0.7293020   -0.2657780  
C    -2.5021230    0.2357200   -0.0706030  
N    -2.3939080   -1.1070860    0.2461060  
C    -3.6794330    1.0000990   -0.2359500  
C    -3.4746820    2.3095570   -0.6891590  
O    -4.5456890    3.1363770   -0.9230490  
C    -2.1752780    2.8165960   -0.9091890  
O    -2.1624430    4.1300540   -1.3453840  
C    -1.0374850    2.0594710   -0.7007210  
H    -3.1843840   -1.7312670    0.3133490  
H    -4.1820110    4.0014940   -1.1831930  
H    -1.2507300    4.4568600   -1.3524580  
H    -0.0546550    2.4863230   -0.8600260  
H    -0.7912480   -2.5057710    0.4052860  
C     2.3406650   -3.7676860   -0.9718530  
C     3.5720070   -3.2069860   -0.9067760  
C     3.3378920   -1.8063180   -0.5747170  
C     1.8607280   -1.6984720   -0.4622970  
N     1.2893940   -2.8462950   -0.7136130  
C     1.1758750   -0.4429870   -0.1188170  
C     2.0185950    0.6063240    0.1468990  
O     1.5873870    1.8240340    0.5656680  
C     3.4880650    0.5331810    0.0351020  
O     4.1338100    1.5562640    0.2997420  
C     4.1608450   -0.7374370   -0.3852020  
H     4.5291690   -3.6936330   -1.0281440  
H     2.4125680    2.3450820    0.6855270  
H     2.0850300   -4.8000080   -1.1786780  
C     6.1529100   -1.4260050   -1.7074360  
C     5.5954520   -0.7590770   -0.6452100  
C     6.7185540   -0.1672900    0.0967160  
C     7.9483780   -0.5663060   -0.6324350  
N     7.5252970   -1.3220850   -1.7137010  
C     9.2140190   -0.2365930   -0.2750900  
C     9.4057660    0.5607710    0.9326660  
O    10.5039940    0.9098520    1.3360380  
C     8.1256790    0.9711640    1.7430550  
O     8.2567860    1.6171950    2.7695020  
C     6.8070280    0.5628470    1.2364640  
H    10.0914270   -0.5449050   -0.8353300  
H     5.9378820    0.8918700    1.7914340  
H     5.6432530   -1.9601700   -2.4979420  
H     8.1302930   -1.6721940   -2.4409820  
