60


C     2.0870780    5.0206860    1.8968520  
C     0.9796030    5.3008160    1.1403580  
C     0.8629670    4.2510650    0.1683580  
C     1.9350560    3.3453980    0.4026660  
N     2.6442090    3.8266940    1.4822210  
C     2.1159410    2.1465930   -0.3396830  
C     1.2200480    1.9814210   -1.4153330  
O     1.3406350    0.9240820   -2.2713850  
C     0.1548700    2.8820980   -1.6606840  
O    -0.6369310    2.5307880   -2.7390800  
C    -0.0448290    4.0038090   -0.8776350  
H     0.3230640    6.1526850    1.2533640  
H     3.6052560    3.5446700    1.6366320  
H     0.6309010    1.0478330   -2.9313710  
H    -1.5687130    2.7553480   -2.5295820  
H    -0.8730910    4.6755790   -1.0841480  
H     2.5357700    5.5764720    2.7084350  
C     1.6535370   -2.2598480    0.0474550  
C     1.4661050   -0.8958340   -0.0828860  
C     2.7352320   -0.2486920    0.0425070  
C     3.7162030   -1.3327070    0.2789240  
N     3.0066690   -2.5096860    0.2685690  
C     5.0517430   -1.1489620    0.4530550  
C     5.5440640    0.2131590    0.4495470  
O     6.7232740    0.5146520    0.5607650  
C     4.4951230    1.3873160    0.3412430  
O     4.9134110    2.5130980    0.5880830  
C     3.0899800    1.0892000   -0.0062170  
H     0.5558530   -0.3994720   -0.3682460  
H     5.7582490   -1.9631350    0.5763470  
H     3.3726960   -3.4528950    0.3026930  
C    -2.7576680   -2.2938270    0.3835260  
C    -2.9565480   -3.6275960    0.1615690  
C    -1.6737310   -4.2429620   -0.0543930  
C    -0.6769530   -3.1607100    0.0430150  
N    -1.3881490   -1.9948110    0.2480110  
C     0.6919520   -3.3395100   -0.0273440  
C     1.1444350   -4.7438430   -0.1609720  
O     2.3193790   -5.0806820   -0.0871560  
C     0.0881920   -5.8793010   -0.4042840  
O     0.4983290   -7.0056350   -0.6398210  
C    -1.3198450   -5.5369250   -0.3039900  
H    -3.9144330   -4.1252840    0.1117400  
H    -2.0482790   -6.3342620   -0.4111490  
H    -0.9617120   -1.1739260    0.6588310  
C    -4.7743810   -1.5346310    1.6164790  
C    -3.7383870   -1.2875440    0.7496340  
C    -3.8931750    0.0929360    0.2997220  
C    -5.1033210    0.6089400    0.9900450  
N    -5.5839290   -0.4360840    1.7650600  
C    -5.6030130    1.8584730    0.8487480  
C    -4.9192620    2.7723540   -0.0642960  
O    -5.2797630    3.9214480   -0.2505220  
C    -3.6719970    2.2309450   -0.8448580  
O    -3.1459630    2.9864060   -1.6576760  
C    -3.2071050    0.8716670   -0.5852210  
H    -6.4871730    2.2149850    1.3674820  
H    -2.3376830    0.5211840   -1.1328770  
H    -4.9796840   -2.4455840    2.1631380  
H    -6.3730830   -0.3741450    2.3905700  
