62


C     4.9787880    0.3719680   -0.0278180  
C     5.4274480   -0.1538320   -1.2164280  
C     6.8505850   -0.3214920   -1.1222930  
C     7.2359520    0.1242560    0.1649740  
N     6.0952010    0.6062790    0.8047780  
C     8.5571130    0.0788370    0.6173600  
C     9.5154470   -0.4185710   -0.2553140  
O    10.8199210   -0.4888120    0.1373740  
C     9.1516250   -0.8495030   -1.5578830  
O    10.2160650   -1.3062740   -2.3108140  
C     7.8411970   -0.8041790   -1.9994690  
H     4.8115160   -0.3402830   -2.0853900  
H     6.0013290    0.5750740    1.8129450  
H     8.8558740    0.4161650    1.6046450  
H    11.3269230   -0.8507690   -0.6097740  
H     9.9018100   -1.5751740   -3.1866240  
H     7.5855950   -1.1435690   -3.0012890  
C     0.9783620   -1.5387890   -0.6162800  
C     2.3115550   -1.2532320   -0.6238310  
C     2.4874850    0.0028010    0.0547240  
C     1.2038140    0.4446740    0.4540630  
N     0.2744600   -0.5150010    0.0284200  
C     1.0070530    1.5981310    1.2184770  
C     2.1319140    2.3351510    1.5563480  
O     1.9950410    3.4811930    2.2815930  
C     3.4250200    1.9245740    1.1519150  
O     4.4307490    2.7793440    1.5532640  
C     3.6348410    0.7627910    0.4000560  
H     3.0863130   -1.8632910   -1.0645980  
H     0.0302250    1.9483140    1.5261740  
H     2.8807810    3.8770890    2.3586110  
H     5.2555390    2.5365350    1.0934820  
H     0.4356710   -2.3605300   -1.0589970  
C    -2.4612930   -3.6438560    1.4013060  
C    -1.3535660   -2.9233380    1.0852690  
C    -1.8004950   -1.6135820    0.6633880  
C    -3.2687540   -1.6204870    0.7700690  
N    -3.6043740   -2.8717280    1.2414660  
C    -4.1254540   -0.5806410    0.4617630  
C    -3.4687940    0.6401880   -0.0244220  
O    -4.0626680    1.6718760   -0.2961820  
C    -1.9007530    0.6672250   -0.2013500  
O    -1.4071690    1.6481000   -0.7251540  
C    -1.1110450   -0.5068300    0.2261710  
H    -0.3293270   -3.2552070    1.1560500  
H    -2.5433760   -4.6613520    1.7589670  
H    -4.5544010   -3.2120830    1.2757090  
C    -6.2463700   -1.3621940    1.6169440  
C    -5.5649630   -0.6564250    0.6561420  
C    -6.6517320   -0.0557490   -0.1645730  
C    -7.9023880   -0.5445110    0.4749670  
N    -7.6504740   -1.2937140    1.5178550  
C    -9.2043770   -0.1981340   -0.0271760  
C    -9.2712110    0.5858680   -1.1302250  
O   -10.4160240    0.9796010   -1.7126040  
C    -8.0302710    1.0846270   -1.8081700  
O    -8.1644360    1.7832390   -2.8118500  
C    -6.7017780    0.7295170   -1.2573450  
H   -10.0918670   -0.5701730    0.4726600  
H   -10.1408260    1.5305120   -2.4782490  
H    -5.8354260    1.1504770   -1.7519980  
H    -5.8216000   -1.9003040    2.4568670  
