62


C     3.5209410   -1.2846390   -1.1378450  
C     4.0335390   -0.1048840   -0.6184230  
C     5.1644160   -0.4910500    0.2060590  
C     5.2628890   -1.9036900    0.1447090  
N     4.2539690   -2.3544050   -0.6860760  
C     6.2305070   -2.6362370    0.8441440  
C     7.1258710   -1.9233090    1.6239950  
O     8.0990420   -2.5771530    2.3205260  
C     7.0435290   -0.5070950    1.7006130  
O     8.0054540    0.0634780    2.5136670  
C     6.0831990    0.2084590    1.0139260  
H     4.1035280   -3.3148440   -0.9539250  
H     6.3033190   -3.7175990    0.7898540  
H     8.6352380   -1.8973300    2.7648580  
H     7.9993470    1.0244100    2.3891610  
H     6.0639780    1.2916900    1.0644580  
H     2.7283770   -1.4277830   -1.8587430  
C    -0.1348080    1.2231950   -0.8021170  
C     0.0714910    2.5447470   -1.1103790  
C     1.4880750    2.7688740   -1.2081810  
C     2.1257800    1.4644200   -0.9445340  
N     1.0910190    0.5489790   -0.7692710  
C     3.4715900    1.2258370   -0.8663760  
C     4.3342840    2.4111080   -1.0912900  
O     5.5525530    2.3631520   -1.0404280  
C     3.6711870    3.8046140   -1.4246190  
O     4.4156290    4.7591890   -1.6078360  
C     2.2247090    3.8894210   -1.4696060  
H    -0.6995760    3.2795890   -1.2950740  
H     1.7732940    4.8539770   -1.6793810  
H     1.2413490   -0.3019970   -0.2416940  
C    -2.5258840    1.0868660   -0.0707780  
C    -1.3719560    0.5185430   -0.5425280  
C    -1.6541930   -0.9026610   -0.7129600  
C    -3.0604320   -1.0968130   -0.2832150  
N    -3.5466870    0.1625100    0.0716120  
C    -3.6983330   -2.2941390   -0.2598050  
C    -2.9675090   -3.4812790   -0.7062400  
O    -3.4589730   -4.5983140   -0.7126110  
C    -1.4921140   -3.2933080   -1.2068080  
O    -0.8693750   -4.2643680   -1.6062100  
C    -0.9142630   -1.9466970   -1.1708110  
H    -4.7184770   -2.4177250    0.0863330  
H     0.1030460   -1.8356190   -1.5291940  
H    -2.7047960    2.1154200    0.2083670  
C    -7.5464750   -0.4441430   -1.6500890  
C    -8.2544180    0.0658630   -0.5951880  
C    -7.3011360    0.4708560    0.3993180  
C    -6.0144300    0.1746790   -0.1236310  
N    -6.1910010   -0.3721680   -1.3749770  
C    -4.8377280    0.4501440    0.5980570  
C    -4.9675930    1.0383820    1.8553730  
O    -3.8522730    1.3272730    2.5833850  
C    -6.2499740    1.3493930    2.3729400  
O    -6.2039650    1.9367230    3.6207480  
C    -7.4064770    1.0725800    1.6683030  
H    -9.3303670    0.1480390   -0.5313620  
H    -5.4569860   -0.7381070   -1.9611750  
H    -4.1522130    1.7049910    3.4294800  
H    -7.1019800    2.0439550    3.9678160  
H    -8.3785310    1.3234090    2.0869190  
H    -7.8900820   -0.8569780   -2.5877400  
