60


C     4.4750440    0.4449890    0.0500410  
C     4.0170710   -0.8025780   -0.4065920  
C     5.1072030   -1.6999730   -0.3782750  
C     6.2390760   -0.9684100    0.1023270  
N     5.8262590    0.3104270    0.3495940  
C     7.5019940   -1.5524620    0.2536410  
C     7.6289110   -2.8901720   -0.0851280  
O     8.8310940   -3.5104430    0.0398040  
C     6.5096260   -3.6373830   -0.5689570  
O     6.8147180   -4.9520230   -0.8569670  
C     5.2670300   -3.0653450   -0.7181220  
H     3.0239520   -1.0193230   -0.7677280  
H     6.3791480    1.1107380    0.6343080  
H     8.3647480   -1.0041460    0.6161290  
H     8.7155180   -4.4331110   -0.2479860  
H     6.0246770   -5.4047090   -1.1876340  
H     4.4271780   -3.6501610   -1.0871270  
C     0.1426120    1.6164940    0.0380230  
C     1.3390550    0.9184510    0.0954430  
C     2.4072250    1.8577840    0.1352930  
C     1.7790190    3.1934540    0.1220340  
N     0.4263360    2.9845880    0.0363960  
C     2.4416470    4.3850650    0.1802710  
C     3.8774110    4.3560940    0.3009740  
O     4.5916330    5.3488600    0.3536400  
C     4.5836480    2.9513590    0.3860770  
O     5.7854270    2.9541570    0.6279820  
C     3.7948230    1.7043100    0.1831950  
H     1.3934660   -0.1542460    0.1433400  
H     1.9392570    5.3460890    0.1424710  
H    -0.2865170    3.6993840    0.0426940  
C    -1.3866400   -2.5055360   -0.0833040  
C    -2.7228720   -2.2996710   -0.0866410  
C    -2.8894420   -0.8537880   -0.0524540  
C    -1.4933370   -0.3249590   -0.0283530  
N    -0.6272500   -1.2963800   -0.0565870  
C    -1.2081990    1.1142090   -0.0059110  
C    -2.3196380    1.9254510   -0.0249160  
O    -2.2612920    3.2777080    0.0066340  
C    -3.7123370    1.4233180   -0.0524300  
O    -4.6138810    2.2697520   -0.0099880  
C    -3.9738470   -0.0390080   -0.1009040  
H    -3.5141470   -3.0336430   -0.0913020  
H    -3.2076450    3.5601970    0.0079770  
H    -0.8522240   -3.4474380   -0.0976880  
C    -6.3226870   -2.6285180    2.5860810  
C    -7.5445300   -2.6091390    2.0078590  
C    -7.3912620   -1.7714580    0.8224150  
C    -5.9488920   -1.3586800    0.8527960  
N    -5.3352400   -1.8608370    1.8819610  
C    -5.3782200   -0.4892910   -0.1649890  
C    -6.2206720   -0.0879850   -1.1585910  
O    -5.8406490    0.6678550   -2.1930580  
C    -7.6724490   -0.4960400   -1.2102010  
O    -8.3399190   -0.0767690   -2.1525400  
C    -8.2227570   -1.3623710   -0.1547830  
H    -8.4513040   -3.0972930    2.3365780  
H    -6.6524490    0.8076900   -2.7309870  
H    -9.2735890   -1.6263990   -0.2236450  
H    -6.0195580   -3.1402590    3.4914880  
