60


C     2.7655100   -1.1991110    1.2685860  
C     1.8389770   -1.8916680    0.4993340  
C     2.4945790   -3.1233590    0.0974820  
C     3.8013580   -3.0964350    0.6445870  
N     3.9300160   -1.9173620    1.3561400  
C     4.7401350   -4.1153780    0.4406090  
C     4.3469980   -5.1947480   -0.3331310  
O     5.2097430   -6.2242180   -0.5585300  
C     3.0411610   -5.2412090   -0.8925500  
O     2.7956610   -6.3795040   -1.6354460  
C     2.1236990   -4.2288360   -0.6942370  
H     4.7357700   -1.6489180    1.9003930  
H     5.7380150   -4.0905240    0.8659870  
H     4.7304230   -6.8897630   -1.0826140  
H     1.8484350   -6.4384200   -1.8312570  
H     1.1240000   -4.3062960   -1.1076760  
H     2.6434570   -0.2838960    1.8303320  
C     0.4665660    2.1093350   -0.5326670  
C    -0.8772820    1.8790840   -0.6653470  
C    -1.1033850    0.4802850   -0.4087330  
C     0.2142020   -0.0947890   -0.0955550  
N     1.1337340    0.9578250   -0.1406160  
C     0.4977010   -1.4060070    0.1750600  
C    -0.6798600   -2.3015590    0.1622340  
O    -0.6104860   -3.4970020    0.3889740  
C    -2.1108810   -1.7078390   -0.1374480  
O    -3.0424490   -2.4981170   -0.1661560  
C    -2.2589280   -0.2728550   -0.4086480  
H    -1.6376560    2.6245980   -0.8417270  
H     2.1123300    0.7789120   -0.3336920  
C     0.7358030    4.2994960   -1.6233060  
C     1.6052450    5.3322200   -1.6546980  
C     2.6884460    5.0243220   -0.7422940  
C     2.3718380    3.7011590   -0.1514730  
N     1.1676790    3.2877780   -0.7413350  
C     3.1292680    3.0997810    0.7992240  
C     4.3632760    3.7597020    1.2332490  
O     5.1055580    3.2707140    2.0692730  
C     4.7329480    5.1413390    0.5913110  
O     5.7625730    5.6996680    0.9295850  
C     3.8059380    5.7104460   -0.3943530  
H     1.5178340    6.2217260   -2.2617620  
H     2.8689960    2.1644280    1.2778040  
H     4.0488690    6.6829100   -0.8114470  
H    -0.1780570    4.1456100   -2.1788760  
C    -3.8572130    1.0810300   -1.8172660  
C    -3.5759010    0.2718370   -0.7531580  
C    -4.8446810    0.0913840   -0.0367550  
C    -5.8625250    0.8717320   -0.7823850  
N    -5.1940170    1.4560010   -1.8412060  
C    -7.1741790    0.9622810   -0.4446300  
C    -7.6305390    0.2634660    0.7511590  
O    -8.7887710    0.2866310    1.1396420  
C    -6.5655050   -0.5452760    1.5769960  
O    -6.9166240   -1.1146200    2.5974380  
C    -5.1790000   -0.5828480    1.0913960  
H    -7.8986100    1.5362680   -1.0144880  
H    -4.4692370   -1.1782370    1.6534850  
H    -3.1904150    1.4185420   -2.5996650  
H    -5.6402950    1.9630570   -2.5894750  
