62


C     5.3658040   -1.0486230   -2.7280480  
C     4.8412680   -0.8103490   -1.4783800  
C     5.8656600   -1.1030100   -0.5094780  
C     7.0012960   -1.5207860   -1.2465300  
N     6.6626500   -1.4885670   -2.5870300  
C     8.2043110   -1.8894730   -0.6306740  
C     8.2571390   -1.8313940    0.7524850  
O     9.4043470   -2.1721720    1.4031220  
C     7.1236730   -1.4163000    1.5060960  
O     7.3354430   -1.4183380    2.8694530  
C     5.9368480   -1.0572340    0.8972120  
H     7.2811830   -1.7197770   -3.3486870  
H     9.0795020   -2.2055640   -1.1888500  
H     9.2486930   -2.0374510    2.3541930  
H     6.5820080   -1.0067320    3.3184190  
H     5.0825720   -0.7412770    1.4907180  
H     4.9111440   -0.9322270   -3.7011860  
C     2.3647690   -1.0996920   -1.5566290  
C     1.2394620   -0.4220490   -1.2024970  
C     1.6558440    0.8085380   -0.5746760  
C     3.1338080    0.8034080   -0.6171860  
N     3.5167150   -0.3970330   -1.2100580  
C     3.9336230    1.8192410   -0.1943840  
C     3.2970820    3.0021730    0.3621220  
O     3.9161410    3.9973900    0.7102960  
C     1.7376360    2.9852310    0.5498670  
O     1.2368970    3.8554410    1.2364710  
C     0.9488300    1.8662830   -0.0414570  
H     0.2240070   -0.7408770   -1.3777320  
H     5.0139980    1.7973700   -0.2852090  
H     2.4692660   -2.0610640   -2.0416460  
C    -0.5003600    1.9129410    0.0157540  
C    -1.3861280    0.8830670    0.2250440  
C    -2.7056770    1.4672160    0.1572630  
C    -2.4436020    2.8955510   -0.1414980  
N    -1.1703680    3.1632080   -0.2065390  
C    -3.5136970    3.8416480   -0.3477680  
C    -4.7788780    3.3779960   -0.2634160  
O    -5.8763630    4.1354690   -0.4523570  
C    -5.0842660    1.9380880    0.0491520  
O    -6.2772950    1.6300290    0.0886610  
C    -3.9779290    0.9688660    0.3063760  
H    -1.1493320   -0.1505060    0.4279100  
H    -3.2876410    4.8791600   -0.5669070  
H    -6.6330630    3.5250470   -0.3124640  
C    -3.5011910   -1.0359160    1.7119920  
C    -4.2743770   -0.3819360    0.7600610  
C    -5.3202420   -1.3200430    0.3822570  
C    -5.1001660   -2.5052390    1.1266190  
N    -3.9901220   -2.2926210    1.9294880  
C    -5.8917110   -3.6520190    1.0026420  
C    -6.9389940   -3.6065500    0.0962480  
O    -7.7503600   -4.6893400   -0.0647920  
C    -7.1733080   -2.4335900   -0.6682240  
O    -8.2489060   -2.5373030   -1.5284950  
C    -6.3849370   -1.3059310   -0.5402120  
H    -3.6439030   -2.9372010    2.6237710  
H    -5.7159600   -4.5543030    1.5792890  
H    -8.4236850   -4.4480060   -0.7245700  
H    -8.4076140   -1.6802040   -1.9513420  
H    -6.6061950   -0.4154040   -1.1181890  
H    -2.6658770   -0.6559640    2.2817720  
