62


C     4.6377930   -0.1916800   -0.0197160  
C     5.4052140   -1.2586040   -0.4489660  
C     6.7670010   -0.9720400   -0.1289660  
C     6.7849090    0.2986440    0.5072310  
N     5.4862240    0.7657190    0.5340380  
C     7.9619790    0.8932940    0.9764880  
C     9.1454380    0.1961560    0.7915540  
O    10.3206100    0.7262300    1.2294420  
C     9.1498600   -1.0716090    0.1428780  
O    10.4074260   -1.6295480    0.0321420  
C     7.9871720   -1.6562080   -0.3171740  
H     5.0318320   -2.1221320   -0.9829600  
H     5.1703730    1.5441180    1.0927220  
H     7.9807050    1.8619530    1.4649710  
H    11.0268480    0.0972310    1.0007600  
H    10.3474250   -2.4819030   -0.4241020  
H     8.0139990   -2.6269030   -0.8079210  
C     2.2632510   -0.9839860   -0.0392760  
C     3.2041180    0.0005670   -0.0844060  
C     2.4767490    1.2604900   -0.2301380  
C     1.0340020    0.9218050   -0.2486930  
N     0.9583380   -0.4857610   -0.1512000  
C     0.0500180    1.8478180   -0.3423300  
C     0.4233420    3.2590780   -0.4777440  
O    -0.4088470    4.1451870   -0.5935160  
C     1.9422650    3.6315620   -0.4929680  
O     2.2758540    4.7995520   -0.6082200  
C     2.9121450    2.5389700   -0.3644950  
H    -0.9980170    1.5850210   -0.3345300  
H     3.9641070    2.8011230   -0.4027670  
H     2.4171990   -2.0455190    0.0801730  
C    -0.1570160   -1.2967870   -0.1534820  
C    -0.2094430   -2.6649900   -0.0266480  
C    -1.6039640   -2.9830100   -0.1063650  
C    -2.2917330   -1.6572530   -0.2909980  
N    -1.4225870   -0.6835960   -0.3118870  
C    -3.7375330   -1.5188010   -0.4149720  
C    -4.4213370   -2.7043990   -0.3699280  
O    -5.7556110   -2.8024910   -0.5068770  
C    -3.7656290   -4.0448480   -0.1788900  
O    -4.5145680   -5.0299830   -0.1630450  
C    -2.3183930   -4.1347270   -0.0448030  
H     0.5975100   -3.3684600    0.1122340  
H    -5.9318120   -3.7718730   -0.4456310  
H    -1.8824000   -5.1191400    0.0901300  
C    -3.7775880    0.8558780   -1.2645270  
C    -4.3493480   -0.1975120   -0.5696820  
C    -5.6023670    0.3066550   -0.0373510  
C    -5.7148050    1.6583230   -0.4515550  
N    -4.5961710    1.9525520   -1.2098150  
C    -6.7865420    2.4842390   -0.0952160  
C    -7.7748880    1.9365920    0.7070230  
O    -8.8463090    2.6929490    1.0850820  
C    -7.6788360    0.5895730    1.1412600  
O    -8.7347530    0.1838180    1.9377800  
C    -6.6162020   -0.2209180    0.7877440  
H    -4.3736350    2.8578000   -1.5949920  
H    -6.8635600    3.5181270   -0.4158270  
H    -9.4166700    2.1262510    1.6326030  
H    -8.6257910   -0.7525910    2.1598340  
H    -6.5799570   -1.2516010    1.1240180  
H    -2.8470050    0.8867470   -1.8082880  
