60


C    -4.7324520   -0.1615520    0.0600950  
C    -5.6530590    0.1437540    1.0747230  
C    -6.8919580   -0.4391040    0.7267640  
C    -6.7014890   -1.1070320   -0.5228610  
N    -5.3987820   -0.9226290   -0.8939670  
C    -7.7309460   -1.8015170   -1.1693360  
C    -8.9679970   -1.8266600   -0.5467990  
O   -10.0033140   -2.4853200   -1.1247330  
C    -9.1774240   -1.1665580    0.7062430  
O   -10.4654080   -1.2950260    1.1780430  
C    -8.1669460   -0.4831190    1.3420500  
H    -5.4320950    0.6686620    1.9911030  
H    -4.9142000   -1.3190400   -1.6893060  
H    -7.5941510   -2.3105180   -2.1171910  
H   -10.7768200   -2.3906590   -0.5411230  
H   -10.5536360   -0.8345110    2.0258990  
H    -8.3454680    0.0128200    2.2935610  
C    -2.0705650    2.8006670    2.0861650  
C    -3.1501640    2.1274490    1.6121090  
C    -2.6743370    1.1250800    0.6839250  
C    -1.2167520    1.2873910    0.6391210  
N    -0.9017330    2.2768380    1.5344080  
C    -0.3564050    0.5560360   -0.1590260  
C    -0.9277210   -0.4773800   -0.9907460  
O    -0.2742280   -1.2639460   -1.6658540  
C    -2.4931530   -0.6015270   -1.0324210  
O    -2.9528010   -1.3353950   -1.8947790  
C    -3.3331130    0.1508230   -0.0561890  
H    -4.1782500    2.3416360    1.8537130  
H    -2.0158370    3.6271640    2.7807270  
H     0.0123170    2.6994400    1.6109890  
C     1.9593840   -0.3074950   -0.0272880  
C     3.2601380    0.1323080   -0.0804190  
C     3.1920660    1.5837450   -0.2684440  
C     1.7521870    1.9220460   -0.3420800  
N     1.0489350    0.7291140   -0.1470450  
C     1.2623870    3.1670830   -0.5825990  
C     2.2120400    4.2685020   -0.7387140  
O     1.8613080    5.4180120   -0.9555470  
C     3.7405900    3.9409160   -0.6105660  
O     4.5482140    4.8511760   -0.6973830  
C     4.1421130    2.5435720   -0.3967160  
H     0.2075280    3.3816900   -0.7124190  
H     5.1973980    2.3042780   -0.3479850  
H     1.5902880   -1.3142680    0.0960930  
C     4.4307670   -0.6929180    0.0372660  
C     4.5218210   -2.0636570    0.1230330  
C     5.9194160   -2.3582680    0.2306920  
C     6.5864290   -1.0093150    0.1952900  
N     5.7169730   -0.0483420    0.0819910  
C     8.0156600   -0.8698340    0.2807110  
C     8.7450740   -2.0048330    0.3920650  
O    10.0787050   -2.0409980    0.4807910  
C     8.1027330   -3.3820120    0.4288460  
O     8.8719410   -4.3407750    0.5344140  
C     6.6537990   -3.4976740    0.3418720  
H     3.7167940   -2.7849440    0.0955480  
H     8.4725600    0.1130900    0.2534970  
H    10.3000130   -2.9994460    0.5484180  
H     6.2277370   -4.4955660    0.3705560  
