60


C     4.6587080   -0.0768450   -0.1175690  
C     5.4041170   -0.7485280   -1.0867000  
C     6.7369580   -0.8441600   -0.6129180  
C     6.7749720   -0.2138700    0.6670870  
N     5.5120450    0.2380470    0.9398570  
C     7.9477800   -0.1263980    1.4284070  
C     9.0982560   -0.6814710    0.8921960  
O    10.2680130   -0.6261260    1.5872070  
C     9.0799010   -1.3155770   -0.3861030  
O    10.3104570   -1.8146990   -0.7697450  
C     7.9272380   -1.4022320   -1.1351740  
H     5.0013550   -1.1117870   -2.0184830  
H     5.2058360    0.7274190    1.7680960  
H     7.9848970    0.3513660    2.4017820  
H    10.9470870   -1.0635810    1.0445590  
H    10.2342720   -2.2233190   -1.6446250  
H     7.9335300   -1.8897730   -2.1079060  
C     1.4917590   -0.7410910   -3.0969760  
C     0.4186060   -0.1935830   -2.4865610  
C     0.9147630    0.2972850   -1.2059680  
C     2.3671910   -0.0541290   -1.2150450  
N     2.6914540   -0.6533500   -2.3225650  
C     3.2606980    0.2822520   -0.0982380  
C     2.6539560    0.9487170    0.9393830  
O     3.3167300    1.3265970    2.0690060  
C     1.2273650    1.3038530    0.9764420  
O     0.7960410    1.8512580    1.9994200  
C     0.3449560    0.9784950   -0.1854650  
H    -0.5988920   -0.1347140   -2.8426750  
H     2.6228960    1.7513920    2.6239750  
H     1.5421140   -1.2181900   -4.0680600  
C    -3.3247900   -1.3993430   -0.2829840  
C    -4.3205460   -0.4687940   -0.1437070  
C    -3.5830110    0.8194270   -0.0701940  
C    -2.1500150    0.4256270   -0.1742460  
N    -2.0179200   -0.8667890   -0.3062270  
C    -1.0701600    1.3942030   -0.1192380  
C    -1.4327790    2.6991120    0.0399840  
O    -0.5623520    3.7140620    0.0699340  
C    -2.8676880    3.1211990    0.1589160  
O    -3.0965020    4.3196760    0.3078190  
C    -3.9399230    2.1065670    0.0914700  
H    -1.1052260    4.5222670    0.2083940  
H    -4.9622940    2.4586270    0.1442110  
H    -3.4421250   -2.4677590   -0.4244450  
C    -6.4920100   -3.7277510    1.8180740  
C    -7.7659110   -3.3880080    1.4956270  
C    -7.7014370   -2.1729880    0.7119300  
C    -6.2656970   -1.8314120    0.5956660  
N    -5.5853070   -2.8320710    1.2580170  
C    -5.7524020   -0.7184690   -0.0315160  
C    -6.7528870    0.1937750   -0.6261930  
O    -6.4550070    1.2337190   -1.1916740  
C    -8.2825590   -0.1797650   -0.5496780  
O    -9.0847870    0.5787330   -1.0703660  
C    -8.6694290   -1.3979680    0.1501600  
H    -8.6642560   -3.9210590    1.7705240  
H    -9.7264130   -1.6363690    0.2136290  
H    -6.1280660   -4.5623490    2.4024950  
H    -4.6032490   -2.7775610    1.4869380  
