64


C     4.3532990   -0.9431700   -1.4074210  
C     4.6432990    0.1261730   -0.5773040  
C     5.9551580   -0.1427630   -0.0187340  
C     6.3909160   -1.3798900   -0.5570890  
N     5.3976470   -1.8326030   -1.4057010  
C     7.6110010   -1.9764260   -0.2190030  
C     8.4150990   -1.3113600    0.6925960  
O     9.6177430   -1.8428880    1.0590800  
C     7.9943610   -0.0770890    1.2520150  
O     8.8980160    0.4650880    2.1481090  
C     6.7874750    0.5063720    0.9154050  
H     5.4220080   -2.6977320   -1.9225460  
H     7.9381670   -2.9237810   -0.6352880  
H    10.0207800   -1.2255770    1.6937600  
H     8.5676730    1.3217770    2.4564270  
H     6.5008060    1.4590440    1.3481090  
H     3.4774990   -1.1216230   -2.0119620  
C     0.2497120    0.2469270   -0.2584720  
C     0.0480830    1.5945020   -0.0613250  
C     1.3402760    2.2074200   -0.0547520  
C     2.3075150    1.0807000   -0.2746480  
N     1.6621770   -0.0435430   -0.3759690  
C     3.7513660    1.2652010   -0.3428650  
C     4.1588240    2.5612320   -0.1815300  
O     5.4423410    2.9547730   -0.2419830  
C     3.2185020    3.7137970    0.0623840  
O     3.7392960    4.8302890    0.1845590  
C     1.7853440    3.4795420    0.1192590  
H    -0.8820470    2.1085990    0.1156750  
H     5.3975220    3.9320800   -0.1048540  
H     1.1379690    4.3326190    0.2939820  
C    -4.2476400   -0.0415610   -0.5877100  
C    -2.9564350    0.4373520   -0.5129880  
C    -2.0861720   -0.6969230   -0.4353590  
C    -2.9148910   -1.8450220   -0.4641140  
N    -4.2286200   -1.4193770   -0.5414520  
C    -2.4241210   -3.1540950   -0.4293480  
C    -1.0506140   -3.3175540   -0.3841280  
O    -0.5117940   -4.5677570   -0.3653240  
C    -0.1746770   -2.2004300   -0.3519510  
O     1.1322060   -2.5523120   -0.2978840  
C    -0.6622950   -0.8646040   -0.3512730  
H    -2.6999450    1.4837410   -0.5094510  
H    -5.0306460   -2.0066010   -0.7142770  
H    -3.0713670   -4.0250980   -0.4457880  
H     0.4543160   -4.4467750   -0.3129560  
H     1.6736950   -1.7043730   -0.3122900  
C    -5.6304860    1.7479750   -1.5812730  
C    -6.9138720    2.2025030   -1.4816730  
C    -7.5912880    1.3677570   -0.5275200  
C    -6.6522420    0.4112180   -0.0670840  
N    -5.4475900    0.6537670   -0.7331200  
C    -6.9664150   -0.5441790    0.9083880  
C    -8.2613040   -0.5489970    1.4063060  
O    -8.6177370   -1.4627240    2.3550000  
C    -9.2198750    0.3889120    0.9422600  
O   -10.4632120    0.2532420    1.5289160  
C    -8.8990830    1.3423940   -0.0067300  
H    -7.3360940    3.0308140   -2.0340240  
H    -6.2442790   -1.2515610    1.3001050  
H    -9.5475630   -1.2924850    2.5845000  
H   -11.0555940    0.9439060    1.1969700  
H    -9.6454050    2.0612030   -0.3393370  
H    -4.8105900    2.0769270   -2.2027630  
