60


C     1.6506250   -2.9605410    2.9308310  
C     2.4258260   -4.0545810    2.6483920  
C     3.3366410   -3.6634570    1.6124290  
C     3.0562490   -2.3136320    1.2907230  
N     2.0216430   -1.9148830    2.1059350  
C     3.7981990   -1.5626330    0.3342120  
C     4.8642040   -2.2554090   -0.2907420  
O     5.5985840   -1.6681810   -1.2564430  
C     5.1367140   -3.6130120    0.0238300  
O     6.1907810   -4.1377290   -0.6976550  
C     4.3939850   -4.3178910    0.9494880  
H     2.3622410   -5.0226000    3.1255050  
H     1.6942600   -0.9637910    2.1856940  
H     6.2545060   -2.3233070   -1.5582290  
H     6.3216090   -5.0682370   -0.4633370  
H     4.6279820   -5.3584780    1.1651480  
H     0.8524180   -2.8335600    3.6480120  
C     3.4701960   -0.1923180    0.0249430  
C     2.2135720    0.4104340    0.1060800  
C     2.3979920    1.7678730   -0.2574130  
C     3.8779720    1.8694260   -0.5100100  
N     4.4849520    0.7233390   -0.3628360  
C     4.5051810    3.1101340   -0.8465900  
C     3.7083770    4.2021060   -0.9451390  
O     4.1500720    5.4192030   -1.2655310  
C     2.2024900    4.1477550   -0.7421080  
O     1.6087930    5.1996210   -0.9625840  
C     1.5575690    2.8686340   -0.3613460  
H     1.2755910   -0.0799000    0.3131280  
H     5.5745740    3.1540860   -1.0194970  
H     3.3390200    5.9814250   -1.2950110  
C     0.1367850    2.8192740   -0.1230220  
C    -0.7134080    1.7388450   -0.3055660  
C    -2.0088900    2.1806550    0.0938480  
C    -1.7829310    3.5928270    0.5472960  
N    -0.5423980    3.9627090    0.4036140  
C    -2.8429820    4.3908960    1.0936040  
C    -4.0709290    3.8267460    1.1728670  
O    -5.1537110    4.4549460    1.6446750  
C    -4.3579570    2.4196860    0.6893390  
O    -5.5343430    2.0696910    0.7309010  
C    -3.2516530    1.5826410    0.1585610  
H    -0.4598080    0.7784530   -0.7245730  
H    -2.6499210    5.4079490    1.4157830  
H    -5.8896650    3.8086480    1.5361430  
C    -3.5168800    0.2228080   -0.2642890  
C    -2.9224940   -0.4685100   -1.2914410  
C    -3.5224500   -1.7806200   -1.2824200  
C    -4.4852510   -1.7337530   -0.1351020  
N    -4.4877260   -0.5730900    0.4487750  
C    -5.2798340   -2.8811490    0.2259870  
C    -5.1437490   -4.0006770   -0.5223780  
O    -5.8210850   -5.1387540   -0.3104940  
C    -4.1922860   -4.0717010   -1.6944010  
O    -4.1385630   -5.1371710   -2.3107050  
C    -3.3833610   -2.8970930   -2.0369440  
H    -2.2088310   -0.0933700   -2.0107470  
H    -5.9655270   -2.8249720    1.0639890  
H    -5.5089740   -5.7564160   -1.0097550  
H    -2.7041270   -2.9880480   -2.8790770  
