60


C    -3.8780780    0.8091610   -1.6912820  
C    -4.6058090    1.9526640   -1.5402750  
C    -5.5588110    1.7188350   -0.4894720  
C    -5.3677810    0.3900850   -0.0368200  
N    -4.3280090   -0.1633480   -0.7930090  
C    -6.1043190   -0.1554280    1.0195830  
C    -7.0650620    0.6499800    1.6150140  
O    -7.8132470    0.1592800    2.6471940  
C    -7.2788770    1.9769220    1.1654730  
O    -8.2690430    2.6511400    1.8550430  
C    -6.5390230    2.5163740    0.1279030  
H    -4.4775290    2.8629740   -2.1097210  
H    -5.9649530   -1.1670560    1.3786340  
H    -8.4190620    0.8680910    2.9239970  
H    -8.3480700    3.5517150    1.5074610  
H    -6.7066490    3.5421940   -0.1943480  
H    -3.0739110    0.5757610   -2.3716660  
C    -0.2069650   -1.2902000   -0.2912750  
C    -0.2982390   -2.6573160   -0.1648510  
C    -1.6974870   -2.9433280   -0.2841810  
C    -2.3374040   -1.6005060   -0.4904640  
N    -1.4512500   -0.6454140   -0.4925480  
C    -3.7695450   -1.4445010   -0.6530780  
C    -4.5076920   -2.5939600   -0.6354760  
O    -5.8332280   -2.6275410   -0.7964250  
C    -3.8887420   -3.9527260   -0.4151300  
O    -4.6641250   -4.9127210   -0.4184620  
C    -2.4459060   -4.0750860   -0.2404110  
H     0.4855040   -3.3815500   -0.0022260  
H    -6.0715620   -3.5821120   -0.7242010  
H    -2.0404300   -5.0698490   -0.0885190  
C     2.2001790   -1.0380490   -0.0667520  
C     3.1777880   -0.0808490   -0.0614740  
C     2.4990670    1.2036080   -0.2569830  
C     1.0531080    0.9055970   -0.3720130  
N     0.9305570   -0.5077980   -0.2476420  
C     0.0984440    1.8455750   -0.5570350  
C     0.5197940    3.2505700   -0.6620720  
O    -0.2781110    4.1545760   -0.8449410  
C     2.0420950    3.5839110   -0.5392140  
O     2.4084460    4.7448780   -0.6166140  
C     2.9762550    2.4699970   -0.3338910  
H    -0.9546830    1.6137980   -0.6332430  
H     4.0345460    2.6820160   -0.2475240  
H     2.3130310   -2.1056330    0.0475350  
C     4.5886240   -0.3289890    0.1056960  
C     5.2327620   -1.5273160    0.2978610  
C     6.6311210   -1.2082100    0.4027520  
C     6.6817520    0.2853060    0.2482450  
N     5.4939030    0.7872710    0.0765910  
C     7.9240240    1.0091120    0.2943650  
C     9.0572150    0.2923590    0.4837500  
O    10.2824890    0.8232860    0.5488570  
C     9.0400900   -1.2161290    0.6432830  
O    10.1269530   -1.7693340    0.8103920  
C     7.7632470   -1.9302850    0.5926070  
H     4.7994800   -2.5159590    0.3618620  
H     7.9333300    2.0872280    0.1801400  
H    10.8890430    0.0608740    0.6908680  
H     7.7894970   -3.0090460    0.7105480  
