62


C    -0.7569960   -3.0926950   -0.2213650  
C    -1.1169320   -1.8132080    0.1788770  
C    -2.3325750   -1.4652610   -0.4825240  
C    -2.6864150   -2.5852730   -1.2957240  
N    -1.7195340   -3.5512530   -1.1081860  
C    -3.8386010   -2.6327900   -2.0701200  
C    -4.7019390   -1.5410490   -1.9881460  
O    -5.8467000   -1.5323990   -2.7157330  
C    -4.4209550   -0.4422720   -1.1458020  
O    -5.3820260    0.5474430   -1.1814860  
C    -3.2305320   -0.3522790   -0.4074380  
H    -0.5892680   -1.2242510    0.9140840  
H    -1.6161510   -4.3830230   -1.6691360  
H    -4.1001350   -3.4820300   -2.6930510  
H    -6.3040560   -0.7032790   -2.4731820  
H    -5.6137690    0.7457620   -0.2487810  
C     0.2402220    2.4962680    0.0829060  
C    -0.5711910    1.4916730   -0.3899980  
C    -1.7376820    1.4886130    0.4662340  
C    -1.4533830    2.5521680    1.4592680  
N    -0.3068790    3.1320800    1.2478740  
C    -2.3791970    2.8849260    2.5123750  
C    -3.5790450    2.2632710    2.5046270  
O    -4.5602450    2.5156810    3.3905320  
C    -3.9398800    1.2668000    1.4474670  
O    -5.1096290    0.8517040    1.4707010  
C    -2.9275820    0.8016380    0.4529730  
H    -0.4334730    0.8934830   -1.2786110  
H    -2.1233060    3.6421070    3.2447420  
H    -5.3187750    1.9598770    3.1125570  
C     3.7926380    0.6259970   -1.9336580  
C     2.5586590    0.7789430   -1.3713460  
C     2.4548660    2.1951250   -1.0592800  
C     3.7676620    2.7502450   -1.5021390  
N     4.5452070    1.8245640   -2.0035050  
C     4.1064570    4.1366360   -1.3385890  
C     3.1802060    4.9446340   -0.7739900  
O     3.3487490    6.2607120   -0.5811740  
C     1.8257070    4.4359720   -0.3457150  
O     1.0183750    5.2794450    0.0228870  
C     1.5069650    2.9691640   -0.4464320  
H     1.7965520    0.0250920   -1.2476110  
H     5.0710300    4.5037560   -1.6709500  
H     2.4963380    6.5813350   -0.2105450  
H     4.2310580   -0.2869890   -2.3210790  
C     0.3897200   -5.3079140    0.1839770  
C     0.3677200   -3.9239750    0.1528010  
C     1.6939640   -3.4883830    0.5302520  
C     2.4666130   -4.6501580    0.7684440  
N     1.6418810   -5.7408240    0.5524310  
C     3.8221980   -4.6001660    1.1162910  
C     4.4108000   -3.3467570    1.2044430  
O     5.7310130   -3.2322530    1.5149560  
C     3.6531030   -2.1690750    0.9576790  
O     4.3712560   -0.9971410    1.0709320  
C     2.3080640   -2.2284980    0.6435410  
H     1.9066220   -6.7052190    0.6798860  
H     4.4196980   -5.4888220    1.2919860  
H     5.9453920   -2.2823980    1.4744260  
H     3.9666400   -0.3152090    0.5051360  
H     1.7467110   -1.3149110    0.4866620  
H    -0.4081300   -6.0166980    0.0109220  
