62


C     5.5494080    1.7905260    0.0030310  
C     6.8593000    1.7794250   -0.3734790  
C     7.2725500    0.4036920   -0.4477860  
C     6.1585680   -0.3910540   -0.0829790  
N     5.0948420    0.4788530    0.1939290  
C     6.2003710   -1.7891790   -0.1012150  
C     7.3953750   -2.3912560   -0.4647820  
O     7.4870100   -3.7526450   -0.4884370  
C     8.5256490   -1.6088040   -0.8154950  
O     9.6393850   -2.3517960   -1.1554840  
C     8.4758560   -0.2266740   -0.8132810  
H     7.4717100    2.6515930   -0.5586290  
H     5.3601890   -2.4106290    0.1811280  
H     8.4009960   -3.9760280   -0.7344890  
H    10.3885400   -1.7581810   -1.3118890  
H     9.3476630    0.3580490   -1.1000950  
H     4.8864510    2.6169070    0.2125170  
C     1.2517350    1.8374990   -1.3835400  
C     2.5723940    1.6029010   -1.1940450  
C     2.6942490    0.7076470   -0.0624900  
C     1.3199860    0.4344200    0.4037160  
N     0.4720220    1.1563630   -0.4353810  
C     0.9919110   -0.3852940    1.4382380  
C     2.0662140   -1.0507040    2.1515290  
O     1.8869290   -1.8461340    3.0617320  
C     3.5501970   -0.7410520    1.7265470  
O     4.4575250   -1.2076160    2.3881050  
C     3.7822840    0.1436340    0.5519480  
H     3.3835760    1.9917240   -1.7904260  
H    -0.0289650   -0.5719250    1.7510120  
H     0.7563120    2.4319980   -2.1390840  
C    -1.7896220    0.1453450   -0.4381420  
C    -0.9315940    1.2018510   -0.3726350  
C    -1.7282270    2.4055140   -0.1961900  
C    -3.1373840    1.9539220   -0.1862120  
N    -3.1137230    0.5601240   -0.3062060  
C    -4.2028840    2.7851800   -0.0814090  
C    -3.9512950    4.2217300    0.0520930  
O    -4.8479890    5.0438410    0.1449820  
C    -2.4593420    4.7158920    0.0801810  
O    -2.2299650    5.9069010    0.2094990  
C    -1.3956050    3.7147160   -0.0593450  
H    -5.2312440    2.4408470   -0.0972160  
H    -0.3677340    4.0636420   -0.0482690  
H    -1.5741700   -0.9078640   -0.5536820  
C    -4.2273330   -0.2910380   -0.3977780  
C    -4.5666220   -1.1864920   -1.3807260  
C    -5.7721700   -1.8339870   -0.9513480  
C    -6.1254020   -1.2753410    0.3049820  
N    -5.1696470   -0.3268630    0.6205470  
C    -7.2631340   -1.6723050    1.0175080  
C    -8.0590280   -2.6548200    0.4502610  
O    -9.1744690   -3.0833340    1.1029670  
C    -7.7247800   -3.2226000   -0.8107020  
O    -8.6194870   -4.1817710   -1.2387690  
C    -6.6025690   -2.8261230   -1.5117790  
H    -4.0342110   -1.3352200   -2.3099290  
H    -5.0761180    0.1448050    1.5074420  
H    -7.5364670   -1.2484750    1.9780920  
H    -9.5923050   -3.7656990    0.5494470  
H    -8.3373300   -4.5340850   -2.0958080  
H    -6.3672120   -3.2733910   -2.4751560  
