62


C     5.3914920    2.4715400   -1.6151580  
C     6.7544000    2.4651990   -1.6812330  
C     7.2024690    1.2030950   -1.1570040  
C     6.0477710    0.4729490   -0.7812860  
N     4.9351630    1.2743650   -1.0567180  
C     6.1151730   -0.8352530   -0.2865980  
C     7.3734240   -1.3985040   -0.1285840  
O     7.4892140   -2.6678380    0.3571120  
C     8.5411050   -0.6703560   -0.4741230  
O     9.7154580   -1.3632030   -0.2588240  
C     8.4681970    0.6119830   -0.9888080  
H     7.3741240    3.2723090   -2.0473530  
H     5.2377370   -1.4205920   -0.0376430  
H     8.4375550   -2.8828500    0.3826000  
H    10.4688120   -0.8210810   -0.5359550  
H     9.3745290    1.1464730   -1.2663170  
H     4.6757160    3.2366480   -1.8783760  
C     2.5610230    1.1525840   -1.7506910  
C     3.5882970    0.9488170   -0.8854030  
C     2.9547570    0.4597830    0.3578170  
C     1.5066140    0.4083820    0.0134230  
N     1.2917520    0.8180970   -1.2048750  
C     0.5077110   -0.0313160    0.9728160  
C     0.9627800   -0.3598970    2.2170450  
O     0.1746700   -0.8252890    3.1953630  
C     2.4097970   -0.2650480    2.5976220  
O     2.7218740   -0.5778970    3.7453110  
C     3.4012260    0.1731720    1.5930980  
H     0.7653270   -0.9546430    3.9703380  
H     4.4411910    0.2160750    1.9000070  
H     2.6160890    1.5312840   -2.7634830  
C    -1.9826040   -2.2095050   -2.0243360  
C    -0.9148030   -1.7124460   -1.3630960  
C    -1.4662050   -0.7698820   -0.3987380  
C    -2.9460330   -0.7994530   -0.6528120  
N    -3.2303280   -1.6663060   -1.5868220  
C    -3.8927520    0.0181300    0.0913590  
C    -3.3502530    0.6962680    1.1495700  
O    -4.0693770    1.4196670    2.0164600  
C    -1.8785110    0.7350610    1.4431420  
O    -1.5090940    1.4592800    2.3649350  
C    -0.9253250   -0.0678330    0.6243280  
H     0.1295130   -1.9469540   -1.5032650  
H    -3.4101240    1.8237920    2.6236220  
H    -1.9948220   -2.9469460   -2.8180270  
C    -7.0087120   -3.0562000   -0.8132040  
C    -8.0839350   -2.2099510   -0.8666780  
C    -7.5765730   -0.8795750   -0.6778940  
C    -6.1735510   -0.9944840   -0.4920410  
N    -5.8572160   -2.3372500   -0.5446250  
C    -5.3303050    0.1176450   -0.2522780  
C    -5.9538140    1.3730840   -0.3154450  
O    -5.2149660    2.5138940   -0.2175830  
C    -7.3533700    1.4957870   -0.5055500  
O    -7.7981560    2.8085770   -0.5129300  
C    -8.1714800    0.3954980   -0.6616750  
H    -9.1166120   -2.4936800   -1.0183660  
H    -4.9230820   -2.6244260   -0.8207000  
H    -5.8402020    3.2585050   -0.2554450  
H    -8.7485560    2.8225230   -0.6970930  
H    -9.2451060    0.5177570   -0.7929670  
H    -6.9627230   -4.1297210   -0.9345720  
