60


C     6.7164070   -3.1026240    0.0887910  
C     7.8398640   -2.3234970    0.0064530  
C     7.4022920   -0.9576730   -0.0656950  
C     5.9839460   -0.9721680   -0.0146050  
N     5.5946930   -2.2920320    0.0851940  
C     5.1958410    0.1973870   -0.1020530  
C     5.8930680    1.4019330   -0.2306470  
O     5.2041250    2.5756710   -0.2644340  
C     7.3095890    1.4315290   -0.2717170  
O     7.8342000    2.7068710   -0.3815810  
C     8.0662310    0.2780140   -0.1917980  
H     8.8611300   -2.6785790   -0.0063520  
H     4.6397000   -2.6141880    0.0767530  
H     5.8450720    3.2788050   -0.4697210  
H     8.7773880    2.6499430   -0.5941680  
H     9.1526740    0.3285760   -0.2259920  
H     6.6138940   -4.1765660    0.1546840  
C     2.2137100   -1.4206780    2.7688970  
C     3.3543040   -1.0323460    2.1461950  
C     2.9727920   -0.3846720    0.9029390  
C     1.4948330   -0.4178980    0.8629080  
N     1.0937880   -1.0372820    2.0316550  
C     0.7093880    0.0855840   -0.1396480  
C     1.4146910    0.7366730   -1.2559650  
O     0.8352820    1.3378270   -2.1438200  
C     2.9846920    0.7017390   -1.2814600  
O     3.5467720    1.0746970   -2.2926800  
C     3.7215990    0.1751730   -0.0984250  
H     4.3625720   -1.1649040    2.5080040  
H     2.0843290   -1.9355150    3.7116880  
H     0.1480470   -1.3398360    2.2098120  
C    -2.2637610    1.7140750    2.6595440  
C    -3.4077410    1.2908610    2.0593210  
C    -3.0286380    0.5688340    0.8643060  
C    -1.5491050    0.5938460    0.8262110  
N    -1.1448110    1.2779780    1.9622360  
C    -0.7612030    0.0386690   -0.1420720  
C    -1.4669050   -0.6825550   -1.2227290  
O    -0.8840800   -1.3336610   -2.0696180  
C    -3.0344890   -0.6632290   -1.2456830  
O    -3.6049190   -1.1171050   -2.2218660  
C    -3.7641180   -0.0611140   -0.1075090  
H    -4.4144890    1.4681770    2.4053460  
H    -2.1408920    2.2962960    3.5633790  
H    -0.2037660    1.6148700    2.1021390  
C    -7.1612520    2.8847820   -0.0034620  
C    -5.9056400    2.3752720   -0.0022060  
C    -6.0827320    0.9280100   -0.0612840  
C    -7.5677510    0.7503790   -0.1034600  
N    -8.1903850    1.8948440   -0.0664790  
C    -8.1763730   -0.5509300   -0.2011110  
C    -7.3572680   -1.6259000   -0.2520600  
O    -7.7841490   -2.8963710   -0.3331270  
C    -5.8603000   -1.4892470   -0.1722120  
O    -5.2056970   -2.5239280   -0.0971390  
C    -5.2329640   -0.1300020   -0.1172980  
H    -4.9675670    2.9105650    0.0209430  
H    -9.2561590   -0.6439680   -0.2343960  
H    -6.9711470   -3.4473960   -0.3176090  
H    -7.4541240    3.9277790    0.0265800  
