62


C    -2.0975790   -1.5536430    0.0607790  
C    -2.4995520   -2.8893100    0.1530320  
C    -3.9123820   -2.9089810    0.1202200  
C    -4.3514270   -1.5480880    0.0060370  
N    -3.2358320   -0.7625380   -0.0305060  
C    -5.7070670   -1.1988890   -0.0506300  
C    -6.6322100   -2.2268570    0.0072910  
O    -7.9602710   -1.9483030   -0.0428420  
C    -6.2133420   -3.5910200    0.1199910  
O    -7.2658410   -4.4802730    0.1640700  
C    -4.8836930   -3.9384620    0.1757420  
H    -1.8346890   -3.7382120    0.2332860  
H    -3.1721050    0.2448250   -0.0870700  
H    -6.0472980   -0.1725840   -0.1362010  
H    -8.4398130   -2.7936710    0.0123140  
H    -6.9278420   -5.3844220    0.2476000  
H    -4.5853980   -4.9809520    0.2620920  
C    -0.8180680   -0.9350470    0.0512200  
C     0.4483360   -1.4706770    0.1490860  
C     1.3450510   -0.3644310    0.0989650  
C     0.4472330    0.8355250   -0.0193480  
N    -0.8066260    0.4986520   -0.0687750  
C     0.9676040    2.1869160   -0.0886110  
C     2.3198680    2.2958050   -0.0237000  
O     2.9692170    3.4639870   -0.0479070  
C     3.2388780    1.1049430    0.1477920  
O     4.4418390    1.4049320    0.2973920  
C     2.7228110   -0.2569810    0.1350810  
H     0.7177930   -2.5111900    0.2442890  
H     3.9190450    3.2244280    0.0617830  
C     2.9257870   -3.9165860   -2.4638540  
C     2.5953090   -2.7044840   -1.9158200  
C     3.4663400   -2.4886280   -0.7926300  
C     4.3238080   -3.6205550   -0.7225370  
N     3.9602710   -4.4789220   -1.7404450  
C     5.3494500   -3.7478140    0.2185080  
C     5.5300120   -2.6875870    1.0930890  
O     6.5223050   -2.7282350    2.0237090  
C     4.6983460   -1.5380760    1.0443900  
O     5.0077770   -0.5913620    1.9996130  
C     3.6368970   -1.4219500    0.1406040  
H     1.8177990   -2.0451090   -2.2711770  
H     4.4237990   -5.3463030   -1.9596750  
H     6.0057530   -4.6108580    0.2669230  
H     6.4717720   -1.8712940    2.4901560  
H     5.0200500    0.2781440    1.5418830  
H     2.5061230   -4.4328760   -3.3157680  
C    -2.1008460    3.7929430    2.6227180  
C    -2.5806800    4.8500100    1.9288000  
C    -1.8045210    4.8731110    0.6923320  
C    -0.8847260    3.6942490    0.8168000  
N    -1.0550010    3.0791890    1.9489470  
C     0.0782500    3.3589920   -0.2204800  
C     0.1314660    4.1990580   -1.2905350  
O     0.9679170    4.0335640   -2.3263050  
C    -0.7736040    5.3918510   -1.4322840  
O    -0.6574800    6.0765460   -2.4479900  
C    -1.7564310    5.6917300   -0.3752610  
H    -3.3549610    5.5478020    2.2160080  
H     0.7734660    4.7788410   -2.9369250  
H    -2.3835030    6.5674230   -0.5132430  
H    -2.4092800    3.4420860    3.6005370  
