64


C     2.9645860   -0.1265540    0.3460030  
C     1.6966630    0.2711680   -0.0199540  
C     1.5265980    1.6363650    0.3761780  
C     2.7510970    2.0406090    0.9741440  
N     3.6137810    0.9631630    0.9229830  
C     2.9777280    3.3285130    1.4637720  
C     1.9510890    4.2491960    1.3149250  
O     2.1066440    5.5283450    1.7596490  
C     0.7294710    3.8916210    0.6923140  
O    -0.1930080    4.9195890    0.6426630  
C     0.4757000    2.5889110    0.2377270  
H     0.9804510   -0.3487400   -0.5375050  
H     4.4639700    0.8832170    1.4597930  
H     3.9126640    3.6288030    1.9263190  
H     1.2745610    5.9831370    1.5271710  
H    -0.5356420    4.9730960   -0.2747610  
C    -2.3329700   -0.6892220    1.1244810  
C    -3.3223550   -0.5152490    0.2011430  
C    -2.8919130    0.6907080   -0.5460920  
C    -1.5907790    1.0695000    0.0698320  
N    -1.2836790    0.2622610    1.0451580  
C    -0.8241890    2.2392370   -0.3683990  
C    -1.4434520    2.9986950   -1.3192300  
O    -0.9052580    4.1484940   -1.8255970  
C    -2.7503430    2.6662970   -1.9289310  
O    -3.1940040    3.4232350   -2.8004470  
C    -3.4654310    1.4504450   -1.4946300  
H    -1.5643380    4.4500160   -2.4941670  
H    -4.4116400    1.2249460   -1.9718770  
H    -2.2542030   -1.4786800    1.8630150  
C    -6.0237840   -2.0955490    3.2932870  
C    -6.9195990   -2.7191900    2.4651000  
C    -6.4728800   -2.4970650    1.1191440  
C    -5.2819910   -1.7299930    1.1964250  
N    -5.0272890   -1.5112920    2.5337160  
C    -4.5622380   -1.2817640    0.0614940  
C    -5.1029430   -1.6489860   -1.1771790  
O    -4.4711480   -1.2872880   -2.3343850  
C    -6.2876690   -2.4213840   -1.2686660  
O    -6.6657750   -2.6961010   -2.5711090  
C    -6.9730320   -2.8513030   -0.1486610  
H    -7.7957920   -3.2719220    2.7748690  
H    -4.2971890   -0.9091290    2.8825500  
H    -4.9818500   -1.6725910   -3.0683780  
H    -7.4335490   -3.2862620   -2.5684570  
H    -7.8820250   -3.4408170   -0.2494390  
H    -6.0017500   -2.0240310    4.3715290  
C     3.0283790   -2.6475570    0.3143430  
C     3.6308840   -1.4113270    0.2158540  
C     5.0340990   -1.6623060   -0.0401220  
C     5.2076180   -3.0693450   -0.0796390  
N     3.9675950   -3.6404160    0.1304880  
C     6.4484430   -3.6734740   -0.3168480  
C     7.5368420   -2.8410720   -0.5260000  
O     8.7699800   -3.3779150   -0.7614340  
C     7.3801290   -1.4300430   -0.5083270  
O     8.5518690   -0.7353630   -0.7482550  
C     6.1533390   -0.8370670   -0.2721750  
H     3.7829990   -4.6298640    0.1800670  
H     6.5829320   -4.7499400   -0.3494480  
H     9.3815510   -2.6359650   -0.9087850  
H     8.3572320    0.2108100   -0.8189280  
H     6.0553980    0.2462300   -0.2908860  
H     1.9964040   -2.8891610    0.5243320  
