62


C    -3.2198520    1.0077040   -1.8069330  
C    -4.4906040    1.4900350   -1.6769160  
C    -5.1196740    0.7561570   -0.6140300  
C    -4.1711920   -0.1797650   -0.1314790  
N    -3.0028410   -0.0169680   -0.8800180  
C    -4.4385210   -1.0356040    0.9425160  
C    -5.6950380   -0.9593450    1.5238580  
O    -6.0090910   -1.7792630    2.5703140  
C    -6.6618760   -0.0377650    1.0450860  
O    -7.8641970   -0.0820240    1.7261010  
C    -6.3888530    0.8157380   -0.0081510  
H    -4.9328340    2.2738710   -2.2765790  
H    -3.7187580   -1.7530660    1.3161960  
H    -6.9246670   -1.5767010    2.8283010  
H    -8.4750210    0.5648820    1.3434570  
H    -7.1391880    1.5245270   -0.3531570  
H    -2.4423560    1.2662620   -2.5115530  
C     0.9690240    1.6649750   -0.3043820  
C     1.6433210    0.4477090   -0.2349320  
C     0.6841130   -0.5949290   -0.3429900  
C    -0.5779600    0.0405400   -0.5117710  
N    -0.3787510    1.3964450   -0.4666010  
C    -1.7716900   -0.6769800   -0.6972750  
C    -1.6588230   -2.0714100   -0.7469910  
O    -2.7581460   -2.8297560   -0.9673760  
C    -0.4091210   -2.7246700   -0.5832350  
O    -0.5140680   -4.0930570   -0.6322740  
C     0.7802870   -2.0241940   -0.3399890  
H     2.7122650    0.3159260   -0.1858980  
H    -1.0584430    2.1305470   -0.6289130  
H    -2.4416190   -3.7543220   -0.9910600  
H     0.2440920   -4.4253260   -1.1621040  
C     4.0423130   -1.3956560    2.6610890  
C     2.8331060   -1.3506660    2.0469970  
C     2.9391030   -2.2737680    0.9185580  
C     4.3230700   -2.7969130    1.0220340  
N     4.9737100   -2.2713830    2.0260030  
C     4.8417010   -3.7703530    0.0947430  
C     4.0011590   -4.2400380   -0.8540320  
O     4.3389720   -5.1848830   -1.7520970  
C     2.5820340   -3.7719600   -0.9458600  
O     1.8765900   -4.3449240   -1.7893350  
C     2.0770160   -2.6663220   -0.0709010  
H     1.9524650   -0.8006410    2.3440300  
H     5.8623590   -4.1241100    0.1877920  
H     3.5335830   -5.3527200   -2.2843600  
H     4.3525470   -0.8784360    3.5617160  
C     4.7262450    3.2790730    1.3272920  
C     4.5729960    4.5830810    0.9829280  
C     3.2891740    4.7067930    0.3273130  
C     2.7084060    3.3474970    0.3007120  
N     3.6389320    2.5220920    0.8981000  
C     1.4770340    3.0204200   -0.2253610  
C     0.6624160    4.1602380   -0.6913200  
O    -0.5085320    4.0497100   -1.0350010  
C     1.3023610    5.5977890   -0.7492520  
O     0.6423400    6.4966770   -1.2476830  
C     2.6335010    5.7824950   -0.1943870  
H     5.2730140    5.3848950    1.1669110  
H     3.0581580    6.7810850   -0.2069560  
H     5.5426400    2.7934550    1.8452020  
H     3.4424380    1.5792960    1.2057350  
