60


C     6.5193050   -3.2042280   -0.0352870  
C     5.4048200   -2.4045350   -0.0962970  
C     5.8572670   -1.0369320   -0.1166870  
C     7.2763500   -1.0827920   -0.0784280  
N     7.6467240   -2.4112210   -0.0120100  
C     8.0815470    0.0589510   -0.1428700  
C     7.4321370    1.2746200   -0.2793400  
O     8.1475590    2.4257490   -0.3738980  
C     6.0125570    1.3591290   -0.3217840  
O     5.5453660    2.6447080   -0.4310770  
C     5.1963660    0.2283410   -0.2010950  
H     4.3862190   -2.7580390   -0.1678350  
H     8.5970070   -2.7476640   -0.0144840  
H     9.1658300    0.0209890   -0.1217560  
H     7.4878590    3.1346230   -0.5037080  
H     4.7886910    2.6256830   -1.0652500  
H     6.6017290   -4.2817120   -0.0162260  
C     2.4011210   -1.6490790    2.5858610  
C     1.2114520   -1.2475930    2.0646070  
C     1.5064360   -0.3965300    0.9349860  
C     2.9849330   -0.3462160    0.8317250  
N     3.4615890   -1.1011950    1.8792590  
C     3.7200490    0.3193290   -0.1253180  
C     2.9248720    1.1387570   -1.0380850  
O     3.4076570    1.9380600   -1.8405130  
C     1.3536350    1.0610870   -1.0045590  
O     0.7368510    1.7446890   -1.8013260  
C     0.6963030    0.2458190    0.0334170  
H     0.2297540   -1.5032730    2.4323590  
H     2.5956490   -2.2904740    3.4352130  
H     4.4307500   -1.3732000    1.9678490  
C    -2.5425340    1.2135300    2.9783630  
C    -1.3177860    1.0545010    2.4224470  
C    -1.5716140    0.5214460    1.0892080  
C    -3.0637180    0.4292070    1.0141940  
N    -3.6195900    0.8346070    2.1216490  
C    -3.7550250   -0.0507020   -0.1706710  
C    -2.9624380   -0.3911730   -1.2260810  
O    -3.4429480   -0.8134700   -2.4014380  
C    -1.4618750   -0.3327650   -1.1755080  
O    -0.8517580   -0.7647450   -2.1479900  
C    -0.7710060    0.1800520    0.0476260  
H    -0.3527010    1.2764280    2.8544080  
H    -2.6558810   -1.0434150   -2.9430560  
H    -2.7807270    1.5907480    3.9660440  
C    -7.2063520    2.7165900    0.4062330  
C    -5.9641550    2.1816270    0.3007280  
C    -6.1222300    0.7708400    0.0201570  
C    -7.5863340    0.5261440   -0.0346730  
N    -8.1848560    1.7435590    0.2162160  
C    -8.1679180   -0.6712400   -0.3036310  
C    -7.3014090   -1.8121700   -0.5514610  
O    -7.7193700   -2.9280210   -0.8224140  
C    -5.7458740   -1.5973850   -0.4601320  
O    -5.0221850   -2.5709770   -0.5723710  
C    -5.2191410   -0.2316050   -0.2059250  
H    -5.0289470    2.7027410    0.4286590  
H    -9.2426210   -0.8160840   -0.3561310  
H    -7.4983710    3.7377750    0.6125670  
H    -9.1791060    1.9065170    0.2134490  
