60


C     4.9101180   -0.2950730    2.5437110  
C     5.9630780   -0.9413620    1.9521190  
C     5.4356390   -1.6712410    0.8336210  
C     4.0399450   -1.4206440    0.7936880  
N     3.7483420   -0.5773900    1.8453240  
C     3.1753400   -2.0160760   -0.1547920  
C     3.7755540   -2.8613480   -1.0933570  
O     3.0209570   -3.4143570   -2.0792290  
C     5.1722370   -3.1075860   -1.0717990  
O     5.5969250   -3.9535870   -2.0779290  
C     6.0007240   -2.5321590   -0.1278100  
H     6.9938490   -0.9094010    2.2772090  
H     2.8252350   -0.2465190    2.0798100  
H     3.5987700   -4.0078220   -2.5902330  
H     6.5410260   -4.1405730   -1.9698650  
H     7.0685450   -2.7415320   -0.1316110  
H     4.8824760    0.3474560    3.4124690  
C     0.5886350    1.6323440   -0.2560520  
C     1.6717250    0.7867030   -0.2784790  
C     1.1362280   -0.5470710   -0.1768000  
C    -0.3414510   -0.3495890   -0.0986090  
N    -0.6467840    0.9128800   -0.1336160  
C    -1.2873550   -1.4625330    0.0040170  
C    -0.7057120   -2.7112460    0.0167340  
O    -1.3674920   -3.8642260    0.0642900  
C     0.7928120   -2.9265760   -0.0207430  
O     1.1750970   -4.0887270    0.1017330  
C     1.7224650   -1.7780150   -0.1521670  
H     2.7087700    1.0383650   -0.4407190  
H    -0.6622740   -4.5543240    0.0982280  
C     3.4615640    4.7602160    1.0661820  
C     2.8370540    3.5772150    0.8068540  
C     1.5885810    3.8780330    0.1477040  
C     1.5273620    5.3544070    0.0590700  
N     2.7043880    5.8254660    0.6114980  
C     0.4869230    6.0711280   -0.4400680  
C    -0.6705940    5.3390980   -0.9299580  
O    -1.6888050    5.8841920   -1.3262610  
C    -0.5957890    3.7693690   -0.9674960  
O    -1.4691520    3.1839700   -1.5781020  
C     0.5625300    3.0796250   -0.3241270  
H     3.2132040    2.6003550    1.0648780  
H     0.4631320    7.1563690   -0.4611670  
H     4.4125680    4.9394740    1.5500480  
H     2.9292670    6.8000780    0.7368410  
C    -2.7163020   -1.2200520    0.0569930  
C    -3.3886440   -0.0564540   -0.2187820  
C    -4.7868240   -0.3581820   -0.0224220  
C    -4.8023840   -1.7954870    0.3996540  
N    -3.6072560   -2.2960350    0.4455730  
C    -6.0365230   -2.4776710    0.7067510  
C    -7.1862600   -1.7745470    0.5913160  
O    -8.4088460   -2.2721130    0.8383550  
C    -7.2009410   -0.3246910    0.1622080  
O    -8.3019770    0.2248250    0.0907750  
C    -5.9349740    0.3506410   -0.1389490  
H    -2.9602560    0.8852940   -0.5241970  
H    -6.0217480   -3.5179470    1.0124560  
H    -9.0238750   -1.5234140    0.6656320  
H    -5.9817370    1.3928230   -0.4395430  
