64


C     1.3761660   -2.0063270    0.2569670  
C     0.1237680   -1.5114460    0.5531880  
C    -0.8388130   -2.1958950   -0.2670980  
C    -0.1126270   -3.1395910   -1.0335660  
N     1.2410760   -2.9668950   -0.7614300  
C    -0.7200160   -4.0603730   -1.8885470  
C    -2.1045470   -4.0243900   -1.9574390  
O    -2.7742250   -4.9047590   -2.7467010  
C    -2.8629730   -3.0692980   -1.2259060  
O    -4.2118150   -3.1561530   -1.4585870  
C    -2.2594220   -2.1105720   -0.4024710  
H    -0.0745860   -0.7528110    1.2933780  
H     1.8945330   -3.7368720   -0.8296440  
H    -0.1643660   -4.7939910   -2.4636900  
H    -3.7212970   -4.7069220   -2.6064680  
H    -4.6627640   -3.0067170   -0.5896180  
C    -1.5167010    2.2540470   -0.0832350  
C    -1.5325940    0.9201180   -0.4325440  
C    -2.6053070    0.2803080    0.2589040  
C    -3.2767430    1.3516840    1.0353290  
N    -2.5609450    2.5058770    0.8076900  
C    -4.3672850    1.1651970    1.8212800  
C    -4.9213230   -0.1757200    1.8902190  
O    -5.8812840   -0.4742240    2.5840360  
C    -4.2666930   -1.3044300    1.0082090  
O    -4.8738820   -2.3791860    0.9701700  
C    -3.0244780   -1.0401710    0.2823690  
H    -0.8834520    0.4456860   -1.1485490  
H    -4.8268220    1.9500840    2.4130030  
H    -2.8485660    3.4406980    1.0582180  
C     2.7193630    1.9497470   -1.2914910  
C     2.9201340    3.2742980   -1.5746510  
C     1.6838560    3.9504500   -1.3056710  
C     0.7540010    2.9661030   -0.8745220  
N     1.4118300    1.7569500   -0.8850510  
C    -0.5737440    3.2841400   -0.4827650  
C    -0.9060670    4.6484270   -0.4965010  
O    -2.1538230    5.0552600   -0.1023250  
C     0.0099980    5.6303620   -0.9352180  
O    -0.5027020    6.9138240   -0.9047190  
C     1.2874920    5.2997430   -1.3479830  
H     3.8413360    3.7215200   -1.9211470  
H     1.0531960    0.8898870   -0.5050490  
H    -2.1884690    6.0223780   -0.2144710  
H     0.1519020    7.5375680   -1.2515230  
H     1.9765710    6.0741650   -1.6786120  
H     3.3999020    1.1115310   -1.3392530  
C     5.3029050   -2.0143470   -1.7637200  
C     6.0636090   -1.6374880   -0.6885060  
C     5.1695190   -1.4565330    0.4210530  
C     3.8635040   -1.7521440   -0.0446510  
N     3.9763220   -2.1003310   -1.3797540  
C     2.7026450   -1.6599300    0.7641070  
C     2.9150360   -1.2182810    2.0759990  
O     1.8578300   -1.0722260    2.9266770  
C     4.2175450   -0.9243860    2.5537070  
O     4.2384170   -0.5184750    3.8761180  
C     5.3401250   -1.0436600    1.7574850  
H     7.1366670   -1.5037360   -0.6837780  
H     3.1886290   -2.2454080   -1.9937910  
H     2.2238470   -0.8235280    3.7937970  
H     5.1560480   -0.4344340    4.1738910  
H     6.3261040   -0.8064640    2.1514290  
H     5.5934730   -2.2421690   -2.7796390  
