62


C    -0.1784530    2.7358900   -0.1496300  
C     0.4505430    3.9863780   -0.1651040  
C    -0.5601600    4.9692480   -0.2304290  
C    -1.8185580    4.2803150   -0.2558190  
N    -1.5515210    2.9422930   -0.2005920  
C    -3.0432670    4.9556340   -0.3247210  
C    -3.0043090    6.3389540   -0.3668840  
O    -4.1583500    7.0464780   -0.4344350  
C    -1.7575840    7.0453450   -0.3399500  
O    -1.9107310    8.4128020   -0.3880610  
C    -0.5534090    6.3858030   -0.2724700  
H     1.5190630    4.1476470   -0.1285250  
H    -2.2062180    2.1737970   -0.2299160  
H    -3.9989950    4.4434300   -0.3462320  
H    -3.9257310    7.9917160   -0.4576050  
H    -1.0426480    8.8432180   -0.3784300  
H     0.3830890    6.9384470   -0.2538690  
C     0.3414900    1.4166240   -0.1004280  
C     1.6460810    0.9649800   -0.1012870  
C     1.5678120   -0.4507560   -0.0835370  
C     0.0936550   -0.7533740   -0.0610170  
N    -0.6093800    0.3433100   -0.0676310  
C    -0.4341600   -2.1169970   -0.0535750  
C     0.5358390   -3.0928160   -0.1656370  
O     0.3055480   -4.3956520   -0.1991430  
C     2.0231140   -2.7878860   -0.2558220  
O     2.7364710   -3.8010850   -0.4279210  
C     2.5353850   -1.4397180   -0.1256720  
H     2.5479810    1.5560960   -0.1370230  
H     1.2029900   -4.8003470   -0.3088240  
C    -1.8523120   -2.3846590    0.0517650  
C    -2.8670640   -1.5079050    0.3540580  
C    -4.0785350   -2.2837910    0.3434560  
C    -3.6248710   -3.6700590   -0.0054900  
N    -2.3399890   -3.7291070   -0.1717670  
C    -4.5602220   -4.7612130   -0.1263970  
C    -5.8674740   -4.4923270    0.0948950  
O    -6.8518150   -5.4011020    0.0228670  
C    -6.3541920   -3.1048780    0.4542350  
O    -7.5670950   -2.9703830    0.6342540  
C    -5.3890820   -2.0122610    0.5662710  
H    -2.7678780   -0.4562670    0.5625500  
H    -4.2077590   -5.7540820   -0.3826990  
H    -7.6723250   -4.8993200    0.2334470  
H    -5.7755880   -1.0305880    0.8228000  
C     4.9579140    1.0399900    2.7295430  
C     3.9400520    0.3777150    2.0928900  
C     4.5102860   -0.3007080    0.9615230  
C     5.9026380   -0.0140000    0.9780150  
N     6.1415570    0.8177800    2.0532530  
C     6.8055620   -0.5464300    0.0538180  
C     6.2904090   -1.4158090   -0.8954590  
O     7.1121330   -1.9878180   -1.8160330  
C     4.9075440   -1.7345610   -0.9342830  
O     4.5685280   -2.5941340   -1.9572320  
C     3.9862970   -1.1680280   -0.0452510  
H     2.9039950    0.3790230    2.3964870  
H     7.0503330    1.1434640    2.3423430  
H     7.8686220   -0.3285850    0.0709210  
H     6.5383440   -2.5746650   -2.3459140  
H     3.9767880   -3.2778160   -1.5711970  
H     4.9379590    1.6598550    3.6148240  
