62


C     2.2633810   -3.0994100   -1.7166240  
C     2.8550840   -4.0558700   -0.9341370  
C     3.8451190   -3.3917450   -0.1361910  
C     3.7995550   -2.0120800   -0.4763090  
N     2.8314000   -1.8694950   -1.4482050  
C     4.6546270   -1.0385990    0.0936640  
C     5.5831110   -1.5374270    1.0067820  
O     6.4946650   -0.6773770    1.5947020  
C     5.6464090   -2.9051980    1.3609130  
O     6.6332150   -3.1892630    2.2878470  
C     4.7874150   -3.8356790    0.8110270  
H     2.6203380   -5.1111430   -0.9303890  
H     2.5659440   -0.9928710   -1.8692910  
H     7.0314330   -1.2102140    2.2101430  
H     6.5977670   -4.1272380    2.5264950  
H     4.8512130   -4.8846040    1.0919670  
H     1.4765000   -3.1891250   -2.4522140  
C     1.1918070    1.8403340   -0.1481990  
C     2.0069210    0.7388950    0.0690900  
C     3.3352390    1.0950420   -0.3061880  
C     3.2881620    2.4498960   -0.7443470  
N     1.9872470    2.8903050   -0.6101570  
C     4.4159860    3.1511570   -1.1785250  
C     5.6229860    2.4737390   -1.1222880  
O     6.7686930    3.0891260   -1.4975750  
C     5.7053230    1.1208810   -0.6687450  
O     6.9828010    0.6157330   -0.6959360  
C     4.5815120    0.3955810   -0.2836840  
H     1.6858140   -0.1914750    0.5145620  
H     1.6197500    3.7028240   -1.0843280  
H     4.3834890    4.1825120   -1.5128900  
H     7.4820880    2.4387630   -1.3433210  
H     7.1247160    0.1104150    0.1360430  
C    -0.2103090    2.0037260    0.0864150  
C    -1.2051350    1.0567620    0.1949960  
C    -2.4497500    1.7238790    0.4224870  
C    -2.1343920    3.1673840    0.4404180  
N    -0.7736730    3.2866820    0.1834580  
C    -3.0269570    4.1639120    0.6640010  
C    -4.4211740    3.7962180    0.8416560  
O    -5.3125840    4.6100630    1.0290670  
C    -4.8080860    2.2729630    0.7597480  
O    -5.9926090    1.9950330    0.8779030  
C    -3.7490870    1.2561740    0.5733830  
H    -1.0651620   -0.0029330    0.0478460  
H    -2.7593720    5.2157960    0.6850320  
H    -0.2439190    4.0776950    0.5246500  
C    -3.2787990   -1.1644220    1.1323540  
C    -4.0665350   -0.1618970    0.6251120  
C    -5.2595310   -0.8891200    0.1107890  
C    -4.9649020   -2.3191810    0.4007240  
N    -3.8150360   -2.4616810    1.0087770  
C    -5.8697160   -3.3773890    0.0415410  
C    -7.0142120   -3.0422800   -0.6009940  
O    -7.9452930   -3.9229420   -1.0054090  
C    -7.3347780   -1.6134000   -0.9254110  
O    -8.3861280   -1.3840850   -1.5224870  
C    -6.3957710   -0.5419000   -0.5233460  
H    -5.6185870   -4.4052090    0.2792860  
H    -8.6432800   -3.3792640   -1.4333520  
H    -6.6905960    0.4778230   -0.7353640  
H    -2.3307760   -1.0483920    1.6424360  
