62


C     4.5447260   -0.1231460    0.2033260  
C     4.9981190   -0.4024530   -1.0893590  
C     6.4058070   -0.5679510   -1.0297400  
C     6.7883470   -0.3782420    0.3319980  
N     5.6502800   -0.1174410    1.0460650  
C     8.1200980   -0.4643370    0.7585450  
C     9.0802130   -0.7434170   -0.1999380  
O    10.3913950   -0.8376450    0.1569020  
C     8.7165850   -0.9352530   -1.5661090  
O     9.7928670   -1.2060110   -2.3895030  
C     7.4069660   -0.8517160   -1.9872390  
H     4.3928710   -0.4194630   -1.9826420  
H     5.5674250    0.1592780    2.0166050  
H     8.4167450   -0.3202830    1.7920110  
H    10.8978030   -1.0327570   -0.6506540  
H     9.4834020   -1.3136360   -3.3009650  
H     7.1526770   -1.0019980   -3.0346710  
C     0.4569760   -0.8104530   -1.4470960  
C     1.7961920   -0.8464590   -1.2164450  
C     2.0485660   -0.1198650    0.0049310  
C     0.7288500    0.3279730    0.4860820  
N    -0.2079020   -0.0947190   -0.4514070  
C     0.4951930    1.0172250    1.6406620  
C     1.6286980    1.3271810    2.4777880  
O     1.5649270    1.9601770    3.5239110  
C     3.0463460    0.8076780    2.0287220  
O     3.9629100    0.9474400    2.8297400  
C     3.2157610    0.1679270    0.6955650  
H     2.5220930   -1.3683710   -1.8183170  
H    -0.4931660    1.3359020    1.9502770  
H    -0.1204070   -1.2382210   -2.2553160  
C    -2.5427440   -0.8919220   -0.3379030  
C    -1.6048310    0.1031570   -0.3877340  
C    -2.2993980    1.3663920   -0.4194790  
C    -3.6811110    1.0659120   -0.3943210  
N    -3.8147460   -0.3302790   -0.3643760  
C    -4.6572200    2.0668620   -0.3530420  
C    -4.2263740    3.3856110   -0.3667700  
O    -5.1428580    4.3940020   -0.3286110  
C    -2.8436230    3.6989200   -0.4162860  
O    -2.5762940    5.0514500   -0.4323090  
C    -1.8791410    2.7076170   -0.4420690  
H    -5.7176450    1.8566690   -0.3202100  
H    -4.6498080    5.2327160   -0.3193490  
H    -1.6216980    5.1972170   -0.3530140  
H    -0.8223040    2.9608490   -0.4604920  
H    -2.4164830   -1.9600310   -0.2689270  
C    -4.8901840   -3.6520770    2.2025850  
C    -6.1618160   -3.8960860    1.8153930  
C    -6.4319740   -2.9301810    0.7535740  
C    -5.1571240   -2.1565310    0.6378130  
N    -4.2639700   -2.5823260    1.4788980  
C    -5.0099270   -1.0699760   -0.3239380  
C    -6.0706590   -0.8261320   -1.1481580  
O    -6.0674600    0.1022760   -2.1197370  
C    -7.3538920   -1.5854260   -1.0360330  
O    -8.2552840   -1.2950970   -1.8230940  
C    -7.4899710   -2.6604770   -0.0324710  
H    -6.8495150   -4.6369720    2.1985550  
H    -6.9610080    0.0480190   -2.5277330  
H    -8.4394730   -3.1854120    0.0060660  
H    -4.3134930   -4.1549970    2.9689940  
