64


C    -4.3528060    0.3947080   -2.1667470  
C    -5.4056310    1.1983280   -2.5091930  
C    -6.3122120    1.2061020   -1.3963930  
C    -5.7407170    0.3813980   -0.3915170  
N    -4.5362420   -0.1137570   -0.8835750  
C    -6.3508500    0.1788340    0.8571770  
C    -7.5678670    0.8067130    1.0843950  
O    -8.2013730    0.6437690    2.2816820  
C    -8.1585350    1.6237490    0.0854750  
O    -9.3694260    2.1751980    0.4598280  
C    -7.5462550    1.8328320   -1.1371980  
H    -5.5249750    1.7215510   -3.4481380  
H    -5.8928620   -0.4051480    1.6485700  
H    -9.0173960    1.1723080    2.2500240  
H    -9.6955370    2.7504170   -0.2478560  
H    -8.0135930    2.4732560   -1.8829640  
H    -3.4740970    0.1101790   -2.7271740  
C    -0.2270010    0.1521900    0.1937140  
C    -1.5013150    0.4377430   -0.2492730  
C    -2.3109210   -0.7171140   -0.0028340  
C    -1.4773490   -1.6960500    0.5984540  
N    -0.2024750   -1.1613580    0.6704450  
C    -1.9480260   -2.9438410    1.0176780  
C    -3.2913070   -3.2204530    0.8074310  
O    -3.8085210   -4.4201780    1.1954430  
C    -4.1427650   -2.2803910    0.1698290  
O    -5.4298650   -2.7284360   -0.0241220  
C    -3.6679770   -1.0353740   -0.2361290  
H    -1.8066150    1.3547110   -0.7322540  
H     0.5064640   -1.4967160    1.3071050  
H    -1.3154870   -3.6836780    1.4969870  
H    -4.7588890   -4.3994610    0.9836730  
H    -6.0251600   -1.9764600   -0.1873490  
C     0.9723180    0.9591870    0.1888570  
C     1.1361530    2.3262870    0.2593980  
C     2.5411150    2.5970360    0.2135890  
C     3.2047960    1.3466130    0.1116760  
N     2.2339320    0.3619840    0.1388970  
C     4.6087450    1.2178260    0.0552650  
C     5.3380380    2.4100210    0.1008310  
O     6.6928430    2.3719630   -0.0109590  
C     4.6883940    3.6656110    0.2145750  
O     5.5595690    4.7382860    0.2416700  
C     3.3122480    3.7744630    0.2759730  
H     0.3388350    3.0459070    0.3840950  
H     2.3878620   -0.5837450   -0.1795240  
H     7.0223180    3.2743110    0.1443500  
H     5.0693630    5.5471630    0.4500570  
H     2.8387460    4.7503780    0.3608130  
C     4.3236420   -2.1986630   -2.7764730  
C     4.1863300   -1.0007620   -2.1513410  
C     5.0398970   -1.0245300   -0.9763060  
C     5.6994590   -2.3520770   -0.9781440  
N     5.2071280   -3.0197680   -2.0840230  
C     6.6155920   -2.7701460   -0.0661010  
C     6.9785090   -1.8543630    1.0036300  
O     7.8249690   -2.1075980    1.8480440  
C     6.2290610   -0.4726780    1.0853180  
O     6.4106210    0.2224130    2.0670150  
C     5.2872500   -0.0915320   -0.0055460  
H     3.5808900   -0.1707480   -2.4834020  
H     7.1031040   -3.7392960   -0.1078420  
H     3.8596450   -2.5549960   -3.6867220  
H     5.5103650   -3.9329700   -2.3838830  
