60


C     3.6545300   -0.1913390   -0.2425920  
C     4.0835860   -0.7141290   -1.4368920  
C     5.3669210   -1.3063490   -1.1915380  
C     5.6709090   -1.0995930    0.1795360  
N     4.6107140   -0.4094520    0.7391840  
C     6.8614110   -1.5432080    0.7669440  
C     7.7629840   -2.2112040   -0.0467760  
O     8.9347710   -2.6699330    0.4742150  
C     7.4791130   -2.4230500   -1.4242490  
O     8.4773680   -3.0981930   -2.0966230  
C     6.3035700   -1.9815070   -2.0004830  
H     3.5586990   -0.6469760   -2.3797100  
H     4.4808860   -0.2200260    1.7213430  
H     7.0984770   -1.3854040    1.8138760  
H     9.4288410   -3.0936300   -0.2489470  
H     8.2410690   -3.1856260   -3.0319150  
H     6.1085460   -2.1535060   -3.0568830  
C     1.1837520   -0.0432730   -0.2589040  
C     0.1868290    0.8269200    0.0706920  
C     0.8361250    1.9904910    0.6701130  
C     2.2920920    1.7182010    0.6361650  
N     2.4455560    0.4485340    0.0717670  
C     3.2442610    2.5760390    1.0789080  
C     2.8157500    3.8476240    1.6626580  
O     3.6013260    4.6810400    2.0840770  
C     1.2746950    4.1344940    1.7582180  
O     0.8936110    5.1696800    2.2785500  
C     0.3470540    3.1347360    1.2139130  
H     4.3073120    2.3694440    1.0197410  
H    -0.7142490    3.3544940    1.2672570  
H     1.1115830   -1.0157630   -0.7274660  
C    -1.9289090   -0.5147380    0.2936380  
C    -1.2468080    0.5943170   -0.0998500  
C    -2.2114930    1.4550920   -0.7801760  
C    -3.5094890    0.7423190   -0.7505350  
N    -3.2738670   -0.4838940   -0.0996940  
C    -4.6650800    1.2644470   -1.2211260  
C    -4.6292020    2.5822970   -1.8630930  
O    -5.6281120    3.1188480   -2.3123340  
C    -3.2485540    3.3147850   -1.9765270  
O    -3.1889240    4.3919710   -2.5447850  
C    -2.0768120    2.6670910   -1.3754550  
H    -5.6194850    0.7549490   -1.1824540  
H    -1.1311170    3.1970250   -1.4182330  
H    -1.5615080   -1.3807320    0.8266520  
C    -4.1379910   -2.7248510    3.6118520  
C    -3.5950790   -1.8136490    2.7657500  
C    -4.2584870   -2.0454840    1.4877540  
C    -5.1906310   -3.1744400    1.7620260  
N    -5.1163660   -3.5655200    3.0041870  
C    -6.0638390   -3.7132280    0.7501810  
C    -6.0185850   -3.1639410   -0.4843730  
O    -6.7829000   -3.5630350   -1.5149780  
C    -5.0758600   -2.0446790   -0.8199640  
O    -5.0291390   -1.6635480   -1.9844000  
C    -4.2027350   -1.4707970    0.2566980  
H    -2.8628430   -1.0521310    2.9929690  
H    -6.7328720   -4.5308420    0.9935630  
H    -6.5038660   -3.0258550   -2.2866340  
H    -3.9199160   -2.8641060    4.6638870  
