60


C    -3.0743750   -2.4019310    0.7664520  
C    -4.0257850   -3.3322170    1.0254520  
C    -5.3128250   -2.7359520    0.7534800  
C    -5.0861070   -1.4099850    0.3219940  
N    -3.6793340   -1.2054670    0.3315270  
C    -6.1312160   -0.5523070   -0.0248590  
C    -7.4270840   -1.0509950    0.0696930  
O    -8.4745850   -0.2463180   -0.2589240  
C    -7.6684420   -2.3769700    0.5009450  
O    -8.9996000   -2.7237070    0.5417900  
C    -6.6235290   -3.2228910    0.8429420  
H    -3.8427350   -4.3390930    1.3759500  
H    -5.9584960    0.4622040   -0.3530290  
H    -9.2916830   -0.7571750   -0.1256230  
H    -9.0951180   -3.6330760    0.8621660  
H    -6.8203100   -4.2405220    1.1728420  
H    -2.0015150   -2.4616760    0.8520930  
C    -2.9749430   -0.0885250   -0.0002800  
C    -1.5898470    0.0765030    0.0164480  
C    -1.3803520    1.4118040   -0.3881540  
C    -2.7631360    1.9605000   -0.6394580  
N    -3.6843910    1.0632220   -0.4054300  
C    -2.9838410    3.3089980   -1.0613970  
C    -1.8855060    4.0851230   -1.2373760  
O    -1.9215590    5.3595800   -1.6132910  
C    -0.4625410    3.5688740   -1.0329530  
O     0.4403350    4.3721730   -1.2847300  
C    -0.2702760    2.2051200   -0.5774590  
H    -0.8358690   -0.6385750    0.3055520  
H    -3.9896900    3.6804360   -1.2194050  
H    -0.9738340    5.6339380   -1.6748260  
C     1.5686330    0.6319600   -1.1520230  
C     2.8523610    0.3445080   -0.7961060  
C     3.2119650    1.3006120    0.2476410  
C     2.0223920    2.1588080    0.4565810  
N     1.0471610    1.7093210   -0.4346940  
C     1.9519580    3.1536560    1.3740350  
C     3.1307450    3.4308260    2.1926070  
O     3.1562990    4.3049050    3.0450450  
C     4.4177330    2.5614630    1.9559460  
O     5.4211150    2.7941200    2.6103830  
C     4.3571140    1.4938250    0.9514320  
H     1.0714990    3.7681000    1.5220510  
H     5.2440980    0.8849830    0.8089750  
H     0.9454220    0.1428980   -1.8891230  
C     3.9807320   -0.8407160   -2.7177370  
C     3.7050580   -0.6857210   -1.3905080  
C     4.3886290   -1.7780370   -0.6994690  
C     5.0799660   -2.5691740   -1.7476780  
N     4.7768610   -1.9550190   -2.9481040  
C     5.8361700   -3.6700530   -1.5079180  
C     5.9704660   -4.1327200   -0.1292850  
O     6.6264090   -5.1140690    0.1837730  
C     5.2190100   -3.3296240    0.9949540  
O     5.2927250   -3.7173350    2.1495000  
C     4.4478820   -2.1418650    0.6076560  
H     6.3385790   -4.2317500   -2.2895250  
H     3.9446920   -1.5896590    1.3948500  
H     3.6660730   -0.2194120   -3.5461190  
H     5.1616410   -2.2181940   -3.8418600  
