62


C     2.2396660   -1.3399610    0.0374000  
C     2.6755810   -2.6124410    0.3679400  
C     4.0937180   -2.6289390    0.2406590  
C     4.4913320   -1.3280270   -0.1794550  
N     3.3539970   -0.5532130   -0.2612780  
C     5.8264110   -0.9908410   -0.4302240  
C     6.7789620   -1.9793800   -0.2410290  
O     8.0920290   -1.7078840   -0.4691080  
C     6.4022450   -3.2833370    0.1959430  
O     7.4710800   -4.1432350    0.3408650  
C     5.0860350   -3.6149250    0.4389260  
H     2.0404110   -3.4195120    0.7061620  
H     3.2993500    0.3308100   -0.7467420  
H     6.1354180   -0.0026320   -0.7543380  
H     8.5955610   -2.5180640   -0.2763500  
H     7.1565920   -5.0089350    0.6410290  
H     4.8193650   -4.6166330    0.7688530  
C     0.9147100   -0.7892320    0.0109760  
C    -0.3057720   -1.4118490   -0.0722300  
C    -1.3294010   -0.4079340   -0.0564120  
C    -0.6241170    0.8872810    0.0330750  
N     0.7404720    0.6072040    0.0051470  
C    -1.2001960    2.1186360    0.1229530  
C    -2.6762280    2.1450200    0.0481000  
O    -3.3179630    3.1779900   -0.0066800  
C    -3.4576650    0.7824990   -0.0188820  
O    -4.6756260    0.8273370    0.0495100  
C    -2.7012670   -0.4793970   -0.1293070  
H    -0.4632730   -2.4755210   -0.1556640  
H     1.3880130    1.2277660    0.4758200  
C    -2.7990810   -4.1018690    2.4074890  
C    -3.7691140   -4.8367520    1.8180540  
C    -4.2000970   -4.0433280    0.6715630  
C    -3.3409510   -2.8124740    0.7321340  
N    -2.5277050   -2.8592660    1.7476680  
C    -3.4637500   -1.7364300   -0.2410730  
C    -4.3927550   -1.9255180   -1.2242440  
O    -4.5946620   -1.0579010   -2.2248810  
C    -5.2600920   -3.1487810   -1.3073860  
O    -6.0587530   -3.2221570   -2.2407000  
C    -5.1234040   -4.2102060   -0.2928260  
H    -4.1612650   -5.7983880    2.1187120  
H    -5.3317560   -1.4345360   -2.7543080  
H    -5.7763790   -5.0730660   -0.3828760  
H    -2.2275650   -4.3428340    3.2962340  
C     1.8618630    3.8442640   -2.5871620  
C     2.1125990    4.9884590   -1.8764400  
C     1.2769040    4.9530010   -0.7085690  
C     0.5370800    3.7433010   -0.7636080  
N     0.9248270    3.0807630   -1.9116230  
C    -0.4195900    3.3710180    0.2080490  
C    -0.6039120    4.2700360    1.2619020  
O    -1.4670970    3.9608660    2.2657590  
C     0.1306460    5.4824690    1.3309840  
O    -0.1655540    6.2459370    2.4458790  
C     1.0609780    5.8316930    0.3710180  
H     2.8072080    5.7697860   -2.1531940  
H     0.4926350    2.2386340   -2.2581570  
H    -1.5336670    4.7421960    2.8418200  
H     0.2357270    7.1222920    2.3516180  
H     1.6114970    6.7669380    0.4515140  
H     2.2753370    3.4993430   -3.5245780  
