60


C    -3.2033210    0.8340280   -1.7596700  
C    -4.5071410    1.2328720   -1.7881900  
C    -5.1914520    0.5325210   -0.7343720  
C    -4.2401250   -0.3037940   -0.0994250  
N    -3.0111690   -0.1055030   -0.7394210  
C    -4.5618150   -1.0962410    1.0078940  
C    -5.8710740   -1.0616410    1.4629930  
O    -6.2356890   -1.8240340    2.5346320  
C    -6.8388640   -0.2408410    0.8285350  
O    -8.0964020   -0.3119250    1.3965090  
C    -6.5140050    0.5535070   -0.2566400  
H    -4.9419780    1.9288900   -2.4930640  
H    -3.8475410   -1.7475030    1.4950410  
H    -7.1880970   -1.6874700    2.6755710  
H    -8.7192310    0.2069730    0.8665840  
H    -7.2666150    1.1875000   -0.7215700  
H    -2.3770310    1.0846390   -2.4083310  
C     0.9552640    1.6632130   -0.1965960  
C    -0.4030150    1.4371090   -0.3310290  
C    -0.6186460    0.0259310   -0.3387480  
C     0.7181350   -0.5988640   -0.2182040  
N     1.6228770    0.4370420   -0.1647010  
C     0.9519300   -1.9556820   -0.2059900  
C    -0.2575170   -2.7979570   -0.1007650  
O    -0.2320670   -3.9703820    0.2311080  
C    -1.6712440   -2.1744940   -0.3804480  
O    -2.6135450   -2.9292100   -0.5483120  
C    -1.7796690   -0.7085750   -0.4436380  
H    -1.1807150    2.1825830   -0.3290210  
H     2.5363150    0.3217930    0.2808190  
C    -0.0995670    5.8302190   -1.3822160  
C    -0.0708290    4.4740980   -1.2407220  
C     1.1146630    4.1369670   -0.4944900  
C     1.7942580    5.4226060   -0.2212440  
N     0.9913170    6.4097910   -0.7614260  
C     2.9746270    5.5698350    0.4369580  
C     3.6539980    4.3690730    0.8849820  
O     4.7134350    4.3754820    1.4927690  
C     2.9960100    2.9797460    0.5576380  
O     3.6432010    1.9812180    0.8342290  
C     1.6485500    2.9303800   -0.0648240  
H    -0.7927250    3.7891140   -1.6539270  
H     3.4315270    6.5333660    0.6393380  
H    -0.8261420    6.4485790   -1.8922020  
H     1.2190110    7.3917740   -0.7721900  
C     4.7724360   -1.1261170    1.9122500  
C     5.5138740   -2.2058180    1.5785870  
C     4.6754170   -2.9845450    0.6742180  
C     3.3950540   -2.2041630    0.5929840  
N     3.4712620   -1.1243410    1.3154250  
C     2.2612900   -2.6301800   -0.2129340  
C     2.4835500   -3.7451860   -0.9796140  
O     1.6044910   -4.2208850   -1.8676730  
C     3.7558830   -4.5429600   -0.9221060  
O     3.8374450   -5.5356530   -1.6451280  
C     4.8524000   -4.1125510   -0.0372070  
H     6.5210440   -2.4479570    1.8875180  
H     2.0133980   -5.0380310   -2.2313440  
H     5.7545870   -4.7163470   -0.0281250  
H     5.0429090   -0.2886940    2.5428740  
