62


C     4.7810410    0.4897460    0.1320540  
C     4.2677310   -0.7901160   -0.0804630  
C     5.3643190   -1.6889570   -0.1130770  
C     6.5493540   -0.9180910    0.0852860  
N     6.1685550    0.3890010    0.2300120  
C     7.8262520   -1.4930820    0.1104920  
C     7.9112160   -2.8647310   -0.0668650  
O     9.1269850   -3.4785700   -0.0519430  
C     6.7384400   -3.6521830   -0.2666030  
O     7.0013920   -5.0001480   -0.4264910  
C     5.4822920   -3.0872020   -0.2913050  
H     3.2187050   -1.0158750   -0.1946740  
H     6.7699340    1.1851940    0.3837990  
H     8.7312430   -0.9137690    0.2605900  
H     8.9718950   -4.4288290   -0.1929950  
H     6.1691020   -5.4766700   -0.5618620  
H     4.5998870   -3.7050600   -0.4450810  
C     0.4836900    1.4651930   -0.0813340  
C     0.5257960    2.8228640    0.1003270  
C     1.9209100    3.1587510    0.2562130  
C     2.6378830    1.8534070    0.1417930  
N     1.8055770    0.8815230   -0.0525100  
C     4.1027830    1.7588930    0.2465640  
C     4.7427220    2.9576020    0.4566070  
O     6.0932670    3.0713150    0.5801760  
C     4.0535810    4.2580000    0.5728080  
O     4.7517710    5.2664630    0.7621380  
C     2.5897180    4.3138230    0.4621680  
H    -0.3147280    3.4973170    0.1169220  
H     6.2374480    4.0371630    0.7191510  
H     2.1172960    5.2873250    0.5524040  
C    -3.7651950    2.5168110   -0.3429790  
C    -4.3733930    1.3075290   -0.4785430  
C    -3.2480470    0.3486260   -0.4914760  
C    -2.0239530    1.1863810   -0.3291350  
N    -2.3473890    2.4460650   -0.2547300  
C    -0.6734420    0.6130980   -0.2827890  
C    -0.6136100   -0.7562660   -0.4515350  
O     0.5007640   -1.4972290   -0.4478030  
C    -1.8382040   -1.5977380   -0.6624830  
O    -1.6752320   -2.8135060   -0.7993340  
C    -3.1713820   -0.9784010   -0.6858820  
H     0.1801410   -2.4185240   -0.5946930  
H    -4.0259100   -1.6271200   -0.8495300  
H    -4.2396360    3.4886720   -0.2822140  
C    -6.6464620    1.7381890   -1.4624190  
C    -5.7849620    1.0107530   -0.6626620  
C    -6.5812200   -0.0435010   -0.0656950  
C    -7.9044700    0.1076920   -0.5509680  
N    -7.9104030    1.2031560   -1.3953910  
C    -8.9564700   -0.7326980   -0.1685320  
C    -8.6700630   -1.7467400    0.7318730  
O    -9.6563540   -2.5967240    1.1353870  
C    -7.3556060   -1.9032090    1.2472500  
O    -7.2322720   -2.9441490    2.1459250  
C    -6.3207050   -1.0687190    0.8666960  
H    -8.7068480    1.5276520   -1.9215660  
H    -9.9690180   -0.6161160   -0.5410680  
H    -9.2595370   -3.2213670    1.7669320  
H    -6.3185940   -2.9953070    2.4635450  
H    -5.3291900   -1.2000090    1.2932590  
H    -6.4324190    2.5831470   -2.1013410  
