64


C    -4.6618350    0.0340040   -0.0618390  
C    -5.4922630    1.1262990   -0.2864980  
C    -6.8367680    0.7075900   -0.0481410  
C    -6.7805390   -0.6641040    0.3229660  
N    -5.4594310   -1.0433150    0.2965120  
C    -7.9246750   -1.4073300    0.6402540  
C    -9.1468210   -0.7564110    0.5839540  
O   -10.2941370   -1.4330420    0.8842820  
C    -9.2223280    0.6147180    0.2151170  
O   -10.5111260    1.1178530    0.2045960  
C    -8.0936210    1.3465820   -0.0990200  
H    -5.1698760    2.1357460   -0.5007350  
H    -5.0741790   -1.9191320    0.6193160  
H    -7.8862190   -2.4538250    0.9244490  
H   -11.0303720   -0.8042830    0.7912430  
H   -10.4877630    2.0563750   -0.0330320  
H    -8.1782670    2.3953560   -0.3780540  
C    -1.7853930    2.3308560   -2.4682500  
C    -0.6349090    1.7450920   -2.0068630  
C    -1.0202790    0.7548060   -1.0345810  
C    -2.4351250    0.7959380   -0.9533230  
N    -2.8697740    1.7811000   -1.8161340  
C    -3.2112340   -0.0806770   -0.1575780  
C    -2.4692530   -1.0733690    0.4936610  
O    -3.0999960   -2.0296660    1.2449740  
C    -1.0550610   -1.1331710    0.4381400  
O    -0.5224210   -2.1430800    1.2107110  
C    -0.2902500   -0.2074220   -0.2774100  
H     0.3667900    1.9654160   -2.3463100  
H    -3.8362270    1.8968070   -2.0823520  
H    -2.3811990   -2.5982060    1.5876100  
H     0.1879500   -2.5792600    0.6885290  
H    -1.9247790    3.1010460   -3.2136690  
C     2.5499470    3.0972900    0.3891610  
C     3.7158640    2.3779370    0.3249380  
C     3.3572880    1.0074140    0.0974270  
C     1.9370280    0.9681310    0.0109190  
N     1.4782450    2.2500780    0.2212600  
C     1.1879640   -0.2056730   -0.2275980  
C     1.9676430   -1.3531860   -0.3938190  
O     1.3589570   -2.5672180   -0.6309480  
C     3.3779270   -1.3523560   -0.3404210  
O     3.9311050   -2.6040950   -0.5195000  
C     4.1130820   -0.1936500   -0.0616800  
H     4.7106220    2.7799370    0.4432380  
H     0.5117130    2.5261330    0.1302500  
H     2.0959810   -3.2026540   -0.7472750  
H     4.6762350   -2.4974580   -1.1506250  
H     2.3946810    4.1548200    0.5497370  
C     6.9824440    1.4784460    2.9451240  
C     5.8352040    1.0785040    2.3486720  
C     6.2512730    0.4300000    1.1056350  
C     7.7336730    0.5407080    1.1298160  
N     8.1601510    1.1593870    2.1951330  
C     8.5566730    0.0066960    0.0739350  
C     7.9356700   -0.6526690   -0.9288210  
O     8.5819060   -1.2350840   -1.9580830  
C     6.4507910   -0.8396920   -0.9409170  
O     6.0029590   -1.5578320   -1.8479850  
C     5.5808230   -0.1870540    0.0872400  
H     4.8221670    1.1892830    2.7048940  
H     9.6344680    0.1183060    0.1125280  
H     7.8886160   -1.6692830   -2.4976560  
H     7.0997060    1.9859690    3.8949300  
