62


C     1.6563670   -1.6046290    2.9676960  
C     1.3212720   -1.7110160    1.6360960  
C     2.5711130   -1.7419810    0.9056570  
C     3.6181400   -1.6516380    1.8599150  
N     3.0284640   -1.5627430    3.1047710  
C     4.9714370   -1.6520700    1.4993370  
C     5.2766370   -1.7416230    0.1501870  
O     6.5782470   -1.7486960   -0.2525930  
C     4.2433280   -1.8230320   -0.8228920  
O     4.7067400   -1.8993390   -2.1189580  
C     2.9059740   -1.8162020   -0.4658360  
H     3.5234120   -1.5187510    3.9817630  
H     5.7743140   -1.5865370    2.2264450  
H     6.5809020   -1.8430350   -1.2210850  
H     3.9677460   -2.0652070   -2.7233910  
H     2.1321910   -1.8922200   -1.2260340  
H     1.0116510   -1.5711640    3.8345760  
C    -1.0161090   -0.8156740    1.3312960  
C    -0.0318630   -1.7218340    1.0772810  
C    -0.5948240   -2.6821920    0.1368110  
C    -1.9853470   -2.2435130   -0.1356710  
N    -2.2010500   -1.1070600    0.6464560  
C    -2.8180080   -2.8613230   -1.0090990  
C    -2.3351530   -4.0499320   -1.7101250  
O    -3.0143090   -4.6629480   -2.5199150  
C    -0.8798840   -4.5556490   -1.4026050  
O    -0.4641760   -5.5519560   -1.9751960  
C    -0.0742720   -3.7936040   -0.4475770  
H    -3.8320840   -2.5346250   -1.2014320  
H     0.9344740   -4.1388310   -0.2446760  
H    -0.9747130    0.0624670    1.9580700  
C    -2.1346690    3.1270120   -0.1824690  
C    -3.4882170    3.4071070   -0.1747650  
C    -4.1549380    2.1795790    0.1074910  
C    -3.0373240    1.1869320    0.2572560  
N    -1.8740120    1.7337110    0.0907310  
C    -3.2895640   -0.2114920    0.5558160  
C    -4.5894820   -0.5800880    0.7158500  
O    -4.9901030   -1.8195770    1.0069410  
C    -5.7344700    0.4034530    0.5546830  
O    -6.8640060   -0.0715460    0.7216720  
C    -5.4556090    1.7909700    0.2470260  
H    -3.9629420    4.3623260   -0.3510650  
H    -5.9767070   -1.7522280    1.0402790  
H    -6.3015820    2.4626550    0.1454110  
C    -1.0918010    5.3532860   -0.6623000  
C    -1.0135820    3.9823460   -0.4040800  
C     0.4050700    3.6500550   -0.4048330  
C     1.1053740    4.8501910   -0.6623140  
N     0.1591600    5.8594610   -0.8135930  
C     2.4993090    4.9290980   -0.7349430  
C     3.2066570    3.7528510   -0.5402710  
O     4.5656620    3.7575500   -0.5967990  
C     2.5255060    2.5305080   -0.2815300  
O     3.3768010    1.4678430   -0.1130420  
C     1.1436580    2.4656480   -0.2132320  
H     0.3717500    6.8270940   -1.0074710  
H     3.0312330    5.8536950   -0.9337120  
H     4.8586260    2.8413060   -0.4419650  
H     2.8955780    0.6329350    0.0245870  
H     0.6335490    1.5286230   -0.0195050  
H    -1.9625380    5.9879760   -0.7433500  
