64


C    -0.4315460   -2.1589420   -0.3328410  
C    -1.2877040   -1.0755450   -0.3166300  
C    -2.5838960   -1.5361960   -0.7063740  
C    -2.4720890   -2.9317440   -0.9459590  
N    -1.1643910   -3.3004320   -0.6731400  
C    -3.5503090   -3.7219330   -1.3527080  
C    -4.7715640   -3.0836410   -1.5123140  
O    -5.8599740   -3.7939970   -1.9254050  
C    -4.9093810   -1.6936090   -1.2618200  
O    -6.1872550   -1.2186560   -1.4855530  
C    -3.8432060   -0.8938810   -0.8548120  
H    -1.0230890   -0.0773140    0.0011010  
H    -0.7349040   -4.1287320   -1.0606250  
H    -3.4681850   -4.7868440   -1.5437410  
H    -6.5935440   -3.1602510   -2.0139500  
H    -6.1798740   -0.2489610   -1.4131650  
C     0.9714980   -2.2400150   -0.0183580  
C     1.9560050   -1.2663970   -0.0688330  
C     3.1772380   -1.8578470    0.3604790  
C     2.8920590   -3.2214550    0.6573480  
N     1.5535580   -3.4398670    0.3815480  
C     3.8468930   -4.1188410    1.1248840  
C     5.1436810   -3.6425440    1.3040960  
O     6.0994130   -4.4741030    1.8063250  
C     5.4763920   -2.3146800    0.9746420  
O     6.7926070   -1.9986330    1.2185370  
C     4.5273080   -1.3909260    0.4831570  
H     1.8236860   -0.2478630   -0.3947510  
H     1.0222980   -4.2080250    0.7656660  
H     3.6188440   -5.1521810    1.3662710  
H     6.9137760   -3.9474800    1.8940570  
H     6.8713060   -1.0294310    1.3000840  
C    -3.2318150    1.5567530   -1.1552400  
C    -4.0205230    0.5526040   -0.6327280  
C    -5.0408980    1.2156300    0.1577940  
C    -4.8078790    2.6121520    0.0610700  
N    -3.7000820    2.7856420   -0.7436650  
C    -5.5993120    3.5607350    0.7205030  
C    -6.6459840    3.0917520    1.4984340  
O    -7.4501570    3.9726540    2.1597010  
C    -6.8877500    1.6967630    1.6198400  
O    -7.9580070    1.3873040    2.4365760  
C    -6.1049480    0.7620810    0.9685780  
H    -3.2946660    3.6743270   -0.9930800  
H    -5.4207920    4.6288060    0.6491970  
H    -8.1029900    3.4498580    2.6565960  
H    -8.0429450    0.4249930    2.5085670  
H    -6.3030010   -0.3003900    1.0866930  
H    -2.3773680    1.4813100   -1.8124500  
C     4.9156430   -0.0406380    0.1514850  
C     6.1681910    0.4633560   -0.1719260  
C     5.9885840    1.8695420   -0.3851890  
C     4.5286540    2.0954070   -0.1300040  
N     3.9113910    0.9872630    0.1651520  
C     3.9409670    3.4051210   -0.2230890  
C     4.7542110    4.4279100   -0.5784880  
O     4.3568350    5.6982750   -0.7151850  
C     6.2314280    4.2283020   -0.8645230  
O     6.8678120    5.2389850   -1.1807230  
C     6.8046330    2.8969830   -0.7480660  
H     7.0665010   -0.0922840   -0.4035780  
H     2.8855200    3.5474090   -0.0194410  
H     5.1735100    6.1853820   -0.9781680  
H     7.8649140    2.7872380   -0.9532020  
