62


C     1.5087850   -0.2550100    0.1266140  
C     2.8650710   -0.1768900   -0.0711430  
C     3.1505470    1.2092730   -0.3959640  
C     1.9312890    1.9219210   -0.3686690  
N     0.9202730    1.0068240   -0.0264010  
C     1.8470200    3.2747020   -0.7211980  
C     3.0273840    3.9222770   -1.0622990  
O     2.9952310    5.2388940   -1.3996960  
C     4.2622090    3.2229360   -1.0745740  
O     5.3388990    4.0005890   -1.4379000  
C     4.3322340    1.8782010   -0.7599640  
H     0.9139270    3.8217090   -0.7761220  
H     3.9017910    5.5047500   -1.6334840  
H     6.1402850    3.4568390   -1.4724590  
H     5.2789140    1.3459570   -0.7908790  
H     0.9074290   -1.0828430    0.4727730  
C    -0.4272450    1.2427000    0.1529760  
C    -1.4796430    0.3804660   -0.0046410  
C    -2.6750220    1.0825920    0.3773660  
C    -2.2450900    2.4451460    0.7672790  
N    -0.8677630    2.5012650    0.5659530  
C    -3.0666910    3.4244840    1.2113670  
C    -4.4964530    3.1360520    1.2919470  
O    -5.3185490    3.9598070    1.6589170  
C    -4.9870390    1.7008240    0.8879270  
O    -6.1620830    1.4224800    1.0558630  
C    -3.9983230    0.7182540    0.3900280  
H    -1.4259370   -0.6193570   -0.4061860  
H    -2.7241690    4.4191380    1.4796840  
H    -0.2688430    3.1522300    1.0544810  
C    -3.1812990   -3.4485540    1.7674350  
C    -3.1826280   -2.0996530    1.6126820  
C    -4.0924230   -1.7882330    0.5270580  
C    -4.6337690   -3.0887910    0.0629300  
N    -4.0232170   -4.0547560    0.8408410  
C    -5.5624740   -3.2438380   -0.9161090  
C    -6.0670320   -2.0497370   -1.5772600  
O    -6.9239020   -2.0744990   -2.4476490  
C    -5.4605070   -0.6615020   -1.1590360  
O    -5.7584790    0.3226390   -1.8101610  
C    -4.4902790   -0.6035250   -0.0309860  
H    -2.6196890   -1.3877820    2.1965830  
H    -5.9596490   -4.2086700   -1.2162270  
H    -2.6376720   -4.0574860    2.4777840  
H    -4.2458410   -5.0372960    0.8121560  
C     6.7481710   -0.7185160    2.1618490  
C     5.5750300   -0.2114730    1.6648560  
C     5.0177780   -1.2079900    0.7911750  
C     5.9084890   -2.3138450    0.8085780  
N     6.9554740   -1.9832980    1.6453190  
C     5.6763250   -3.4931710    0.0907500  
C     4.5137950   -3.5593600   -0.6594650  
O     4.2376070   -4.6784430   -1.3902680  
C     3.6009450   -2.4740370   -0.6839280  
O     2.4946020   -2.6970120   -1.4785090  
C     3.8279520   -1.2898660    0.0185720  
H     5.1506220    0.7527250    1.9044630  
H     7.7341580   -2.5837670    1.8660700  
H     6.3600550   -4.3358650    0.1001390  
H     3.4101170   -4.5054600   -1.8723590  
H     2.0229540   -1.8520700   -1.5885580  
H     7.4589140   -0.2836760    2.8504520  
