62


C     2.1662200    1.2978010    0.0032640  
C     3.1583640    0.3598900    0.0450760  
C     2.4994700   -0.9233670    0.2548440  
C     1.1057740   -0.6922860    0.2992060  
N     0.9101190    0.7009950    0.1415610  
C     0.1861150   -1.7167310    0.5344190  
C     0.6872880   -2.9971550    0.7358070  
O    -0.1769300   -4.0283730    0.9777110  
C     2.0789790   -3.2433350    0.7120890  
O     2.4283250   -4.5574660    0.9449630  
C     2.9872890   -2.2222380    0.4760430  
H    -0.8781930   -1.5342000    0.5642110  
H     0.3616020   -4.8300020    1.0953820  
H     3.3933310   -4.6370510    0.9797670  
H     4.0555510   -2.4212650    0.4905170  
H     2.2472730    2.3630330   -0.1351960  
C    -0.2648630    1.4087980    0.1480140  
C    -0.4267380    2.7795040    0.1890890  
C    -1.8350610    2.9852340    0.1600820  
C    -2.4204550    1.5942710    0.0913400  
N    -1.4831730    0.6856930    0.0909640  
C    -3.8450990    1.3545710    0.0221820  
C    -4.6263650    2.4754630    0.0642290  
O    -5.9537960    2.4490660    0.0653020  
C    -4.0667200    3.8910180    0.1520960  
O    -4.9102260    4.7939480    0.1868890  
C    -2.6371160    4.0882470    0.1883130  
H     0.3333100    3.5426100    0.2592080  
H    -6.2210010    3.4014140    0.0851480  
H    -2.2637020    5.1058100    0.2353600  
C    -3.4766380   -2.4944120    2.2579010  
C    -3.3937030   -1.1973630    1.8662820  
C    -4.1653330   -1.0609040    0.6486610  
C    -4.7296150   -2.4064280    0.3718180  
N    -4.2859070   -3.2234550    1.3921390  
C    -5.5320190   -2.7157420   -0.6791890  
C    -5.8701460   -1.6561510   -1.6150050  
O    -6.6098280   -1.8162330   -2.5746250  
C    -5.2440030   -0.2318630   -1.3817490  
O    -5.4380830    0.6262420   -2.2243720  
C    -4.4126650    0.0053400   -0.1723360  
H    -2.8365320   -0.4154550    2.3571260  
H    -5.9435100   -3.7063730   -0.8464950  
H    -3.0189560   -2.9854630    3.1060480  
H    -4.4202860   -4.2215420    1.4250460  
C     6.2178310   -1.7102060   -2.3922000  
C     7.3006810   -0.9679340   -1.9996710  
C     6.8235730    0.0128100   -1.0660770  
C     5.4271200   -0.1941610   -0.9208670  
N     5.0874410   -1.2520060   -1.7410950  
C     4.5993790    0.6078290   -0.1004270  
C     5.2390970    1.6661260    0.5537530  
O     4.5194130    2.5165160    1.3459670  
C     6.6357750    1.8774920    0.4264920  
O     7.0993610    2.9539450    1.1625130  
C     7.4321240    1.0698500   -0.3616690  
H     8.3185000   -1.0965990   -2.3413980  
H     4.1482020   -1.5911880   -1.8813820  
H     5.1557770    3.1362170    1.7441890  
H     8.0606320    3.0212910    1.0664450  
H     8.4999620    1.2607570   -0.4474800  
H     6.1515650   -2.5355420   -3.0871250  
