62


C    -2.7659020   -1.2626890    2.6173000  
C    -2.7527830   -0.8848510    1.2945180  
C    -3.4048730   -1.9174460    0.5331790  
C    -3.7972750   -2.9079910    1.4673870  
N    -3.3890930   -2.4854580    2.7194120  
C    -4.4631300   -4.0798970    1.0858620  
C    -4.7339210   -4.2504400   -0.2619990  
O    -5.3825200   -5.3698070   -0.6872210  
C    -4.3406310   -3.2666850   -1.2123200  
O    -4.6783630   -3.5871940   -2.5102380  
C    -3.6827690   -2.1122090   -0.8349000  
H    -3.5418080   -2.9864010    3.5808250  
H    -4.7673290   -4.8423660    1.7953990  
H    -5.4764190   -5.3025280   -1.6533410  
H    -4.4070970   -2.8727750   -3.1057520  
H    -3.3913640   -1.3716910   -1.5755490  
H    -2.3882380   -0.7444170    3.4866090  
C    -0.8488230    0.6404350    0.9242250  
C    -0.6043180    1.9038890    0.3862850  
C    -1.8867370    2.3672630   -0.1250390  
C    -2.8243590    1.3374170    0.1259080  
N    -2.1607730    0.2953620    0.7861950  
C    -4.1703200    1.4115340   -0.2430680  
C    -4.5838910    2.5554200   -0.9096970  
O    -5.8832340    2.6868690   -1.2953990  
C    -3.6585340    3.5925480   -1.1919720  
O    -4.2113270    4.6651190   -1.8611040  
C    -2.3312970    3.5131960   -0.8118210  
H    -4.8783420    0.6198690   -0.0278360  
H    -5.9715130    3.5574380   -1.7212590  
H    -3.5488450    5.3661130   -1.9535890  
H    -1.6557480    4.3372170   -1.0103000  
H    -0.1706500   -0.0177910    1.4460180  
C     3.5609560    0.2820070    0.0669030  
C     2.1892960    0.3880190    0.0204390  
C     1.8871110    1.7723830    0.3031090  
C     3.2127350    2.3893980    0.4997000  
N     4.1871480    1.5289750    0.3694940  
C     3.3683450    3.7943300    0.7877980  
C     2.2514600    4.5534330    0.8227550  
O     2.2503390    5.8837020    1.0390450  
C     0.8866630    3.9721040    0.5985700  
O    -0.0579590    4.7620360    0.6284870  
C     0.7165990    2.4949550    0.3895600  
H     1.4913790   -0.3807930   -0.2771660  
H     4.3575210    4.2125220    0.9374520  
H     1.3056930    6.1481330    1.0100100  
C     3.0629120   -4.0686200    0.9519680  
C     2.8370300   -2.7301670    0.9000870  
C     3.9805630   -2.1758270    0.1918750  
C     4.8284360   -3.3671520   -0.0972110  
N     4.2852510   -4.4705440    0.3445630  
C     6.0989670   -3.2543790   -0.7630560  
C     6.5103810   -2.0181500   -1.1243260  
O     7.6695750   -1.7633520   -1.7541440  
C     5.6685030   -0.7895980   -0.8863900  
O     6.0920930    0.2619440   -1.3526480  
C     4.3569040   -0.9102260   -0.1655140  
H     2.0028970   -2.1820320    1.3120350  
H     6.6918520   -4.1414460   -0.9569820  
H     7.6621100   -0.7943910   -1.9209930  
H     2.4355620   -4.8295670    1.4018720  
