60


C     3.2783570   -0.4939590   -1.8618690  
C     3.6278600   -1.7984470   -2.0561490  
C     4.6557700   -2.1135030   -1.1015010  
C     4.9017830   -0.9393670   -0.3474260  
N     4.0466290    0.0565440   -0.8327700  
C     5.8177470   -0.9055900    0.7089880  
C     6.5137770   -2.0722630    0.9926740  
O     7.4239270   -2.0855410    2.0111530  
C     6.2911360   -3.2512120    0.2384320  
O     7.0595710   -4.3283740    0.6384990  
C     5.3734030   -3.2841140   -0.7969210  
H     3.2049510   -2.4630870   -2.7972000  
H     6.0115980   -0.0167560    1.2952400  
H     7.8008110   -2.9813680    2.0475090  
H     6.8568700   -5.0938270    0.0808650  
H     5.2052420   -4.2027470   -1.3557640  
H     2.5534080    0.1211560   -2.3714990  
C     0.4665210    2.2075060    0.3270400  
C     1.0102500    3.4089190    0.7181370  
C     2.4266640    3.2873400    0.5208150  
C     2.6062180    1.9008530   -0.0240130  
N     1.4721080    1.2808810   -0.1338540  
C     3.9207040    1.3737790   -0.3598510  
C     4.9804730    2.2130710   -0.1733280  
O     6.2479370    1.8897260   -0.4601390  
C     4.8219960    3.6001120    0.3876040  
O     5.8531170    4.2666160    0.5111210  
C     3.4908820    4.1019670    0.7268000  
H     0.4924530    4.2727740    1.1110900  
H     6.7720180    2.6868330   -0.2120450  
H     3.4217580    5.1096260    1.1236130  
C    -2.0281370    2.4760460    0.6730550  
C    -0.8974050    1.7766990    0.3183940  
C    -1.4122410    0.4473800   -0.0766770  
C    -2.8837360    0.5591450    0.1125160  
N    -3.2191440    1.7500020    0.5525530  
C    -3.7872730   -0.5389910   -0.1527600  
C    -3.2115470   -1.6944660   -0.5992930  
O    -3.9058800   -2.7859470   -0.9304940  
C    -1.7254520   -1.8335650   -0.7992590  
O    -1.3141200   -2.9142200   -1.2140910  
C    -0.8361730   -0.6917010   -0.5040600  
H    -3.2355890   -3.4528140   -1.2036040  
H     0.2322390   -0.8118720   -0.6441700  
H    -2.0803130    3.5004040    1.0233480  
C    -7.0987700    2.0874220   -1.6633990  
C    -5.8663330    1.5677950   -1.4620060  
C    -6.0591420    0.4927550   -0.4941710  
C    -7.5327870    0.5158430   -0.2205510  
N    -8.1331330    1.4439020   -0.9070930  
C    -8.1525460   -0.4158980    0.6853680  
C    -7.3563000   -1.3253420    1.2910180  
O    -7.7923580   -2.2468610    2.1654090  
C    -5.8711210   -1.3737770    1.0464340  
O    -5.2243350   -2.1982150    1.6856990  
C    -5.2422280   -0.4246310    0.0785220  
H    -4.9291920    1.8795750   -1.8978500  
H    -9.2211970   -0.3718150    0.8632420  
H    -6.9908050   -2.7404710    2.4460430  
H    -7.3764390    2.9087850   -2.3133050  
