64


C    -0.2415470   -2.8684910   -0.3833180  
C    -1.0157830   -3.8838870   -0.9048640  
C    -2.3194560   -3.3498260   -1.1584980  
C    -2.2894170   -1.9844380   -0.7795970  
N    -1.0039540   -1.6989960   -0.3492000  
C    -3.4039240   -1.1213280   -0.8352610  
C    -4.5810200   -1.7022710   -1.3160010  
O    -5.7191780   -0.9533460   -1.4247510  
C    -4.6266640   -3.0642290   -1.7167770  
O    -5.8714160   -3.4619930   -2.1731620  
C    -3.5224220   -3.8912600   -1.6540570  
H    -0.6694410   -4.8848000   -1.1240780  
H    -0.8158600   -0.9121290    0.2580480  
H    -6.3927650   -1.5222920   -1.8369460  
H    -5.8091770   -4.3564080   -2.5392580  
H    -3.5897400   -4.9326770   -1.9613230  
C     1.1418880   -2.8724030    0.0367780  
C     1.9392170   -3.8958380    0.5089920  
C     3.2291180   -3.3457030    0.7885920  
C     3.1782690   -1.9661310    0.4578280  
N     1.9007180   -1.7045640    0.0151600  
C     4.2776180   -1.0858270    0.6241340  
C     5.4333470   -1.6467800    1.1934600  
O     6.5328100   -0.8749070    1.4078520  
C     5.4908870   -3.0219350    1.5279230  
O     6.7089190   -3.4060290    2.0545960  
C     4.4193010   -3.8720250    1.3281240  
H     1.6164030   -4.9134280    0.6778290  
H     1.5825100   -0.8040040   -0.3100350  
H     7.2305920   -1.4607850    1.7527000  
H     6.7117560   -4.3616090    2.2122100  
H     4.4936280   -4.9237920    1.5960870  
C    -2.2971150    1.1593390   -0.7950700  
C    -3.3037230    0.2898960   -0.4211920  
C    -4.1712960    1.0374730    0.4634490  
C    -3.6320010    2.3434120    0.5779850  
N    -2.4901430    2.3869550   -0.1982600  
C    -4.2113780    3.3387810    1.3758490  
C    -5.3607240    3.0063620    2.0739390  
O    -5.9732080    3.9362460    2.8638010  
C    -5.9124430    1.7008330    1.9757140  
O    -7.0580110    1.5221800    2.7313930  
C    -5.3362410    0.7220210    1.1902360  
H    -1.9248220    3.2062050   -0.3583320  
H    -3.7996020    4.3391830    1.4617730  
H    -6.7594570    3.5110840    3.2475600  
H    -7.4114330    0.6351870    2.5691110  
H    -5.7865850   -0.2633640    1.1145980  
H    -1.4781390    1.0039820   -1.4833980  
C     4.2171910    0.3087990    0.2185150  
C     4.8387460    1.4226160    0.7123640  
C     4.4122630    2.5642410   -0.0519600  
C     3.4860990    2.0429630   -1.0833700  
N     3.3337970    0.6767380   -0.8377420  
C     2.9180740    2.7968620   -2.0531640  
C     3.1923480    4.2349230   -2.0658780  
O     2.7038030    4.9921960   -2.8900230  
C     4.1361010    4.8185460   -0.9517790  
O     4.3640440    6.0199680   -0.9470400  
C     4.7063610    3.8929290    0.0232310  
H     5.5135050    1.4359950    1.5540260  
H     2.2516740    2.3961080   -2.8116080  
H     5.3737220    4.3018770    0.7756790  
H     3.2281670    0.0444690   -1.6236500  
