62


C    -6.1761070   -0.1027750    1.1469410  
C    -6.4531290   -1.4371490    1.1949470  
C    -5.5313000   -2.1005370    0.3127530  
C    -4.7036930   -1.0983560   -0.2527810  
N    -5.0985170    0.1284760    0.2856940  
C    -3.7311300   -1.3879110   -1.2220030  
C    -3.5646120   -2.7182730   -1.5909750  
O    -2.6346840   -3.0447030   -2.5324450  
C    -4.3616270   -3.7345630   -1.0078090  
O    -4.0735260   -5.0040460   -1.4681430  
C    -5.3429650   -3.4384660   -0.0769390  
H    -7.2335600   -1.8995410    1.7834950  
H    -3.1652840   -0.6228680   -1.7436650  
H    -2.6911580   -4.0057230   -2.6738060  
H    -4.7089080   -5.6359600   -1.1003600  
H    -5.9626300   -4.2309520    0.3381180  
H    -6.6446950    0.7300330    1.6468480  
C    -0.8833570    1.2765270    0.4164950  
C    -1.0507890    2.5795900    0.0358290  
C    -2.4573160    2.8427640   -0.1210040  
C    -3.1376680    1.5686440    0.1772630  
N    -2.1555130    0.6519770    0.5767080  
C    -4.4821530    1.3746150    0.0765990  
C    -5.3173220    2.5564740   -0.2463670  
O    -6.5333390    2.5055630   -0.2836400  
C    -4.5981290    3.9296670   -0.5189330  
O    -5.2977140    4.8953130   -0.7872240  
C    -3.1473430    3.9765740   -0.4352880  
H    -0.2634820    3.3148660   -0.0445200  
H    -2.6569490    4.9231380   -0.6382300  
H    -2.2602630   -0.3185910    0.2805060  
C     3.2743360    1.4633780   -1.2049260  
C     1.9405210    1.6441520   -0.9899140  
C     1.5566420    0.7732880    0.0869970  
C     2.7096030    0.0521000    0.4735920  
N     3.7707220    0.4882900   -0.3342250  
C     2.7031150   -0.8642520    1.5292540  
C     1.4991700   -1.0933550    2.1764220  
O     1.4502950   -1.9776840    3.2094170  
C     0.3186870   -0.4118630    1.7907880  
O    -0.7720810   -0.7360900    2.5537570  
C     0.3222180    0.5339300    0.7518460  
H     1.2964490    2.2964040   -1.5608410  
H     3.5817620   -1.4089390    1.8484950  
H     0.5356460   -1.9850380    3.5423920  
H    -1.5355150   -0.1823840    2.2966700  
H     3.9320340    1.9018220   -1.9402860  
C     7.5764030    2.7230500   -0.3436840  
C     6.2463780    2.4632420   -0.3069270  
C     6.1461230    1.0071980   -0.3264840  
C     7.5596810    0.5470680   -0.3817350  
N     8.3912490    1.5518810   -0.3896700  
C     7.9129330   -0.8507500   -0.3968630  
C     6.9102380   -1.7561850   -0.3599790  
O     7.0954830   -3.0883220   -0.3591290  
C     5.4672350   -1.3418620   -0.3267540  
O     4.6191140   -2.2266050   -0.3691160  
C     5.1193830    0.1179520   -0.2815920  
H     5.4298240    3.1679360   -0.2463890  
H     8.9558200   -1.1449650   -0.4320750  
H     6.1982670   -3.4846440   -0.3746370  
H     8.0645100    3.6901500   -0.3316930  
