62


C     3.3515420    1.8721520   -0.7801480  
C     3.9854800    0.7536350   -0.2890180  
C     2.9613320   -0.0177200    0.3838350  
C     1.7403170    0.6900850    0.2557070  
N     2.0131800    1.8392010   -0.4492650  
C     0.5035270    0.2246090    0.7699190  
C     0.5496210   -1.0078550    1.4462890  
O    -0.5624260   -1.5321230    2.0373900  
C     1.7717180   -1.7051090    1.6082540  
O     1.6437420   -2.8812850    2.3264410  
C     2.9663670   -1.2319430    1.0981430  
H     1.3106360    2.4838530   -0.7792740  
H    -0.2631400   -2.3212870    2.5255890  
H     2.5197900   -3.1997360    2.5902320  
H     3.8891220   -1.7851320    1.2524250  
H     3.7653030    2.7041390   -1.3297060  
C    -0.7184300    0.9969160    0.6165070  
C    -0.8717980    2.3599890    0.6066640  
C    -2.2810770    2.6023000    0.4254240  
C    -2.8798540    1.2321130    0.2736720  
N    -1.9642810    0.3151270    0.4093920  
C    -4.2953930    1.0145360    0.0271070  
C    -5.0687590    2.1446100    0.1253760  
O    -6.4001890    2.1348980    0.0800380  
C    -4.5001730    3.5309430    0.3116780  
O    -5.3055670    4.4626140    0.3573500  
C    -3.0546300    3.7111120    0.4361360  
H    -0.1233160    3.1092750    0.8250610  
H    -6.6705880    3.0807900    0.1321900  
H    -2.6799020    4.7222660    0.5588240  
C    -3.6322240   -3.1930370    1.3954850  
C    -4.6410990   -3.8004640    0.7168310  
C    -5.2846850   -2.7826280   -0.0809500  
C    -4.5683080   -1.5122360    0.2228670  
N    -3.5991740   -1.8276880    1.1543530  
C    -4.8890040   -0.2906940   -0.3180680  
C    -5.8821420   -0.3297050   -1.4241140  
O    -6.0433590    0.5969830   -2.1989700  
C    -6.7290260   -1.6312910   -1.6544570  
O    -7.6742140   -1.5802830   -2.4280430  
C    -6.3335230   -2.8387810   -0.9465750  
H    -4.9115860   -4.8457530    0.7539810  
H    -6.8935900   -3.7500370   -1.1334280  
H    -2.9057350   -3.6279220    2.0694880  
H    -2.7535830   -1.2543810    1.2299390  
C     5.9572680   -2.9792020   -1.5973420  
C     7.2560480   -2.5739410   -1.4340220  
C     7.2197580   -1.2195410   -0.9576120  
C     5.8532170   -0.8566030   -0.8395930  
N     5.1064690   -1.9530340   -1.2282550  
C     5.4140650    0.4198180   -0.4221050  
C     6.4238830    1.3464240   -0.1509090  
O     6.0999060    2.6191770    0.2345050  
C     7.7949820    0.9979460   -0.2588130  
O     8.6549520    2.0338710    0.0648880  
C     8.2056350   -0.2626110   -0.6467670  
H     8.1375560   -3.1675960   -1.6340900  
H     4.1035660   -1.9536130   -1.3318630  
H     6.9384730    3.0779400    0.4173700  
H     9.5696950    1.7199830    0.0149670  
H     9.2647580   -0.4994990   -0.7263970  
H     5.5585990   -3.9223120   -1.9440930  
