60


C    -6.4675830   -0.9022450    3.2591200  
C    -7.4889040   -1.6014380    2.6719060  
C    -7.2891540   -1.5282970    1.2517730  
C    -6.1114730   -0.7663970    1.0360410  
N    -5.6305840   -0.4025140    2.2772020  
C    -5.6175070   -0.4511410   -0.2496640  
C    -6.3517240   -0.9494590   -1.3294950  
O    -5.9084380   -0.7358070   -2.5980140  
C    -7.5248840   -1.7201920   -1.1283790  
O    -8.1159590   -2.1458240   -2.3044330  
C    -7.9993070   -2.0127450    0.1358340  
H    -8.2929100   -2.1075810    3.1883860  
H    -4.8286080    0.1873090    2.4339630  
H    -6.5945640   -1.0664830   -3.2036260  
H    -8.9830490   -2.5299020   -2.1081830  
H    -8.9027020   -2.6063010    0.2616510  
H    -6.2567400   -0.7175020    4.3030030  
C    -1.4055760   -0.8672540    1.0730450  
C    -2.7267960   -1.0424010    0.8351800  
C    -3.1910030    0.0906860    0.0624690  
C    -2.0098280    0.9582940   -0.1429110  
N    -0.9446520    0.3420330    0.5262340  
C    -2.0024580    2.0750850   -0.9132770  
C    -3.2518160    2.4784310   -1.5476680  
O    -3.3346420    3.4376750   -2.2996030  
C    -4.5479070    1.6503980   -1.2383350  
O    -5.6187470    2.0913460   -1.6106620  
C    -4.4206530    0.3845920   -0.4638260  
H    -3.3240320   -1.8863820    1.1459190  
H    -1.1220910    2.6771780   -1.0948180  
H    -0.7062010   -1.5064460    1.5894460  
C     2.6913770   -1.8461460   -0.1384250  
C     3.6565040   -0.8785810    0.0227410  
C     2.8886940    0.3403360    0.3524860  
C     1.4778270   -0.1085950    0.3364020  
N     1.3819270   -1.3862690    0.0513730  
C     0.3806440    0.8001520    0.6063770  
C     0.7106730    2.0904900    0.9251770  
O    -0.1914860    3.0289600    1.2529490  
C     2.1243140    2.5624580    0.9328790  
O     2.3290880    3.7396920    1.2335450  
C     3.2200860    1.6158230    0.6246520  
H     0.3352620    3.8453310    1.4116580  
H     4.2427290    1.9739340    0.6404450  
H     2.8425470   -2.8896650   -0.3877070  
C     5.0779830   -0.9939040   -0.1003870  
C     5.8385780   -2.0964320   -0.4192850  
C     7.2024720   -1.6523810   -0.4005130  
C     7.1142340   -0.1949210   -0.0396910  
N     5.8810820    0.1807400    0.1326940  
C     8.2898120    0.6250340    0.0830090  
C     9.4880430    0.0348120   -0.1397090  
O    10.6641780    0.6646510   -0.0632700  
C     9.6110550   -1.4335010   -0.5056580  
O    10.7514010   -1.8633460   -0.6848840  
C     8.4032550   -2.2462210   -0.6244460  
H     5.4924530   -3.0959320   -0.6427870  
H     8.2014090    1.6736610    0.3440310  
H    11.3379150   -0.0220950   -0.2755800  
H     8.5271440   -3.2918700   -0.8878720  
