60


C     4.2674250    0.0687390   -0.0748270  
C     4.2440510   -1.2458680   -0.5132030  
C     5.5522930   -1.7798440   -0.3471430  
C     6.3580770   -0.7469240    0.2094550  
N     5.5696730    0.3796230    0.3271340  
C     7.7057690   -0.9342720    0.5358110  
C     8.2540190   -2.1811070    0.2799760  
O     9.5575130   -2.4192950    0.5748770  
C     7.4674360   -3.2233790   -0.2972080  
O     8.1697620   -4.3918860   -0.4916730  
C     6.1387010   -3.0381620   -0.6127750  
H     3.3889080   -1.7411080   -0.9525330  
H     5.7929440    1.1601390    0.9282000  
H     8.3252720   -0.1538840    0.9649120  
H     9.7557420   -3.3367330    0.3166920  
H     7.5960120   -5.0600580   -0.8955790  
H     5.5545200   -3.8451920   -1.0489670  
C     3.2218130    1.0485900   -0.0490390  
C     1.8562510    0.8844010   -0.0646770  
C     1.2445230    2.1825630   -0.0571490  
C     2.3592010    3.1568250   -0.0406530  
N     3.5380100    2.4173550    0.0417650  
C     2.2147720    4.5003340   -0.1221160  
C     0.8614540    5.0464850   -0.1932450  
O     0.6338960    6.2412110   -0.2926680  
C    -0.3449340    4.0478530   -0.1043650  
O    -1.4712570    4.5045190   -0.0086100  
C    -0.0690330    2.5934790   -0.0847400  
H     1.3420820   -0.0651910   -0.0612970  
H     3.0507370    5.1930690   -0.1397500  
H     4.3958610    2.7757570   -0.3582410  
C    -1.2892890   -0.5775790    2.7093460  
C    -2.4213810   -1.0105390    2.0911400  
C    -2.5963770   -0.2096740    0.9004600  
C    -1.4515670    0.7286200    0.8673150  
N    -0.6973900    0.4499350    1.9940280  
C    -1.2154270    1.6734260   -0.0910240  
C    -2.1751600    1.7109320   -1.2161590  
O    -1.9987340    2.3899900   -2.2103820  
C    -3.4437070    0.7919300   -1.1601580  
O    -4.3176200    0.9606680   -1.9926390  
C    -3.5558530   -0.2136660   -0.0818640  
H    -3.0750590   -1.7981100    2.4330070  
H    -0.8364250   -0.9254670    3.6285060  
H     0.1327020    0.9564540    2.2588890  
C    -6.9347780   -1.2358730    2.7053850  
C    -5.8077500   -0.6693470    2.2101050  
C    -5.6216300   -1.2776170    0.8967910  
C    -6.7826090   -2.2109230    0.7673770  
N    -7.5429200   -2.1840450    1.8262220  
C    -6.9991920   -2.9972140   -0.4195040  
C    -6.1089850   -2.8688260   -1.4292740  
O    -6.1784430   -3.5449550   -2.5876810  
C    -4.9057420   -1.9707030   -1.3193690  
O    -4.0852810   -2.0210610   -2.2297150  
C    -4.7130540   -1.1193240   -0.1011410  
H    -5.1806700    0.0815530    2.6682540  
H    -7.8544480   -3.6607900   -0.4824860  
H    -5.3839590   -3.2714890   -3.0967320  
H    -7.4104160   -1.0425700    3.6598500  
