64


C     5.6228440   -1.4817620    1.6117130  
C     6.8940810   -1.0076550    1.7758020  
C     7.0402150    0.1303770    0.9116600  
C     5.8093380    0.3009500    0.2301810  
N     4.9418360   -0.6993010    0.6722210  
C     5.5870510    1.3469130   -0.6727110  
C     6.6346290    2.2242450   -0.9040670  
O     6.4734810    3.2565390   -1.7810130  
C     7.8789780    2.0625940   -0.2379890  
O     8.8202980    3.0169820   -0.5733340  
C     8.0907980    1.0346530    0.6610040  
H     7.6503260   -1.4347400    2.4206730  
H     4.6547590    1.4753220   -1.2088770  
H     7.3220660    3.7293700   -1.8293860  
H     9.6653030    2.7993320   -0.1530650  
H     9.0484870    0.9327320    1.1677110  
H     5.1387550   -2.3530260    2.0305800  
C     1.4635780   -0.8012880    3.2158830  
C     0.5039460   -1.0231340    2.2781370  
C     1.1556170   -1.0856050    0.9897650  
C     2.5957290   -0.8871390    1.2653350  
N     2.7183250   -0.7168760    2.6266840  
C     3.5872560   -0.8721840    0.3251930  
C     3.1824870   -1.1172090   -1.0599490  
O     3.9580560   -1.1366280   -1.9987700  
C     1.6603330   -1.4191050   -1.3476110  
O     1.3973670   -1.7791200   -2.4935810  
C     0.6573480   -1.2853170   -0.2823970  
H    -0.5533900   -1.1327890    2.4578240  
H     1.3641120   -0.6979980    4.2881840  
H     3.5932920   -0.5416750    3.0977380  
C    -2.7499720    1.4125250    0.8278470  
C    -1.5097320    0.8629890    0.6439220  
C    -1.6879020   -0.3731320   -0.0664690  
C    -3.0829310   -0.5010160   -0.3059350  
N    -3.7206960    0.5957720    0.2630310  
C    -3.6372000   -1.5536820   -1.0472650  
C    -2.7515800   -2.4905770   -1.5623600  
O    -3.2143200   -3.5268070   -2.3086580  
C    -1.3533970   -2.3920160   -1.3384320  
O    -0.6307560   -3.4166000   -1.9058620  
C    -0.7935830   -1.3640180   -0.5701640  
H    -0.5776830    1.2946440    0.9771870  
H    -4.6935510   -1.6145020   -1.2875300  
H    -2.4185280   -4.0158400   -2.5960790  
H     0.1463880   -3.0035330   -2.3477460  
H    -3.0470860    2.3218280    1.3297460  
C    -6.2051290    4.0104020   -1.1106880  
C    -5.1510330    3.1708330   -0.8617340  
C    -5.6842980    2.0184600   -0.1912040  
C    -7.0845890    2.2166050   -0.0629490  
N    -7.3706800    3.4421860   -0.6288840  
C    -7.9389970    1.2735150    0.5211520  
C    -7.3653910    0.1039980    0.9946160  
O    -8.1448850   -0.8539840    1.5724080  
C    -5.9651290   -0.1149310    0.9065440  
O    -5.5410720   -1.2958500    1.4793290  
C    -5.1234380    0.8267290    0.3203250  
H    -4.1192900    3.3458160   -1.1305030  
H    -8.2906170    3.8468920   -0.7025020  
H    -9.0111690    1.4185010    0.6034290  
H    -7.5543030   -1.5944880    1.7995990  
H    -4.6978400   -1.5755800    1.0825220  
H    -6.2264460    4.9749240   -1.5979710  
