60


C     3.6945480   -4.3849820   -0.3113190  
C     3.3874200   -3.0552410   -0.1324630  
C     4.6144930   -2.3175790   -0.1783900  
C     5.6419040   -3.2703510   -0.3820870  
N     5.0534430   -4.5146750   -0.4662280  
C     7.0028270   -2.9422850   -0.4551650  
C     7.3469570   -1.6118800   -0.3089330  
O     8.6523630   -1.2317230   -0.3616570  
C     6.3569400   -0.6128620   -0.1024200  
O     6.8736130    0.6275570    0.0182730  
C     4.9666790   -0.9278980   -0.0489950  
H     2.3904170   -2.6817600    0.0352530  
H     5.5478920   -5.3823790   -0.6042970  
H     7.7782900   -3.6857130   -0.6109940  
H     8.6615220   -0.2648020   -0.2352390  
H     6.1025850    1.2605250    0.1807370  
H     3.0470250   -5.2495710   -0.3385670  
C     3.9972530    0.1187760    0.1078700  
C     2.6090170    0.1040410    0.0788430  
C     2.1731640    1.4405410    0.2773700  
C     3.4330810    2.2275330    0.4173560  
N     4.4797470    1.4545270    0.3210450  
C     3.4470110    3.6473770    0.6132500  
C     2.2442920    4.2653850    0.6354030  
O     2.0798730    5.5802090    0.7885090  
C     0.9307120    3.5105470    0.4842220  
O    -0.0794840    4.2210780    0.5296480  
C     0.9248330    2.0516970    0.3215630  
H     1.9733000   -0.7392870   -0.1234620  
H     4.3810690    4.1869210    0.7207660  
H     1.1023290    5.7152360    0.7694950  
C    -0.5320840    0.0443600    0.7652710  
C    -0.3257340    1.3158260    0.2900740  
C    -1.6440290    1.6843540   -0.2901660  
C    -2.4981720    0.4907810   -0.0368580  
N    -1.8332140   -0.4531710    0.5760620  
C    -3.8794510    0.4129390   -0.4660630  
C    -4.3532410    1.4665970   -1.1875780  
O    -5.6037750    1.5455430   -1.6648560  
C    -3.5075400    2.6649820   -1.4910960  
O    -4.0194720    3.5741660   -2.1444000  
C    -2.1164030    2.7263280   -0.9986140  
H    -5.6465080    2.4110450   -2.1295180  
H    -1.5546330    3.6240740   -1.2220880  
H     0.1854070   -0.5724100    1.2912620  
C    -5.2233170   -1.1674020    3.4008400  
C    -5.9034940   -2.2804880    3.0444660  
C    -5.8280350   -2.3188960    1.5869150  
C    -5.0144850   -1.1099660    1.2331870  
N    -4.6786220   -0.4371110    2.2922780  
C    -4.7054100   -0.7703580   -0.1461160  
C    -5.2300810   -1.5813140   -1.1038350  
O    -5.0406470   -1.4027910   -2.4193600  
C    -6.0585370   -2.7941200   -0.7725950  
O    -6.4725790   -3.4705850   -1.7128760  
C    -6.3346910   -3.1265900    0.6361580  
H    -6.4103540   -2.9916590    3.6817030  
H    -5.5284040   -2.1385580   -2.8522500  
H    -6.9429560   -4.0049790    0.8295860  
H    -5.0541570   -0.7804300    4.3987010  
