64


C     6.4369760   -1.3610050    1.2685990  
C     5.1638190   -1.2415940    0.7747800  
C     4.8563530    0.1618140    0.7332600  
C     6.0002840    0.8498040    1.2154350  
N     6.9444680   -0.1034470    1.5387620  
C     6.0709490    2.2455380    1.2965240  
C     4.9582600    2.9605580    0.8854160  
O     4.9638160    4.3237870    0.9551580  
C     3.7999320    2.2962140    0.4048090  
O     2.7778450    3.1633560    0.0661380  
C     3.7218700    0.9074920    0.3116120  
H     4.5232560   -2.0570090    0.4691490  
H     7.8666340    0.0901430    1.8958580  
H     6.9445130    2.7742640    1.6639390  
H     4.0935890    4.6289520    0.6448590  
H     1.9794380    2.6618260   -0.1592510  
H     7.0333180   -2.2436460    1.4521980  
C     1.8939330   -0.8338610    0.4198970  
C     2.5094740    0.2258580   -0.1780890  
C     1.7675510    0.4765750   -1.4119760  
C     0.6784110   -0.5318250   -1.4628370  
N     0.7955660   -1.2972420   -0.3100730  
C    -0.2126530   -0.6455070   -2.4835140  
C    -0.1115100    0.2840300   -3.6062580  
O    -0.8673840    0.2523350   -4.5653540  
C     1.0281320    1.3637840   -3.5699050  
O     1.1266690    2.1532470   -4.4957430  
C     1.9378720    1.3759180   -2.4192370  
H    -0.9696330   -1.4211320   -2.5276410  
H     2.7414260    2.1051770   -2.4227810  
H     2.1493010   -1.3244030    1.3479690  
C    -3.5327800   -1.6073760    0.3391250  
C    -3.5544810   -2.9374560    0.6781240  
C    -2.2016740   -3.4111960    0.5956020  
C    -1.3988770   -2.3064100    0.2104490  
N    -2.2276640   -1.2078040    0.0791290  
C    -0.0061300   -2.4090690    0.0574150  
C     0.5807430   -3.6526430    0.3007670  
O     1.9294800   -3.8049000    0.1550820  
C    -0.2128410   -4.7516780    0.7074480  
O     0.5174340   -5.9030690    0.9251040  
C    -1.5851180   -4.6489140    0.8559720  
H    -4.4251810   -3.4943010    0.9929770  
H    -1.9903990   -0.3563180   -0.4101200  
H     2.1327030   -4.7373410    0.3476380  
H    -0.0828680   -6.6434950    1.0971770  
H    -2.1697910   -5.5086490    1.1751450  
C    -5.8184730   -1.0027790   -0.3730570  
C    -6.6246560    0.0976190   -0.3420610  
C    -5.8807250    1.1574780    0.2825790  
C    -4.6091790    0.6330000    0.6226860  
N    -4.5823520   -0.7011630    0.2040780  
C    -3.6350690    1.3901720    1.2861710  
C    -3.9430410    2.7095050    1.5845840  
O    -3.0240520    3.4898930    2.2238760  
C    -5.2044860    3.2567450    1.2343150  
O    -5.3583650    4.5806760    1.5962150  
C    -6.1701550    2.4987090    0.5975460  
H    -7.6308390    0.1554050   -0.7340310  
H    -2.6740140    0.9880110    1.5852100  
H    -3.4238310    4.3689370    2.3412120  
H    -6.2276990    4.8969660    1.3092480  
H    -7.1363220    2.9333250    0.3490260  
H    -5.9835250   -1.9887140   -0.7819450  
