60


C    -7.0109890    2.7438870    1.5427510  
C    -8.0821750    2.2101320    0.8773790  
C    -7.5870110    1.0976450    0.1156950  
C    -6.1884710    1.0254680    0.3503860  
N    -5.8564210    2.0632720    1.1980690  
C    -5.3501780    0.0587600   -0.2564800  
C    -6.0068840   -0.9077100   -1.0335560  
O    -5.3112760   -1.9518700   -1.5649080  
C    -7.4036330   -0.8447150   -1.2683330  
O    -7.8748740   -1.8637990   -2.0810790  
C    -8.1935850    0.1503600   -0.7297060  
H    -9.1034860    2.5640260    0.9175490  
H    -5.0361160    1.9855110    1.7918250  
H    -5.9454320   -2.4792670   -2.0811940  
H    -8.8383640   -1.7978280   -2.1497200  
H    -9.2616670    0.1827350   -0.9370290  
H    -6.9666000    3.5717050    2.2370420  
C    -2.5958520    0.4700420    3.2085500  
C    -1.3988210    0.1875650    2.6505370  
C    -1.6726230   -0.0050710    1.2326610  
C    -3.1597960    0.1720370    1.1130270  
N    -3.6763940    0.4767000    2.2724570  
C    -3.8727700    0.0476590   -0.1497200  
C    -3.0662620   -0.0796300   -1.2485520  
O    -3.5227890   -0.1059660   -2.5067190  
C    -1.5759960   -0.2370350   -1.1693600  
O    -0.9760390   -0.4369530   -2.2234500  
C    -0.8790150   -0.1667500    0.1475640  
H    -0.4360330    0.1061900    3.1311040  
H    -2.7281240   -0.2556820   -3.0658200  
H    -2.8168200    0.6835190    4.2475330  
C     1.7570270   -2.9496480    2.2862760  
C     2.9844300   -2.5814270    1.8434830  
C     2.7467040   -1.4761940    0.9229170  
C     1.2700970   -1.3047720    0.9478440  
N     0.6975070   -2.1725280    1.7346080  
C     0.5905430   -0.2818990    0.1667610  
C     1.3917320    0.5521800   -0.5518360  
O     0.9291190    1.5962730   -1.2549530  
C     2.8840660    0.4102470   -0.5919470  
O     3.4957540    1.2313850   -1.2745950  
C     3.5648010   -0.6937740    0.1550730  
H     3.9419780   -2.9908480    2.1302680  
H     1.7151010    1.9950590   -1.6879790  
H     1.5089090   -3.7327450    2.9923530  
C     5.5947610   -2.1547740   -0.0443930  
C     4.9881350   -0.9223940   -0.0145320  
C     6.1150710    0.0256820   -0.1666430  
C     7.3172340   -0.8586650   -0.2521020  
N     6.9911710   -2.1256570   -0.1914650  
C     8.6478850   -0.3363460   -0.3829450  
C     8.7972220    1.0103370   -0.4138910  
O     9.9735840    1.6377800   -0.5282630  
C     7.6101510    1.9327320   -0.3146150  
O     7.8246860    3.1414090   -0.3393190  
C     6.2495410    1.3651240   -0.1913780  
H     9.4906180   -1.0154010   -0.4466970  
H     9.7654250    2.5984050   -0.5172820  
H     5.4266270    2.0673560   -0.1496880  
H     5.0955800   -3.1156260   -0.0071620  
