62


C    -4.9501610   -1.3142550    1.9184880  
C    -6.2899110   -1.5451450    1.7656430  
C    -6.7208830   -0.8018150    0.6150650  
C    -5.5834800   -0.1280320    0.1027290  
N    -4.5003730   -0.4504880    0.9174920  
C    -5.6328230    0.6746050   -1.0428820  
C    -6.8588850    0.8104240   -1.6740940  
O    -6.9655620    1.5871420   -2.7916270  
C    -8.0121620    0.1507330   -1.1706660  
O    -9.1568230    0.3862380   -1.9093580  
C    -7.9569050   -0.6479520   -0.0443060  
H    -6.9047570   -2.1577400    2.4112860  
H    -4.7652800    1.1929270   -1.4335400  
H    -7.8966670    1.5621940   -3.0716150  
H    -9.9076580   -0.0618960   -1.4929720  
H    -8.8513650   -1.1490180    0.3210260  
H    -4.2629900   -1.6450730    2.6849740  
C    -1.1007220   -3.0236030    0.1845520  
C    -0.1131980   -2.0407220    0.1288410  
C    -0.7979530   -0.7711700    0.3194130  
C    -2.1649850   -1.0675510    0.4979680  
N    -2.3129440   -2.4434970    0.4038960  
C    -3.1466570   -0.0858650    0.7212950  
C    -2.7156290    1.2410670    0.7635970  
O    -3.6051610    2.2386470    1.0011680  
C    -1.3448410    1.5514760    0.5564580  
O    -1.0664670    2.8989470    0.6189920  
C    -0.3927390    0.5755510    0.3263340  
H    -3.1959910   -2.9275920    0.4893580  
H    -3.1084910    3.0761700    0.9828680  
H    -0.1039010    3.0339090    0.6223840  
H     0.6402120    0.8366180    0.1338900  
H    -1.0081340   -4.0966040    0.0962280  
C     1.2917440   -2.2550780   -0.0450210  
C     2.0068620   -3.4072510   -0.2939230  
C     3.3814660   -3.0257750   -0.3461370  
C     3.3672130   -1.5338920   -0.1267730  
N     2.1496290   -1.1069210    0.0649740  
C     4.5655690   -0.7204410   -0.1295280  
C     5.7335760   -1.4300250   -0.2380520  
O     6.9401050   -0.8883790   -0.1532340  
C     5.7852370   -2.9404210   -0.4471810  
O     6.9164100   -3.4259060   -0.5416260  
C     4.5540110   -3.6979980   -0.5139450  
H     1.6190850   -4.4077330   -0.4265170  
H     7.5664420   -1.6397790   -0.2991660  
H     4.6235600   -4.7690830   -0.6722030  
C     2.2376230    2.2092480    2.2591290  
C     2.7345330    3.3677670    1.7443260  
C     3.7354610    3.0030500    0.7609550  
C     3.7647300    1.5193000    0.7439570  
N     2.8732510    1.0971200    1.7218470  
C     4.5422500    0.7554940   -0.0840080  
C     5.3433890    1.5092800   -1.0835740  
O     5.9056610    0.9723850   -2.0209220  
C     5.4388120    3.0743410   -0.9666380  
O     6.2367130    3.6632160   -1.6795940  
C     4.5513190    3.7517260   -0.0285430  
H     2.4786870    4.3728560    2.0490720  
H     4.5756010    4.8366060    0.0066970  
H     1.4752920    2.0713630    3.0157550  
H     2.4092190    0.1976250    1.5937390  
