60


C     4.2528480   -0.9596550   -1.4649270  
C     4.7202910    0.0155340   -0.5934990  
C     5.8722160   -0.5653370    0.0727480  
C     6.0278590   -1.8799030   -0.4327940  
N     5.0306590   -2.0853730   -1.3695510  
C     7.0280080   -2.7572120    0.0028220  
C     7.8990230   -2.2941980    0.9759420  
O     8.9006740   -3.0963490    1.4340490  
C     7.7594940   -0.9808340    1.4990090  
O     8.7019770   -0.6617840    2.4575290  
C     6.7670970   -0.1231630    1.0679280  
H     4.9241280   -2.9140600   -1.9338690  
H     7.1433910   -3.7617860   -0.3909950  
H     9.4091350   -2.5763840    2.0809190  
H     8.6424850    0.2830550    2.6643430  
H     6.7045450    0.8857970    1.4602940  
H     3.4565760   -0.9031570   -2.1938370  
C     0.4976230    1.1916520   -0.5262840  
C     0.6519640    2.5575050   -0.4044380  
C     2.0579430    2.8343830   -0.3451080  
C     2.7431060    1.5274520   -0.4542750  
N     1.7440300    0.5831420   -0.5900880  
C     4.1014910    1.3299190   -0.4167330  
C     4.9130780    2.5557170   -0.2335460  
O     6.1318050    2.5433360   -0.1685780  
C     4.1965750    3.9588410   -0.1229980  
O     4.8991480    4.9475490    0.0410810  
C     2.7492890    4.0068100   -0.2025530  
H    -0.1429880    3.2880740   -0.3588200  
H     2.2603180    4.9729600   -0.1293620  
H     1.8660300   -0.4186230   -0.5388850  
C    -0.6853180    0.3796260   -0.5925880  
C    -2.0084700    0.7474770   -0.5448540  
C    -2.7499060   -0.4818020   -0.6267850  
C    -1.7067270   -1.5426560   -0.7283130  
N    -0.5058910   -1.0353260   -0.7068860  
C    -2.0362640   -2.9418530   -0.8108910  
C    -3.3449080   -3.2799120   -0.7967120  
O    -3.7962770   -4.5391730   -0.8547610  
C    -4.4418160   -2.2446810   -0.7257060  
O    -5.5982530   -2.6473280   -0.8059610  
C    -4.0803950   -0.8061140   -0.6048530  
H    -2.4072580    1.7447440   -0.4282210  
H    -1.2492060   -3.6844550   -0.8736910  
H    -4.7764920   -4.4764870   -0.8733180  
C    -5.0769460    1.2954480   -1.4392340  
C    -6.1580010    2.0813570   -1.2319170  
C    -6.9607430    1.4608250   -0.2003630  
C    -6.2536780    0.2159790    0.1847840  
N    -5.1035270    0.1478350   -0.6255750  
C    -6.6617460   -0.6009290    1.1827770  
C    -7.9042640   -0.2743860    1.8910670  
O    -8.3393260   -0.9642600    2.7978870  
C    -8.6921780    1.0116450    1.4611360  
O    -9.7353510    1.2888830    2.0293960  
C    -8.1208530    1.8391310    0.3948550  
H    -6.3897120    2.9977730   -1.7556450  
H    -6.1400370   -1.5013730    1.4813240  
H    -8.6456820    2.7506850    0.1259300  
H    -4.2614510    1.4142920   -2.1388000  
