64


C    -4.5318340   -0.5917060   -0.2879980  
C    -5.0075870   -1.6536530   -1.0165380  
C    -6.2722250   -2.0175650   -0.4425610  
C    -6.5179840   -1.1247020    0.6337390  
N    -5.4441140   -0.2538050    0.7009360  
C    -7.6739120   -1.1850440    1.4191720  
C    -8.6032810   -2.1686480    1.1149020  
O    -9.7455120   -2.2765590    1.8548240  
C    -8.3794810   -3.0659720    0.0380170  
O    -9.3976380   -3.9836950   -0.1439110  
C    -7.2364570   -3.0011600   -0.7381210  
H    -4.5267820   -2.0891420   -1.8810360  
H    -5.2511230    0.3902950    1.4529790  
H    -7.8640470   -0.5039670    2.2422720  
H   -10.2593920   -3.0144000    1.4839680  
H    -9.1832330   -4.5595800   -0.8924330  
H    -7.0888050   -3.7001560   -1.5590940  
C    -2.0793760   -0.5011550   -0.5536960  
C    -1.0914000    0.4503730   -0.6376060  
C    -1.7514170    1.7342910   -0.5260560  
C    -3.1379530    1.4852760   -0.3869500  
N    -3.3221230    0.1011540   -0.4003150  
C    -4.0858690    2.5134040   -0.3010920  
C    -3.6186020    3.8185700   -0.3352250  
O    -4.4983160    4.8565270   -0.2440480  
C    -2.2309120    4.0872940   -0.4689030  
O    -1.9233380    5.4328820   -0.4953020  
C    -1.3021740    3.0686350   -0.5755050  
H    -5.1511810    2.3276560   -0.2258050  
H    -3.9786650    5.6783380   -0.2787280  
H    -0.9612620    5.5469550   -0.4954380  
H    -0.2463160    3.2973810   -0.6959620  
H    -2.0051610   -1.5788060   -0.5401300  
C     0.8877950   -0.6743660   -1.7353630  
C     0.3344660    0.1817120   -0.8254920  
C     1.4482200    0.7369420   -0.0624560  
C     2.6810770    0.1424440   -0.6195860  
N     2.2739450   -0.6802800   -1.6561830  
C     3.9583280    0.3622190   -0.1703170  
C     4.0736820    1.2761940    0.9859780  
O     5.1404250    1.5686500    1.5034350  
C     2.7680490    1.9210870    1.5953160  
O     2.8930730    2.6646760    2.5581960  
C     1.4831920    1.5931620    0.9973690  
H     0.5882720    2.0257780    1.4312330  
H     0.3856760   -1.2760630   -2.4816380  
H     2.8849380   -1.3648990   -2.0777790  
C     5.3024080   -0.3907870   -2.1726990  
C     5.1385500   -0.2321830   -0.8050890  
C     6.3292120   -0.7928510   -0.1928290  
C     7.1514530   -1.2748210   -1.2413990  
N     6.5000510   -1.0140890   -2.4328690  
C     8.3825350   -1.9060530   -1.0219280  
C     8.7959450   -2.0521690    0.2918070  
O     9.9900350   -2.6480090    0.5711810  
C     7.9848210   -1.5787700    1.3581460  
O     8.5309070   -1.7934740    2.6096580  
C     6.7695970   -0.9630540    1.1350570  
H     6.8804770   -1.1802590   -3.3515050  
H     9.0107380   -2.2691160   -1.8289210  
H    10.1038820   -2.6170450    1.5372520  
H     8.0147290   -1.3093420    3.2715890  
H     6.1857030   -0.5822440    1.9660450  
H     4.6769730   -0.0418900   -2.9826910  
