62


C     5.9139420    1.3430850    1.6748410  
C     6.0329860    2.6898940    1.8237470  
C     5.0489180    3.3101030    0.9744910  
C     4.3443330    2.2729210    0.3181600  
N     4.8824750    1.0548030    0.7683670  
C     3.3490380    2.5329960   -0.6313430  
C     3.0318730    3.8607950   -0.8841580  
O     2.0602280    4.1569220   -1.7936320  
C     3.7100440    4.9098200   -0.2141220  
O     3.2820440    6.1695510   -0.5732140  
C     4.7155430    4.6478900    0.7002060  
H     6.7330660    3.1930360    2.4764810  
H     2.8414300    1.7568840   -1.1894800  
H     1.9943050    5.1265640   -1.8422780  
H     3.7853600    6.8398770   -0.0875210  
H     5.2412380    5.4640570    1.1910280  
H     6.4341360    0.5315240    2.1604630  
C     4.5000700   -0.2283160    0.4301270  
C     5.2406120   -1.3807520    0.4422050  
C     4.3596670   -2.4628640    0.0980010  
C     3.0325690   -1.8572360   -0.1340050  
N     3.1907950   -0.4782470    0.0188250  
C     1.8773560   -2.5302970   -0.4155720  
C     2.0132560   -4.0043810   -0.5102090  
O     1.0668720   -4.7405660   -0.7371750  
C     3.4327750   -4.6660850   -0.3249300  
O     3.5084700   -5.8840500   -0.4214050  
C     4.5617500   -3.8077960   -0.0239950  
H     6.3023250   -1.4546950    0.6251140  
H     5.5313630   -4.2714080    0.1270890  
H     2.4100180    0.1023670    0.3018970  
C     0.4378710   -0.6683310   -1.3402640  
C     0.5945420   -1.8573140   -0.6466120  
C    -0.7334930   -2.2373160   -0.2019350  
C    -1.6281550   -1.2399860   -0.6585750  
N    -0.8886150   -0.3102310   -1.3632010  
C    -3.0130040   -1.2389560   -0.3845140  
C    -3.4787920   -2.2997900    0.3921420  
O    -4.8060280   -2.3923890    0.6889540  
C    -2.5953410   -3.3071330    0.8610050  
O    -3.2248360   -4.2870100    1.6042240  
C    -1.2451300   -3.2934080    0.5769790  
H    -1.2596470    0.5464060   -1.7446930  
H    -4.9260010   -3.2103570    1.2036850  
H    -2.6129180   -5.0240230    1.7504760  
H    -0.6005370   -4.0956340    0.9189490  
H     1.1711480   -0.0903470   -1.8846950  
C    -4.0511980    0.1793390   -2.2103980  
C    -3.9080370   -0.1895130   -0.9047960  
C    -4.7944410    0.6850190   -0.1362060  
C    -5.4564360    1.5821070   -1.1145720  
N    -4.9474310    1.2360090   -2.3505890  
C    -6.3669970    2.5368030   -0.7927150  
C    -6.7164180    2.7141680    0.6121860  
O    -7.5202540    3.5481900    1.0018630  
C    -6.0107590    1.7870480    1.6698260  
O    -6.2786600    1.9296300    2.8523000  
C    -5.0521660    0.7838100    1.1919380  
H    -6.8431760    3.1798230   -1.5267100  
H    -4.5878230    0.1353220    1.9264890  
H    -3.5833040   -0.2500980   -3.0871740  
H    -5.2749050    1.6041960   -3.2298430  
