62


C    -5.5496400   -2.1354800    0.0688070  
C    -6.8459330   -2.0199900   -0.3328410  
C    -7.1205880   -0.6179450   -0.5049400  
C    -5.9405240    0.0878120   -0.1689620  
N    -4.9699070   -0.8625780    0.1851510  
C    -5.8438240    1.4782890   -0.2834600  
C    -6.9686610    2.1670710   -0.7121540  
O    -6.9243610    3.5245080   -0.8287630  
C    -8.1653840    1.4755650   -1.0335450  
O    -9.1939250    2.2976930   -1.4451040  
C    -8.2507800    0.0982170   -0.9378670  
H    -7.5399590   -2.8380300   -0.4710910  
H    -4.9512990    2.0345120   -0.0273290  
H    -7.8054420    3.8208210   -1.1149900  
H    -9.9922240    1.7702870   -1.5962700  
H    -9.1705050   -0.4184480   -1.2043710  
H    -4.9774130   -3.0066850    0.3511270  
C    -1.2885160   -2.7476960   -1.1896840  
C    -2.5685590   -2.3425020   -1.0457470  
C    -2.6035150   -1.3542750    0.0129600  
C    -1.2172750   -1.2036490    0.4950020  
N    -0.4402180   -2.0784710   -0.2834920  
C    -0.8325620   -0.3777950    1.5046070  
C    -1.8477550    0.4535590    2.1347080  
O    -1.5992000    1.2660090    3.0108050  
C    -3.3400870    0.3057870    1.6669060  
O    -4.2020330    0.9278210    2.2549740  
C    -3.6397290   -0.6357300    0.5508230  
H    -3.4097210   -2.6690870   -1.6381700  
H     0.1797690   -0.3046130    1.8806750  
H    -0.8527480   -3.4372750   -1.8979360  
C     0.9229880   -2.3115810   -0.2187380  
C     1.6072560   -3.4535510   -0.5367410  
C     3.0115960   -3.1710490   -0.3882750  
C     3.0963190   -1.7647730    0.0510310  
N     1.7914170   -1.3009030    0.1936730  
C     4.2538560   -1.0795990    0.2643120  
C     5.5217060   -1.8245750    0.0802500  
O     6.6110730   -1.3284470    0.2962120  
C     5.4415700   -3.3264720   -0.3910070  
O     6.4919840   -3.9185550   -0.5891380  
C     4.1297940   -3.9268970   -0.5844210  
H     1.1730050   -4.4086220   -0.7928530  
H     4.0883540   -4.9624290   -0.9061910  
H     1.5664640   -0.3158040    0.1419920  
C     3.5463170    0.6845030    1.8636040  
C     3.7038680    2.0321410    2.0128660  
C     4.5427260    2.4869230    0.9380690  
C     4.8804240    1.3532880    0.1583620  
N     4.2555410    0.2446520    0.7375930  
C     5.6619450    1.4421940   -0.9988440  
C     6.1258530    2.6971790   -1.3617010  
O     6.8982450    2.8373830   -2.4773560  
C     5.8060940    3.8428570   -0.5859200  
O     6.3401990    5.0182110   -1.0777940  
C     5.0244970    3.7519080    0.5504160  
H     3.2858500    2.6323870    2.8096630  
H     5.9392310    0.5799080   -1.5925040  
H     7.1466650    3.7756650   -2.5402170  
H     6.1450180    5.7431180   -0.4657900  
H     4.7816620    4.6422210    1.1270510  
H     3.0387440   -0.0361930    2.4887740  
