62


C    -3.4416570   -1.0199500    1.7142200  
C    -4.0341250   -2.2415220    1.8296510  
C    -5.1902500   -2.2434890    0.9742840  
C    -5.2601270   -0.9678820    0.3611070  
N    -4.1772730   -0.2148140    0.8374020  
C    -6.2332010   -0.6519540   -0.5924380  
C    -7.1699980   -1.6276970   -0.9051720  
O    -8.1442190   -1.3582780   -1.8260100  
C    -7.1270880   -2.8989320   -0.2841340  
O    -8.1250620   -3.7637490   -0.6953640  
C    -6.1494990   -3.2159000    0.6439890  
H    -3.6837800   -3.0572010    2.4475530  
H    -6.2934290    0.3123410   -1.0784260  
H    -8.6931150   -2.1572180   -1.9032170  
H    -8.0328820   -4.6058770   -0.2261310  
H    -6.1195280   -4.2052900    1.0967890  
H    -2.5414690   -0.6323380    2.1623530  
C    -0.2995630    1.4912480   -0.1316060  
C    -0.6630880    2.7825950   -0.4192820  
C    -2.0894630    2.8505680   -0.2077640  
C    -2.4675260    1.4669620    0.2098120  
N    -1.4373630    0.6849000    0.2548690  
C    -3.8519520    1.1100640    0.5106840  
C    -4.7673610    2.1236530    0.4573130  
O    -6.0669460    1.9782570    0.7721730  
C    -4.4049440    3.5097490    0.0331530  
O    -5.3100690    4.3494450    0.0142670  
C    -3.0118540    3.8325230   -0.3067110  
H    -0.0110860    3.5760170   -0.7465460  
H    -6.4586730    2.8694060    0.6247880  
H    -2.7938040    4.8523810   -0.6077370  
C     3.5021470    3.1725040   -1.5180570  
C     4.3677570    2.1652250   -1.2678340  
C     3.5599230    1.0968390   -0.6933150  
C     2.1766760    1.6537160   -0.6704190  
N     2.1570440    2.8661060   -1.1452270  
C     1.0202910    0.8976960   -0.1716970  
C     1.3061970   -0.3905300    0.2257580  
O     0.4143980   -1.2621400    0.7042770  
C     2.6847360   -0.9763350    0.1334160  
O     2.7727570   -2.1801490    0.4251810  
C     3.8630120   -0.1601270   -0.2614590  
H     5.4292080    2.1280130   -1.4596830  
H     0.9186110   -2.0953070    0.8454740  
H     3.7054000    4.1403030   -1.9597220  
C     7.5407010    1.5466020    1.6473740  
C     6.2581240    1.3335200    1.2110840  
C     6.2489720    0.0849270    0.5021180  
C     7.5770840   -0.4222340    0.5585020  
N     8.3414340    0.4960440    1.2477120  
C     7.9494720   -1.6521980    0.0131580  
C     6.9482550   -2.4093880   -0.5785060  
O     7.2417480   -3.6222520   -1.1160350  
C     5.6080890   -1.9486220   -0.6325770  
O     4.7530640   -2.8163100   -1.2768810  
C     5.2338290   -0.6918980   -0.1373610  
H     5.4232770    1.9988530    1.3727640  
H     9.3188390    0.3880440    1.4687430  
H     8.9637110   -2.0359110    0.0562970  
H     6.3930570   -3.9787520   -1.4422540  
H     3.9477560   -2.8906780   -0.7223690  
H     7.9542230    2.3705680    2.2114330  
