62


C    -4.8501250   -0.1208190    0.1316900  
C    -5.5009060   -1.3105500    0.4667160  
C    -6.8949830   -1.1135070    0.2545660  
C    -7.0573600    0.2228860   -0.2124580  
N    -5.8111660    0.7932960   -0.2707790  
C    -8.3101810    0.7636290   -0.5287470  
C    -9.4165970   -0.0558940   -0.3756970  
O   -10.6600420    0.4174470   -0.6699390  
C    -9.2732370   -1.3957670    0.0875100  
O   -10.4710690   -2.0775860    0.1848950  
C    -8.0396040   -1.9281390    0.4010700  
H    -5.0269000   -2.2468510    0.7263010  
H    -5.5501590    1.6997850   -0.6400370  
H    -8.4382770    1.7803600   -0.8846260  
H   -11.2915430   -0.3035080   -0.5030330  
H   -10.3049920   -2.9826980    0.4869340  
H    -7.9556620   -2.9545930    0.7530330  
C    -1.4534590   -1.8597370    2.2967750  
C    -0.4458020   -1.1058190    1.7855990  
C    -1.0355580   -0.1742880    0.8436030  
C    -2.4783430   -0.4629270    0.8394490  
N    -2.6673010   -1.5272640    1.7034520  
C    -3.4432180    0.2257500    0.1358400  
C    -2.9447340    1.4117870   -0.5814970  
O    -3.6757860    2.2609700   -1.0792750  
C    -1.3933690    1.6244950   -0.7428980  
O    -1.0287620    2.4351390   -1.5756010  
C    -0.4708390    0.8220220    0.0814810  
H     0.5993820   -1.1643520    2.0495430  
H    -1.4177390   -2.6384810    3.0471190  
H    -3.5735330   -1.7409740    2.0967120  
C     2.8754080   -1.8268300   -1.0908450  
C     3.9052990   -0.9229070   -0.9440260  
C     3.3012130    0.3096290   -0.4856510  
C     1.9084820    0.0777630   -0.3750280  
N     1.6799460   -1.2294830   -0.7561640  
C     0.9805110    1.0727350    0.0064460  
C     1.5162890    2.3320750    0.2880680  
O     0.6991600    3.3277250    0.7217050  
C     2.9088520    2.5816930    0.1739460  
O     3.2628410    3.8784990    0.4877990  
C     3.7997720    1.5992710   -0.2125700  
H     0.7779650   -1.6792800   -0.7559870  
H     1.2393400    4.1328640    0.8043670  
H     4.2234930    3.9810480    0.4174550  
H     4.8603300    1.8209670   -0.3010740  
H     2.9121720   -2.8663040   -1.3851300  
C     5.8175380   -1.7687210   -2.3626840  
C     5.3146380   -1.1797380   -1.2399550  
C     6.4643550   -0.9015540   -0.3806600  
C     7.6668690   -1.3779390   -1.1109280  
N     7.2022550   -1.9165780   -2.2918710  
C     8.9391980   -1.2765860   -0.6464240  
C     9.1541690   -0.6768120    0.6655150  
O    10.2608170   -0.5390060    1.1655100  
C     7.8922560   -0.1922190    1.4707160  
O     8.0503550    0.3072900    2.5739190  
C     6.5696350   -0.3536060    0.8582600  
H     9.8056070   -1.6277350   -1.1987540  
H     5.7057980   -0.0182030    1.4229080  
H     5.2829170   -2.1051890   -3.2411900  
H     7.7885400   -2.2467420   -3.0421840  
