60


C     5.7859280   -1.1527100   -1.1220000  
C     4.5814660   -0.8320700   -0.5177790  
C     3.8985400   -2.0886230   -0.2717500  
C     4.7422870   -3.1171210   -0.7566140  
N     5.8821640   -2.5104450   -1.2604290  
C     4.4080620   -4.4741850   -0.6878320  
C     3.1884680   -4.8035460   -0.1160220  
O     2.8065190   -6.1079330   -0.0337440  
C     2.3359190   -3.7885480    0.3939810  
O     1.1685610   -4.2643350    0.9540440  
C     2.6780280   -2.4499800    0.3340760  
H     6.6492110   -2.9928320   -1.7037850  
H     5.0552460   -5.2604250   -1.0623980  
H     1.9259950   -6.1272340    0.3798750  
H     0.5780180   -3.5217000    1.1534880  
H     2.0224810   -1.7100310    0.7857180  
H     6.5628570   -0.4984220   -1.4904330  
C     4.1146300    0.5027920   -0.2372260  
C     4.7936810    1.6871710   -0.0812900  
C     3.8348960    2.7331920    0.1432520  
C     2.5054560    2.0809960    0.1200440  
N     2.7394560    0.7334470   -0.0685980  
C     1.3053140    2.7237030    0.2356660  
C     1.3568990    4.1869410    0.4611100  
O     0.3592080    4.8480260    0.6872580  
C     2.7586450    4.8976570    0.4832340  
O     2.7911160    6.1118450    0.6274820  
C     3.9543010    4.0794020    0.3355560  
H     5.8680710    1.8037220   -0.0812360  
H     4.9155900    4.5838860    0.3515440  
H     2.0319990    0.1041150   -0.4188400  
C    -0.4897540   -0.6226810    2.5547930  
C     0.3284480    0.3556720    2.0839220  
C    -0.3577460    0.9904250    0.9767000  
C    -1.6457420    0.2697490    0.8343300  
N    -1.6421630   -0.7379680    1.7845060  
C    -2.6287070    0.5696530   -0.0785560  
C    -2.4111030    1.8341320   -0.8251020  
O    -3.3010620    2.4217200   -1.4129290  
C    -0.9818680    2.4701880   -0.8444330  
O    -0.7176470    3.2568510   -1.7343630  
C     0.0041530    2.0447300    0.1759250  
H     1.2902390    0.6406070    2.4826240  
H    -0.3507710   -1.2745880    3.4084460  
H    -2.5508560   -1.0475430    2.1499810  
C    -5.5746080   -1.4274750    2.6473940  
C    -6.5927300   -1.6714010    1.7944450  
C    -6.1062170   -1.2524980    0.4859590  
C    -4.7251960   -0.7207390    0.7483820  
N    -4.4272830   -0.8559650    2.0132390  
C    -3.8880030   -0.1615830   -0.3042110  
C    -4.3836330   -0.3218910   -1.5759840  
O    -3.6977220   -0.0066270   -2.6761290  
C    -5.7480410   -0.8781420   -1.8695090  
O    -6.0929740   -0.9526440   -3.0474830  
C    -6.6083250   -1.3238530   -0.7596580  
H    -7.5612220   -2.0992060    2.0117990  
H    -4.3078620   -0.1695890   -3.4300720  
H    -7.5892140   -1.7157470   -1.0098970  
H    -5.5336900   -1.6098600    3.7142660  
