60


C     5.4558750   -2.4682880    0.2159440  
C     6.8213660   -2.4963130    0.1786280  
C     7.2688990   -1.1600930   -0.1014270  
C     6.1138420   -0.3502240   -0.2352220  
N     5.0004280   -1.1680150   -0.0330360  
C     6.1835010    1.0261590   -0.4778430  
C     7.4435260    1.5890030   -0.6066070  
O     7.5677270    2.9252460   -0.8518670  
C     8.6121070    0.7907140   -0.4856970  
O     9.7901560    1.4973860   -0.6359440  
C     8.5390130   -0.5664490   -0.2346610  
H     7.4398820   -3.3741170    0.3093690  
H     5.3056650    1.6489030   -0.5987430  
H     8.5169800    3.1130230   -0.9505950  
H    10.5372590    0.8811390   -0.6482520  
H     9.4461460   -1.1595180   -0.1363300  
H     4.7404360   -3.2705530    0.3310540  
C     2.0524600   -1.7976560    3.0407460  
C     0.9586950   -1.2868630    2.4151710  
C     1.3891850   -0.7813000    1.1280930  
C     2.8394940   -1.0554790    1.0562760  
N     3.1820070   -1.6657770    2.2453250  
C     3.6486570   -0.7758040   -0.0102340  
C     3.0218410   -0.1496870   -1.1834610  
O     3.6204210    0.0888090   -2.2166660  
C     1.4991190    0.2367370   -1.0876540  
O     1.0332440    0.9249490   -1.9772250  
C     0.7124390   -0.1783160    0.0980830  
H    -0.0481080   -1.2664320    2.8029670  
H     2.1314890   -2.2624860    4.0145140  
H     4.1148800   -1.9757810    2.4729280  
C    -1.9654330    2.1685510    2.7968360  
C    -0.8978260    1.5531180    2.2263160  
C    -1.3730050    0.8676190    1.0416940  
C    -2.8221570    1.1515350    0.9601090  
N    -3.1136450    1.9645660    2.0403330  
C    -3.6805010    0.7044050   -0.0099550  
C    -3.0858660   -0.1398630   -1.0580580  
O    -3.7244250   -0.5840490   -1.9979740  
C    -1.5557080   -0.4899040   -0.9750170  
O    -1.1123920   -1.2991710   -1.7688070  
C    -0.7277840    0.1093860    0.0989720  
H     0.1205670    1.5770780    2.5825100  
H    -2.0124870    2.7710100    3.6943630  
H    -4.0543120    2.1897410    2.3270250  
C    -5.5904280    2.3597700    0.0157380  
C    -5.0958320    1.0882110   -0.0711970  
C    -6.2598690    0.2094860   -0.2298530  
C    -7.4533470    1.0894950   -0.2175700  
N    -6.9764320    2.3770360   -0.0508210  
C    -8.7347680    0.6606070   -0.3430770  
C    -8.9740840   -0.7722040   -0.4810850  
O   -10.0900630   -1.2560610   -0.5930630  
C    -7.7265490   -1.7285210   -0.4691890  
O    -7.9035050   -2.9327620   -0.5503950  
C    -6.3870990   -1.1350800   -0.3506670  
H    -9.5911080    1.3280690   -0.3380020  
H    -5.5367280   -1.8062140   -0.3851430  
H    -5.0437200    3.2906040    0.0979430  
H    -7.5412440    3.2095920   -0.1174990  
