64


C    -5.2134670    0.1787330    0.0232880  
C    -5.3960630   -1.0341430   -0.6278490  
C    -6.7288620   -1.4762210   -0.3591380  
C    -7.3290830   -0.4903140    0.4701160  
N    -6.3878300    0.4880700    0.6932300  
C    -8.6499070   -0.5895800    0.9260110  
C    -9.3787300   -1.7024540    0.5380390  
O   -10.6709690   -1.8493030    0.9529720  
C    -8.7947230   -2.6990830   -0.2908850  
O    -9.6487420   -3.7457160   -0.5879220  
C    -7.4914620   -2.6005410   -0.7387480  
H    -4.6947420   -1.5041750   -1.3040110  
H    -6.5443880    1.3827970    1.1334490  
H    -9.1120640    0.1610980    1.5587000  
H   -11.0019850   -2.6809870    0.5724850  
H    -9.1988550   -4.3724860   -1.1732640  
H    -7.0679030   -3.3769620   -1.3732620  
C    -0.9606300   -0.8252360   -0.3215640  
C    -0.4309730    0.4621190   -0.2562340  
C    -1.5672140    1.3527140   -0.0860440  
C    -2.7287250    0.5492570   -0.0812090  
N    -2.3171880   -0.7678300   -0.2296750  
C    -4.0409560    1.0490880    0.0796860  
C    -4.1181840    2.4308490    0.2990420  
O    -5.3358290    3.0252550    0.5136340  
C    -2.9639030    3.2491890    0.2973610  
O    -3.2389740    4.5859910    0.5094120  
C    -1.6944600    2.7402310    0.0954360  
H    -2.9386540   -1.5596450   -0.1446040  
H    -5.1717120    3.9797240    0.6160720  
H    -2.4142560    5.0933490    0.4764050  
H    -0.8113320    3.3704350    0.0959780  
H    -0.4521450   -1.7731690   -0.4243730  
C     0.9582580    0.7999470   -0.3327150  
C     2.0541600   -0.0239190   -0.5050040  
C     3.1963650    0.8291800   -0.4863240  
C     2.6322760    2.2039250   -0.2973670  
N     1.3338200    2.1829170   -0.2070070  
C     3.4712030    3.3711490   -0.2084030  
C     4.8052160    3.1828100   -0.3079570  
O     5.7161230    4.1607490   -0.2329980  
C     5.4220870    1.8125050   -0.5319930  
O     6.6464740    1.7866800   -0.6683970  
C     4.5512030    0.6316430   -0.5896900  
H     2.0601460   -1.0988860   -0.6118400  
H     3.0328460    4.3513780   -0.0595140  
H     6.5814360    3.7106860   -0.3755960  
C     4.6665660   -1.4833800   -1.8685700  
C     5.3843450   -2.6433070   -1.8518930  
C     6.3338420   -2.5423690   -0.7769140  
C     6.1510910   -1.2730690   -0.1735060  
N     5.1197190   -0.6253770   -0.8618470  
C     6.8837900   -0.8664700    0.9470960  
C     7.8347770   -1.7428490    1.4466300  
O     8.5807370   -1.3857130    2.5340080  
C     8.0425180   -3.0093060    0.8426580  
O     9.0231630   -3.7691320    1.4528120  
C     7.3051300   -3.4161950   -0.2543710  
H     5.2635880   -3.4729040   -2.5354400  
H     6.7530620    0.0984740    1.4202750  
H     9.1893300   -2.1213410    2.7186480  
H     9.1302390   -4.6026500    0.9714510  
H     7.4684430   -4.3975560   -0.6958280  
H     3.8805250   -1.1515430   -2.5307090  
