60


C     4.0209470   -2.1889140    1.3341880  
C     4.3336750   -1.0878780    0.5543310  
C     5.6734790   -1.3112080    0.0457730  
C     6.1058680   -2.5570070    0.5617720  
N     5.0746740   -3.0616710    1.3380320  
C     7.3565020   -3.1112820    0.2686740  
C     8.1912730   -2.3928870   -0.5730310  
O     9.4202370   -2.8846910   -0.8912560  
C     7.7692920   -1.1504930   -1.1186050  
O     8.7007890   -0.5668760   -1.9508660  
C     6.5310290   -0.6081090   -0.8247120  
H     5.1081540   -3.9258190    1.8572870  
H     7.6849210   -4.0676530    0.6621110  
H     9.8360630   -2.2557110   -1.5062580  
H     8.3284690    0.2310880   -2.3548980  
H     6.2224550    0.3276010   -1.2843700  
H     3.1291210   -2.3845590    1.9119180  
C     3.4682520    0.0449970    0.3407360  
C     2.0982220    0.1345550    0.3700840  
C     1.7251180    1.4998430    0.1525700  
C     2.9964140    2.2441530   -0.0194160  
N     4.0154030    1.3050620    0.0409400  
C     3.0947940    3.5816390   -0.2097170  
C     1.8626500    4.3560200   -0.2899340  
O     1.8470840    5.5631300   -0.4755830  
C     0.4950100    3.5965070   -0.1424220  
O    -0.5303090    4.2588960   -0.1577850  
C     0.5078710    2.1314540    0.0519370  
H     1.4193500   -0.6922780    0.5075300  
H     4.0402280    4.1012440   -0.3336470  
H     4.9582180    1.5506430    0.3084640  
C    -1.2074110   -0.3183630    3.2918000  
C    -2.4606380   -0.5588560    2.8355720  
C    -2.5251770    0.0972370    1.5338580  
C    -1.1682880    0.6908190    1.3615730  
N    -0.4095770    0.4503360    2.3970850  
C    -0.7912940    1.4455760    0.1756370  
C    -1.7465490    1.5421090   -0.7930300  
O    -1.5355380    2.1424110   -1.9741500  
C    -3.1173500    0.9591540   -0.6523460  
O    -3.8956910    1.1169720   -1.5919380  
C    -3.5065110    0.2349260    0.5993580  
H    -3.2395610   -1.1401910    3.3078680  
H    -2.3933670    2.1068140   -2.4494930  
H    -0.7654520   -0.6455100    4.2258230  
C    -5.5678380   -0.0275590    1.9759850  
C    -4.8887290   -0.1906700    0.7957160  
C    -5.8171740   -0.8686130   -0.1180890  
C    -7.0699840   -1.0787710    0.6496720  
N    -6.8434660   -0.5430990    1.9069260  
C    -8.1863760   -1.6837010    0.1743650  
C    -8.1676030   -2.1933540   -1.1938710  
O    -9.1211650   -2.7531420   -1.7114420  
C    -6.8441820   -2.0146240   -2.0195450  
O    -6.7909060   -2.4555030   -3.1557940  
C    -5.7097290   -1.3220690   -1.3920600  
H    -9.0886100   -1.8186120    0.7630100  
H    -4.8215830   -1.1791130   -1.9948940  
H    -5.2246940    0.4596550    2.8788330  
H    -7.5423480   -0.4593450    2.6294300  
