62


C    -0.8866860    0.8087140    1.2784040  
C    -2.1721130    0.4899880    0.9230710  
C    -2.5917540    1.4335330   -0.0820610  
C    -1.5046950    2.3143140   -0.2918150  
N    -0.4660040    1.9240010    0.5558860  
C    -1.5526070    3.3484490   -1.2337100  
C    -2.7251660    3.5023060   -1.9557790  
O    -2.8237910    4.4948100   -2.8863300  
C    -3.8306650    2.6359040   -1.7413370  
O    -4.9263810    2.9215650   -2.5314660  
C    -3.7791580    1.6102760   -0.8172250  
H    -0.7305090    4.0341510   -1.3972220  
H    -3.7175160    4.4445180   -3.2668420  
H    -5.6313450    2.2829740   -2.3477850  
H    -4.6286820    0.9486770   -0.6694040  
H    -0.2435240    0.3564580    2.0192420  
C     3.4678100    0.1283190    0.1401520  
C     4.2192820    1.2501410    0.4336510  
C     3.3213970    2.3417740    0.6758760  
C     1.9589500    1.7882210    0.5073960  
N     2.1117120    0.4617170    0.1873510  
C     0.8106900    2.5146910    0.6588030  
C     0.9425380    3.9335030    1.0395410  
O    -0.0157990    4.6510800    1.2662270  
C     2.3915070    4.5391040    1.1688670  
O     2.4976060    5.7326360    1.4110760  
C     3.5334710    3.6541090    0.9886570  
H     5.2917260    1.2925100    0.5382470  
H     4.5268010    4.0761240    1.1045970  
H     1.3821710   -0.2364030    0.1081330  
C     7.3016750   -1.5837350   -1.3608320  
C     6.2902220   -0.7373420   -1.0097090  
C     5.1730290   -1.5429320   -0.5934330  
C     5.6141180   -2.9496170   -0.7437290  
N     6.9245370   -2.9004040   -1.1845650  
C     4.8558810   -4.0444600   -0.4823430  
C     3.4823500   -3.8315690   -0.0535440  
O     2.7188550   -4.7369380    0.2366300  
C     2.9521280   -2.3551530    0.0268480  
O     1.7539370   -2.2046390    0.2223500  
C     3.8998260   -1.2274670   -0.1455480  
H     6.3198280    0.3373010   -1.0842420  
H     5.2190670   -5.0631510   -0.5735050  
H     8.2879050   -1.3476230   -1.7380060  
H     7.4786890   -3.7066220   -1.4286370  
C    -3.2096540   -0.6680720    2.8626500  
C    -3.9869680   -1.7714360    3.0852560  
C    -4.2413180   -2.3733630    1.8069260  
C    -3.5795120   -1.5791830    0.8344250  
N    -2.9524800   -0.5306400    1.5015460  
C    -3.5891600   -1.8946690   -0.5308380  
C    -4.2987270   -3.0193630   -0.9229450  
O    -4.3468090   -3.3691800   -2.2447130  
C    -4.9783670   -3.8170340    0.0336630  
O    -5.6454000   -4.9016140   -0.5113140  
C    -4.9550940   -3.5110170    1.3818880  
H    -4.3450460   -2.1118220    4.0474060  
H    -3.0641930   -1.3027290   -1.2718310  
H    -4.8577270   -4.1947720   -2.3005960  
H    -6.0113540   -5.4426520    0.2036220  
H    -5.4773270   -4.1426200    2.0984680  
H    -2.8204320    0.0696060    3.5497800  
