62


C    -3.0976800   -1.0874980   -1.0233930  
C    -4.0966050   -0.2469690   -0.5790630  
C    -3.4274850    0.8995770   -0.0035590  
C    -2.0335970    0.6798960   -0.1347420  
N    -1.8592070   -0.5298860   -0.7683380  
C    -1.0817490    1.6014700    0.3427960  
C    -1.5555570    2.7637690    0.9479550  
O    -0.6729090    3.6932480    1.4114960  
C    -2.9495390    2.9926170    1.0664600  
O    -3.2538930    4.1935990    1.6773750  
C    -3.8818520    2.0820550    0.6095670  
H    -0.9709680   -0.9661880   -0.9604430  
H    -1.1992600    4.4117290    1.8052350  
H    -4.2148280    4.2762120    1.7679620  
H    -4.9446540    2.2874080    0.6895680  
H    -3.1761660   -2.0302430   -1.5465820  
C     1.1945110    2.2234330   -0.4794270  
C     2.4694880    1.7497390   -0.4429460  
C     2.4556090    0.5268730    0.3178160  
C     1.0455140    0.3191130    0.7216710  
N     0.3167910    1.3838610    0.2020390  
C     0.5911150   -0.7411870    1.4422180  
C     1.5459320   -1.7730730    1.8232860  
O     1.2201270   -2.8011600    2.3975180  
C     3.0623170   -1.5425140    1.4916780  
O     3.8760850   -2.2940010    1.9934330  
C     3.4456260   -0.3737060    0.6520880  
H     3.3272820    2.2005180   -0.9164170  
H    -0.4471140   -0.8617170    1.7305310  
H     0.8039110    3.1152210   -0.9488890  
C     4.8345130   -0.2037010    0.2647170  
C     5.5629510    0.9544920    0.1789640  
C     6.8805690    0.5602820   -0.2634810  
C     6.7793330   -0.9261530   -0.4294490  
N     5.5990490   -1.3690550   -0.1188580  
C     7.8996630   -1.7088040   -0.8900570  
C     9.0581820   -1.0583360   -1.1460830  
O    10.1831310   -1.6539730   -1.5709050  
C     9.1933820    0.4365250   -0.9724060  
O    10.2883690    0.9364080   -1.2351060  
C     8.0370030    1.2165360   -0.5173770  
H     5.2522230    1.9510000    0.4589700  
H     7.7996570   -2.7819940   -1.0075800  
H    10.8384410   -0.9261290   -1.6627290  
H     8.1696510    2.2893910   -0.4157860  
C    -6.3468650   -3.8501510    0.5657100  
C    -7.5963210   -3.4283090    0.1924090  
C    -7.4543060   -2.0979650   -0.3289200  
C    -6.0766320   -1.7666390   -0.2514170  
N    -5.4252170   -2.8584900    0.2862720  
C    -5.5432060   -0.5226570   -0.6562810  
C    -6.4712310    0.3995890   -1.1438890  
O    -6.0552930    1.6337740   -1.5712090  
C    -7.8523950    0.0867130   -1.2249750  
O    -8.6241920    1.1201320   -1.7331320  
C    -8.3540660   -1.1398110   -0.8351760  
H    -8.5117590   -3.9976760    0.2775200  
H    -4.4514050   -2.8646650    0.5481890  
H    -6.8395870    2.0780490   -1.9388280  
H    -9.5192720    0.7945510   -1.9082740  
H    -9.4192170   -1.3503310   -0.9077420  
H    -6.0280000   -4.7856080    1.0035660  
