64


C     7.1679750    0.1258490   -2.7756440  
C     8.1883490   -0.3753190   -2.0093320  
C     7.6342010   -0.6803020   -0.7216860  
C     6.2535790   -0.3449350   -0.7720470  
N     6.0057950    0.1561240   -2.0324640  
C     5.3725640   -0.4832520    0.3268330  
C     5.9659110   -0.9630300    1.4936590  
O     5.2044660   -1.1065790    2.6419440  
C     7.3364040   -1.3053480    1.5675420  
O     7.7240900   -1.7679540    2.8138070  
C     8.1761020   -1.1775940    0.4790980  
H     9.2162210   -0.5024890   -2.3198170  
H     5.0918080    0.4149690   -2.3721260  
H     5.7979240   -1.4571430    3.3312520  
H     8.6677050   -1.9851780    2.8004350  
H     9.2287900   -1.4413960    0.5558590  
H     7.1709130    0.4732280   -3.7992920  
C     2.1543920   -1.4825970   -2.6618510  
C     3.3206580   -1.4485860   -1.9421790  
C     3.1167060   -0.5485300   -0.8350960  
C     1.7813980   -0.0802970   -0.9355810  
N     1.2187750   -0.6675030   -2.0525420  
C     1.1866330    0.8068170   -0.0149780  
C     1.9992670    1.1999800    1.0463650  
O     1.5112950    2.0168400    2.0145590  
C     3.3430260    0.7495530    1.1687050  
O     3.9938130    1.2630220    2.2708850  
C     3.9399000   -0.1013230    0.2376980  
H     4.2124330   -2.0193890   -2.1566240  
H     0.3059690   -0.4419940   -2.4172910  
H     2.2475850    2.1342410    2.6462780  
H     4.4847400    0.5265280    2.6969040  
H     1.9018730   -2.0366650   -3.5549220  
C    -2.4746830   -1.5903270    0.1580490  
C    -3.4061170   -0.5809680   -0.0294440  
C    -2.6535490    0.6509630   -0.1724000  
C    -1.2857640    0.3094480   -0.0608070  
N    -1.2151800   -1.0608640    0.1342690  
C    -0.2278910    1.2367280   -0.1410070  
C    -0.6003500    2.5644660   -0.3516020  
O     0.3528870    3.5249760   -0.4658740  
C    -1.9683500    2.9270060   -0.4858370  
O    -2.1588280    4.2737190   -0.7162320  
C    -2.9908970    1.9992720   -0.4063280  
H    -0.3581540   -1.5653720    0.3096460  
H    -0.1038020    4.3757830   -0.5852860  
H    -3.1047240    4.4614010   -0.8081000  
H    -4.0230340    2.3089000   -0.5502370  
H    -2.6354750   -2.6434200    0.3387540  
C    -4.8359040   -0.7662300   -0.0452080  
C    -5.5893260   -1.8642550   -0.3816030  
C    -6.9745240   -1.5455110   -0.1781900  
C    -7.0018010   -0.1477230    0.3207890  
N    -5.6864400    0.2939640    0.3204990  
C    -8.1260270    0.5118900    0.6903120  
C    -9.4102000   -0.1750440    0.5578970  
O   -10.4729110    0.3466780    0.8601690  
C    -9.4112790   -1.6413070   -0.0115300  
O   -10.4822710   -2.2205760   -0.1357580  
C    -8.1306920   -2.2483720   -0.3544710  
H    -5.2041210   -2.7885180   -0.7883650  
H    -8.1264980    1.5311410    1.0653560  
H    -8.1417650   -3.2680130   -0.7277860  
H    -5.3676300    1.0435800    0.9182500  
