62


C    -3.3117280    1.2238370   -1.7191090  
C    -3.0749440    0.2364330   -0.7840760  
C    -4.3259060    0.0480240   -0.0733590  
C    -5.2685040    0.9465220   -0.6368730  
N    -4.6194300    1.6462120   -1.6344400  
C    -6.5865610    1.0508000   -0.1763320  
C    -6.9623590    0.2349340    0.8791280  
O    -8.2345540    0.2940780    1.3641820  
C    -6.0292260   -0.6605290    1.4686000  
O    -6.5498330   -1.3943240    2.5154730  
C    -4.7280610   -0.7612710    1.0127340  
H    -5.0382760    2.3566760   -2.2144070  
H    -7.3073190    1.7399930   -0.6042570  
H    -8.2899100   -0.3297470    2.1087360  
H    -5.8527790   -1.9395880    2.9096640  
H    -4.0289690   -1.4422890    1.4917750  
H    -2.6428220    1.6353750   -2.4613510  
C     1.1764630    1.6593950   -0.2657690  
C    -0.2104050    1.5677180   -0.4343060  
C    -0.5556130    0.1990850   -0.4620200  
C     0.6576940   -0.5383530   -0.3002990  
N     1.6789960    0.3635140   -0.2052740  
C     0.7051560   -1.9505900   -0.2854800  
C    -0.5359060   -2.5875140   -0.3734680  
O    -0.6095580   -3.9390920   -0.3123580  
C    -1.7540970   -1.8616460   -0.5244540  
O    -2.8579700   -2.6830200   -0.6307750  
C    -1.8041500   -0.4786840   -0.5851080  
H    -0.8971330    2.3981480   -0.4688820  
H     2.6053280    0.1651890    0.1524050  
H    -1.5426400   -4.1803130   -0.4563150  
H    -3.6383420   -2.1416780   -0.8406090  
C     0.6843130    6.0515780   -1.0990450  
C     0.4511900    4.7112110   -1.0922270  
C     1.6224000    4.1162730   -0.4636420  
C     2.4799860    5.2759220   -0.1633850  
N     1.9280330    6.4100820   -0.5236850  
C     3.7803340    5.1386870    0.4439480  
C     4.2245350    3.8915690    0.7130340  
O     5.4361530    3.6182700    1.2456380  
C     3.3963840    2.6863420    0.4166080  
O     3.9165880    1.5909070    0.6586410  
C     2.0025010    2.8314090   -0.1394450  
H    -0.3991410    4.1952260   -1.5119050  
H     4.3778350    6.0202940    0.6490590  
H     5.4766850    2.6406880    1.3052500  
H     0.0477310    6.8344240   -1.4945530  
C     4.0882040   -1.7973150    2.5423470  
C     4.8803630   -2.8016530    2.1049360  
C     4.1957470   -3.3450240    0.9367510  
C     2.9481620   -2.5176020    0.8239770  
N     2.8993750   -1.6163540    1.7622660  
C     1.9592810   -2.7331700   -0.2217930  
C     2.2674180   -3.7031360   -1.1332320  
O     1.5085910   -3.9974470   -2.1966490  
C     3.5122050   -4.5439540   -1.0437800  
O     3.6876790   -5.3930000   -1.9170460  
C     4.4712970   -4.3210040    0.0524430  
H     5.8223700   -3.1404460    2.5130260  
H     1.9789680   -4.7300920   -2.6540730  
H     5.3566020   -4.9490070    0.0772070  
H     4.2491550   -1.1377600    3.3865060  
