62


C    -4.0959390    0.5886730   -2.0918340  
C    -5.4409680    0.8227280   -2.0313020  
C    -5.9155470    0.2651750   -0.7956950  
C    -4.7925910   -0.2983730   -0.1366840  
N    -3.6786630   -0.0950710   -0.9491570  
C    -4.8834820   -0.9052670    1.1267030  
C    -6.1383520   -0.9643540    1.7192500  
O    -6.2792950   -1.5420250    2.9445490  
C    -7.2744550   -0.4200280    1.0650130  
O    -8.4468540   -0.5592480    1.7796730  
C    -7.1745970    0.1955400   -0.1699940  
H    -6.0306530    1.3274390   -2.7843140  
H    -4.0200090   -1.2769810    1.6686390  
H    -7.2164770   -1.4678460    3.1952470  
H    -9.1737330   -0.1329930    1.3019330  
H    -8.0569490    0.6193390   -0.6454270  
H    -3.3761320    0.8178380   -2.8639650  
C     0.2198250    1.9978200   -0.8616830  
C    -1.1232000    1.7212480   -0.9293840  
C    -1.2572840    0.3073990   -0.7322210  
C     0.0374510   -0.2210160   -0.5225260  
N     0.9242880    0.8325060   -0.6027640  
C     0.3095030   -1.5938440   -0.3005200  
C    -0.8179500   -2.4356810   -0.2896660  
O    -0.6911750   -3.7547640   -0.0359780  
C    -2.1281480   -1.9256870   -0.5030500  
O    -3.1007360   -2.8974670   -0.5048510  
C    -2.3645710   -0.5724520   -0.7208930  
H    -1.9164170    2.4420880   -1.0633790  
H     1.9277640    0.7280190   -0.6594620  
H    -1.5896420   -4.1343740   -0.0556500  
H    -3.9755860   -2.5080690   -0.3290890  
C     0.6783790    4.0943530   -2.1084190  
C     1.4382910    5.2097060   -1.9954430  
C     2.2169320    5.0834220   -0.7809290  
C     1.8316900    3.7843400   -0.1761930  
N     0.8943700    3.2119950   -1.0385750  
C     2.3218050    3.3111110    0.9971810  
C     3.3156460    4.1142200    1.7085650  
O     3.8156190    3.7635430    2.7659530  
C     3.7549600    5.4837690    1.0747070  
O     4.5906470    6.1622110    1.6501200  
C     3.1333930    5.8925570   -0.1884160  
H     1.4678150    6.0371520   -2.6894000  
H     2.0057620    2.3745260    1.4434040  
H     3.4301130    6.8484110   -0.6094230  
H    -0.0230660    3.8058170   -2.8794040  
C     1.6676740   -2.0773580   -0.1083840  
C     2.7169970   -1.4298650    0.4985080  
C     3.8490480   -2.3182380    0.3838070  
C     3.3090540   -3.4976410   -0.3688120  
N     2.0467140   -3.3598860   -0.6462810  
C     4.1465180   -4.6185550   -0.7135430  
C     5.4380330   -4.5825810   -0.3110780  
O     6.3325170   -5.5517530   -0.5495050  
C     6.0056930   -3.4137800    0.4659130  
O     7.1942450   -3.4801050    0.7824310  
C     5.1399080   -2.2776190    0.7920290  
H     2.6927220   -0.5035660    1.0563300  
H     3.7344090   -5.4554020   -1.2661500  
H     7.1674100   -5.2355090   -0.1348080  
H     5.5836530   -1.4541490    1.3432000  
