62


C     4.7907830   -3.3735880   -2.5606720  
C     4.0372730   -2.3217770   -2.1085230  
C     4.6535930   -1.8594280   -0.8967430  
C     5.7929350   -2.6761300   -0.6643700  
N     5.8452710   -3.5921980   -1.6937170  
C     6.6569100   -2.4929780    0.4216230  
C     6.3641110   -1.4620390    1.3018280  
O     7.1671160   -1.2318920    2.3754870  
C     5.2184640   -0.6427490    1.1172750  
O     5.0035810    0.2830080    2.1186060  
C     4.3660320   -0.8357400    0.0320280  
H     3.1582730   -1.9176560   -2.5901140  
H     6.5609030   -4.2922230   -1.8117620  
H     7.5345050   -3.1089850    0.5875030  
H     6.7919180   -0.4623750    2.8420540  
H     4.6943690    1.1271490    1.7381570  
H     4.6665700   -3.9902700   -3.4394480  
C     1.8915130   -0.5213590   -0.1250010  
C     0.9646150    0.4767340   -0.1711440  
C     1.7223880    1.7295250   -0.1872150  
C     3.1555430    1.3526090   -0.1564570  
N     3.2034460   -0.0276430   -0.1182550  
C     4.1887140    2.2453710   -0.1653650  
C     3.8754030    3.6707860   -0.2012730  
O     4.7293160    4.5433450   -0.2394710  
C     2.3614740    4.0887790   -0.1915660  
O     2.0720360    5.2735360   -0.1733850  
C     1.3412330    3.0297690   -0.2072690  
H     5.2301370    1.9451220   -0.2404730  
H     0.3014600    3.3329070   -0.2498010  
H     1.7424370   -1.5929390   -0.1167820  
C    -1.5953180   -1.9373490    2.4656290  
C    -2.8032650   -1.6432710    1.8892380  
C    -2.5519200   -0.7259260    0.8128790  
C    -1.1468900   -0.5187150    0.7768730  
N    -0.5926600   -1.2683000    1.7931470  
C    -0.4968880    0.3068730   -0.1614760  
C    -1.3322090    0.9134010   -1.1039930  
O    -0.7983060    1.7054530   -2.0720690  
C    -2.7344070    0.7093090   -1.1091880  
O    -3.3815140    1.4013340   -2.1109170  
C    -3.3823170   -0.0760390   -0.1488700  
H    -3.7601480   -2.0330520    2.2023720  
H     0.3787390   -1.2365560    2.0615170  
H    -1.5534450    1.9843070   -2.6269360  
H    -4.0062150    0.7748380   -2.5344090  
H    -1.3621840   -2.5789080    3.3035010  
C    -6.4720170    0.2518700    3.0719400  
C    -5.2968540    0.3314660    2.4067760  
C    -5.5953620   -0.1016610    1.0417670  
C    -7.0519380   -0.4112580    1.0801750  
N    -7.5600530   -0.2157060    2.2632070  
C    -7.7654070   -0.8712940   -0.0846100  
C    -7.0736540   -0.9693820   -1.2411050  
O    -7.6186240   -1.3504460   -2.4119930  
C    -5.6234780   -0.6009150   -1.3210810  
O    -5.1192160   -0.6237410   -2.4528100  
C    -4.8509230   -0.2313390   -0.0942110  
H    -4.3375710    0.6575820    2.7792630  
H    -8.8226520   -1.1028950   -0.0209810  
H    -6.9007340   -1.2866360   -3.0761560  
H    -6.6723290    0.5014070    4.1068230  
