60


C    -5.2130730   -1.9717550    3.1802630  
C    -6.2584870   -2.3373770    2.3726760  
C    -5.9196990   -1.9367330    1.0360910  
C    -4.6381780   -1.3310660    1.0971010  
N    -4.2292960   -1.3745850    2.4144190  
C    -3.9735740   -0.7895440   -0.0251930  
C    -4.6579170   -0.8829100   -1.2389060  
O    -4.0813530   -0.4070440   -2.3833810  
C    -5.9409690   -1.4835480   -1.3172240  
O    -6.4682930   -1.4933020   -2.5973700  
C    -6.5747790   -2.0110890   -0.2088950  
H    -7.1640730   -2.8355190    2.6909740  
H    -3.3868560   -0.9452350    2.7640540  
H    -4.7118090   -0.5664970   -3.1071770  
H    -7.3336620   -1.9275770   -2.5846950  
H    -7.5589150   -2.4666880   -0.3000990  
H    -5.0785150   -2.0933640    4.2458810  
C    -1.5350820   -0.7454110    0.6707360  
C    -2.6366350   -0.1813760    0.0915590  
C    -2.2163400    1.1433020   -0.3545610  
C    -0.7884510    1.2882250    0.0400710  
N    -0.4534790    0.1224840    0.6883730  
C    -0.0268020    2.4146980   -0.1855870  
C    -0.6559300    3.4416860   -1.0521250  
O    -0.0230190    4.3362650   -1.5871620  
C    -2.1940400    3.3587810   -1.3432980  
O    -2.7383770    4.3138680   -1.8770100  
C    -2.8999910    2.1370480   -0.9784830  
H    -3.9501540    2.0533330   -1.2330430  
H    -1.4113380   -1.7439940    1.0702400  
H     0.5163420   -0.1976380    0.7379150  
C     3.5406660   -0.2245380    0.1899400  
C     4.5063130    0.6932940    0.5121000  
C     3.8239410    1.9615310    0.6317890  
C     2.3959240    1.6531320    0.2941790  
N     2.2492430    0.3843190    0.0472510  
C     1.3479230    2.6615340    0.2840250  
C     1.7388760    3.8936160    0.7497560  
O     0.8941110    4.9078830    0.9528280  
C     3.1575510    4.2311530    1.1067880  
O     3.3915140    5.3789730    1.4912580  
C     4.2007220    3.2010230    1.0106100  
H     5.5464440    0.5081240    0.7389740  
H     1.4539960    5.6629590    1.2427730  
H     5.2137430    3.4854590    1.2776570  
C     6.7783570   -2.7769180   -1.4596060  
C     6.0111890   -1.7253520   -1.0554000  
C     4.7872820   -2.2626510   -0.5170510  
C     4.8968760   -3.7335390   -0.6522880  
N     6.1393300   -3.9786290   -1.2068980  
C     3.9328020   -4.6253110   -0.3077550  
C     2.6849100   -4.1039840    0.2286350  
O     1.7357060   -4.8107810    0.5267280  
C     2.5533140   -2.5505440    0.4453250  
O     1.5471610   -2.1556470    1.0116120  
C     3.6612520   -1.6601390    0.0105400  
H     6.2657780   -0.6819350   -1.1520600  
H     4.0352910   -5.6987570   -0.4321240  
H     7.7562990   -2.7715170   -1.9224840  
H     6.4795410   -4.8894220   -1.4737240  
