60


C     7.5693130    2.5254850    1.2859040  
C     8.5303030    1.6616250    0.8327810  
C     7.8543140    0.6100100    0.1262510  
C     6.4663450    0.8990510    0.1803440  
N     6.3225820    2.0797500    0.8807250  
C     5.4793130    0.0680060   -0.3937850  
C     5.9425020   -1.0835230   -1.0340620  
O     5.0533490   -1.9306150   -1.6324400  
C     7.3270210   -1.3850960   -1.0959410  
O     7.6020940   -2.5588280   -1.7708100  
C     8.2809230   -0.5585780   -0.5340400  
H     9.5965930    1.7614280    0.9814160  
H     5.4399950    2.4690810    1.1731690  
H     5.5706480   -2.6489620   -2.0379560  
H     8.5604350   -2.6873460   -1.8270560  
H     9.3369160   -0.8128910   -0.5963170  
H     7.6638650    3.4364440    1.8598360  
C     3.4831250    1.5955410   -0.7060800  
C     4.0476520    0.4121220   -0.3407870  
C     2.9463180   -0.4268820    0.1379410  
C     1.7135090    0.3815150    0.0228250  
N     2.1041970    1.6009140   -0.4572930  
C     0.4383770   -0.0530820    0.3324650  
C     0.3227050   -1.4642630    0.7281730  
O    -0.7471230   -2.0454040    0.8740840  
C     1.6339710   -2.2880190    0.9888410  
O     1.5300190   -3.4008780    1.4747800  
C     2.9209950   -1.6921790    0.6255810  
H     3.8137810   -2.2958310    0.7375970  
H     3.9512100    2.4671870   -1.1439010  
H     1.4538450    2.2739390   -0.8398300  
C    -0.7321880    0.8017620    0.2532040  
C    -0.8337400    2.1796240    0.2908880  
C    -2.2256600    2.5268660    0.2003970  
C    -2.9623450    1.2454650    0.0982910  
N    -2.0060220    0.2511940    0.1345570  
C    -4.3193270    1.1299820   -0.0284910  
C    -5.0956220    2.3931050    0.0192510  
O    -6.3114630    2.4096220    0.0807730  
C    -4.3233710    3.7601410    0.0665600  
O    -4.9662500    4.7987020    0.0172050  
C    -2.8708500    3.7284800    0.1819900  
H    -0.0336050    2.8805440    0.4781440  
H    -2.3455210    4.6773690    0.2341190  
H    -2.1595980   -0.7487130    0.1738920  
C    -4.3708260   -2.5802870    2.3832250  
C    -5.2309480   -3.3178510    1.6368310  
C    -5.6324180   -2.5043960    0.5081200  
C    -4.9224160   -1.2113250    0.6593950  
N    -4.1553490   -1.3314390    1.8056060  
C    -5.0365610   -0.1442420   -0.1864510  
C    -5.9028550   -0.3370900   -1.3739890  
O    -5.9679890    0.4774710   -2.2766070  
C    -6.7120510   -1.6774890   -1.5132930  
O    -7.4916410   -1.7949910   -2.4458870  
C    -6.4843100   -2.7312480   -0.5277810  
H    -5.5523260   -4.3290800    1.8391380  
H    -7.0263650   -3.6641690   -0.6481890  
H    -3.8567860   -2.8410880    3.2986690  
H    -3.6860870   -0.5608710    2.2559620  
