60


C     6.7125480   -3.0544420   -0.1271390  
C     7.8312190   -2.2657280   -0.1211020  
C     7.3871030   -0.8989020   -0.1229390  
C     5.9691570   -0.9243490   -0.1212790  
N     5.5812230   -2.2528180   -0.0945730  
C     5.1717040    0.2403780   -0.1559080  
C     5.8593500    1.4558460   -0.1921320  
O     5.1612480    2.6237520   -0.1813490  
C     7.2772110    1.4969710   -0.1893760  
O     7.7935520    2.7799090   -0.2074080  
C     8.0430980    0.3469970   -0.1492240  
H     8.8549140   -2.6142530   -0.1159200  
H     4.6451500   -2.5729740   -0.2944770  
H     5.8026450    3.3429240   -0.3180610  
H     8.7417970    2.7434070   -0.4013540  
H     9.1294120    0.4087750   -0.1435000  
H     6.6172360   -4.1310770   -0.1374280  
C     2.3792620   -1.5164610    2.7135140  
C     1.1935270   -1.2401060    2.1044790  
C     1.4929210   -0.5151140    0.8860020  
C     2.9670410   -0.3982590    0.8334970  
N     3.4410970   -1.0171140    1.9788930  
C     3.6949840    0.1937660   -0.1594270  
C     2.9200570    0.7446080   -1.2896210  
O     3.4374060    1.1967420   -2.2945180  
C     1.3505870    0.7293860   -1.2073980  
O     0.7241190    1.3627860   -2.0381890  
C     0.6896260    0.0032720   -0.0974320  
H     0.2139890   -1.5365760    2.4485020  
H     2.5658770   -2.0496530    3.6366240  
H     4.4200070   -1.1162650    2.2013960  
C    -2.3159400    1.4375960    2.7861860  
C    -3.4517870    1.0383570    2.1545490  
C    -3.0548320    0.3871730    0.9216190  
C    -1.5759230    0.4342430    0.8934830  
N    -1.1934390    1.0920970    2.0488230  
C    -0.7791690   -0.0728600   -0.0938910  
C    -1.4698510   -0.7559630   -1.2046480  
O    -0.8740700   -1.3595990   -2.0789450  
C    -3.0383440   -0.7425930   -1.2429380  
O    -3.5943950   -1.1440210   -2.2484070  
C    -3.7844560   -0.1915120   -0.0849380  
H    -4.4619270    1.1634300    2.5139880  
H    -2.2016060    1.9516780    3.7315230  
H    -0.2356160    1.2640380    2.3120110  
C    -6.8719010    2.9627780   -0.0645530  
C    -7.9861620    2.1890420   -0.1232110  
C    -7.5513590    0.8075280   -0.1382340  
C    -6.0699300    0.8423500   -0.0759520  
N    -5.7239480    2.1790380   -0.0125200  
C    -5.2544040   -0.2529730   -0.1090660  
C    -5.9202740   -1.5731630   -0.1633890  
O    -5.3040300   -2.6213640   -0.0882240  
C    -7.4890460   -1.6265430   -0.2545090  
O    -8.0327090   -2.7162040   -0.3436660  
C    -8.2312070   -0.3678980   -0.2187220  
H    -9.0084690    2.5360860   -0.1590220  
H    -9.3141230   -0.4169020   -0.2788910  
H    -6.7848750    4.0412550   -0.0480890  
H    -4.7768070    2.5211330   -0.0638350  
