60


C     6.7270170    0.8205720   -2.4799390  
C     7.4497220   -0.3370940   -2.3685740  
C     6.7182860   -1.2107780   -1.4947660  
C     5.5442800   -0.5117220   -1.1068140  
N     5.5669800    0.7155290   -1.7321810  
C     4.5853670   -1.0798810   -0.2457920  
C     4.8208850   -2.3747870    0.2156350  
O     3.9188990   -2.9726770    1.0484430  
C     5.9814990   -3.0820600   -0.1846180  
O     6.0556650   -4.3551300    0.3483990  
C     6.9259460   -2.5214320   -1.0237530  
H     8.3917750   -0.5486490   -2.8548300  
H     4.9125180    1.4640770   -1.5635780  
H     4.2848700   -3.8453620    1.2780490  
H     6.9226780   -4.7401130    0.1528220  
H     7.8061640   -3.0882960   -1.3188770  
H     6.9355360    1.7232800   -3.0362350  
C     2.1044970   -0.8758850   -0.0546210  
C     1.1573970   -0.0004360    0.3833430  
C     1.8800610    1.1544430    0.9085900  
C     3.3237640    0.8585530    0.7353930  
N     3.4026470   -0.3894510    0.1294840  
C     4.3265890    1.6863950    1.1341490  
C     3.9737590    2.9524910    1.7711070  
O     4.8075750    3.7572170    2.1586170  
C     2.4504830    3.2821810    1.9677650  
O     2.1347250    4.3320750    2.5039000  
C     1.4625990    2.3023670    1.5019010  
H     5.3773300    1.4371580    1.0355100  
H     0.4138030    2.5325780    1.6588910  
H     1.9701790   -1.8459480   -0.5115380  
C    -0.9436290   -1.3099430    0.8713210  
C    -0.2887070   -0.2196770    0.3745420  
C    -1.3166190    0.6458130   -0.1933270  
C    -2.6075720   -0.0618640    0.0038610  
N    -2.3056760   -1.2618870    0.6174890  
C    -3.8313230    0.4080790   -0.4025240  
C    -3.8339790    1.8086200   -0.9041850  
O    -4.8495760    2.4720660   -1.0101610  
C    -2.4696130    2.4897220   -1.2708120  
O    -2.4913270    3.5381900   -1.8958870  
C    -1.2376290    1.8420270   -0.8343090  
H    -0.2960870    2.3393930   -1.0424750  
H    -0.5240130   -2.1537500    1.4043630  
H    -3.0227340   -1.6988350    1.2044680  
C    -5.6942920   -2.2222190    2.7038580  
C    -6.9579850   -2.3237850    2.2384250  
C    -6.9539290   -1.6216250    0.9612750  
C    -5.5509170   -1.0999680    0.8218970  
N    -4.8265450   -1.4840730    1.8387780  
C    -5.1216230   -0.3006790   -0.3168200  
C    -6.0400630   -0.2130800   -1.3343800  
O    -5.7793000    0.3498500   -2.5148930  
C    -7.4412290   -0.7516150   -1.2337910  
O    -8.1831850   -0.5913110   -2.2006880  
C    -7.8678410   -1.4530610   -0.0110020  
H    -7.8005310   -2.8275210    2.6907580  
H    -6.6221290    0.3181330   -3.0208900  
H    -8.8871040   -1.8245890    0.0260550  
H    -5.2831070   -2.6226670    3.6224530  
