60


C    -3.2133570   -2.2056840    3.0957950  
C    -3.7955220   -3.3062170    2.5245340  
C    -4.3799270   -2.8802030    1.2832250  
C    -4.1099800   -1.4935660    1.1520900  
N    -3.3830890   -1.1121420    2.2637050  
C    -4.5561370   -0.7130370    0.0633110  
C    -5.2930560   -1.3869830   -0.9130680  
O    -5.7190550   -0.7158420   -2.0172360  
C    -5.5689120   -2.7741270   -0.7975520  
O    -6.2963490   -3.2840780   -1.8582920  
C    -5.1239450   -3.5234270    0.2749130  
H    -3.8095000   -4.3051640    2.9386640  
H    -3.1562700   -0.1584210    2.4988480  
H    -6.2883800   -1.3224890   -2.5218130  
H    -6.5907560   -4.1815230   -1.6442460  
H    -5.3484760   -4.5865590    0.3352310  
H    -2.6781740   -2.1040710    4.0294380  
C    -0.7464100    1.4826960   -0.1226200  
C    -1.2416260    2.7664750   -0.2009570  
C    -2.6759090    2.6891280   -0.1778070  
C    -3.0138660    1.2520380   -0.0727390  
N    -1.8120440    0.5792650   -0.0261480  
C    -4.2787100    0.7354050   -0.0439470  
C    -5.3881660    1.7126900   -0.0838270  
O    -6.5584540    1.3941440    0.0306610  
C    -5.0470250    3.2425470   -0.2383970  
O    -5.9676710    4.0410200   -0.3334450  
C    -3.6441520    3.6467840   -0.2557580  
H    -0.6394990    3.6570850   -0.2732640  
H    -3.4184100    4.7045680   -0.3497080  
H    -1.7083620   -0.4250440   -0.0268120  
C     3.0176130    3.7577310   -0.3353110  
C     3.9434920    2.7731110   -0.3044290  
C     3.1812030    1.5354280   -0.2059400  
C     1.7503980    1.9824910   -0.1979100  
N     1.6721530    3.2772120   -0.2727510  
C     0.6349490    1.0330830   -0.1299790  
C     1.0027670   -0.2878630   -0.0766670  
O     0.1262980   -1.3071720    0.0005660  
C     2.4203910   -0.7552330   -0.0652080  
O     2.6108640   -1.9640770    0.0662580  
C     3.5321990    0.2271840   -0.1659530  
H     5.0190890    2.8635730   -0.3432350  
H     0.6757770   -2.1235100    0.0545770  
H     3.1769840    4.8265930   -0.4055870  
C     7.2164700    0.7761480    2.3333010  
C     5.9502090    0.9085830    1.8698610  
C     5.8860540    0.0473490    0.6957210  
C     7.2612840   -0.5514590    0.6102870  
N     8.0292520   -0.1199020    1.5680340  
C     7.6173430   -1.4912110   -0.4186620  
C     6.6672420   -1.8287180   -1.3216860  
O     6.8658100   -2.6797500   -2.3380730  
C     5.2829160   -1.2391310   -1.2786820  
O     4.5092480   -1.5400410   -2.1814430  
C     4.9132810   -0.2869280   -0.1885430  
H     5.1521110    1.5153510    2.2720290  
H     8.6198040   -1.9026830   -0.4540330  
H     6.0181820   -2.7110930   -2.8329080  
H     7.6597710    1.2582160    3.1966070  
