60


C     6.2939480   -0.8879650   -3.0877320  
C     5.1088400   -0.4373280   -2.5669920  
C     5.0437010   -0.9090250   -1.2122350  
C     6.2339430   -1.6449180   -0.9642370  
N     6.9712920   -1.6177480   -2.1290570  
C     6.5274740   -2.2311290    0.2722940  
C     5.5961140   -2.0763840    1.2883480  
O     5.8263850   -2.6201210    2.5133040  
C     4.3831330   -1.3704120    1.0697340  
O     3.5130280   -1.3703030    2.1421910  
C     4.1016100   -0.7941270   -0.1671650  
H     4.3806700    0.1717070   -3.0834710  
H     7.8806020   -2.0358160   -2.2501240  
H     7.4443530   -2.7791720    0.4622350  
H     5.0648930   -2.3793740    3.0724550  
H     3.0962660   -0.4938980    2.2399610  
H     6.7198840   -0.7451350   -4.0706480  
C     1.9111990   -0.4872270   -1.3358070  
C     0.7905910    0.2723090   -1.2393710  
C     0.9968860    1.2059540   -0.1510670  
C     2.3569960    0.9287010    0.3681790  
N     2.8641670   -0.1211950   -0.3785380  
C     2.9632240    1.6251110    1.3730880  
C     2.2321500    2.7283580    1.9851010  
O     2.7067340    3.4514250    2.8461100  
C     0.7600600    2.9916040    1.5108160  
O     0.0826300    3.7972610    2.1207260  
C     0.2204010    2.2080450    0.3650580  
H    -0.0829370    0.2128800   -1.8708220  
H     3.9999020    1.4709660    1.6588950  
H     2.1493310   -1.2894800   -2.0210470  
C    -3.6145080   -0.0990110   -0.0997620  
C    -2.3041930    0.2322730    0.1799710  
C    -2.1619040    1.6179930   -0.1797530  
C    -3.5172300    2.0003810   -0.6891820  
N    -4.3532110    1.0041320   -0.6454930  
C    -3.8028230    3.3322900   -1.1509290  
C    -2.8050990    4.2442490   -1.0830250  
O    -2.9263690    5.5204640   -1.4699900  
C    -1.4204600    3.8914680   -0.5909820  
O    -0.5650000    4.7701420   -0.6655330  
C    -1.1350340    2.5154870   -0.1152340  
H    -1.5680460   -0.3618500    0.7027580  
H    -4.7920630    3.5805200   -1.5183480  
H    -2.0397690    5.9217290   -1.3263110  
C    -1.9956660   -4.1562510   -0.4376210  
C    -3.1275940   -4.8726060   -0.2264080  
C    -4.1967600   -3.9236020    0.0082020  
C    -3.5842620   -2.5792400   -0.0724690  
N    -2.2493770   -2.7898280   -0.3242940  
C    -4.2630350   -1.3839330    0.0450520  
C    -5.7131230   -1.4872510    0.3591650  
O    -6.4002270   -0.5358340    0.6726080  
C    -6.3839160   -2.9086980    0.3655870  
O    -7.5946790   -2.9855960    0.4936650  
C    -5.5287140   -4.0881230    0.2292570  
H    -3.2214050   -5.9486430   -0.2337180  
H    -6.0006050   -5.0649800    0.2751970  
H    -0.9921320   -4.4980820   -0.6529480  
H    -1.6047380   -2.0503600   -0.5663330  
