62


C    -4.0008330    0.7516250   -1.7660580  
C    -4.4324840   -0.0936010   -0.7622190  
C    -5.5629980    0.5621390   -0.1410520  
C    -5.7580140    1.7923230   -0.8177670  
N    -4.7950120    1.8763960   -1.8042530  
C    -6.7626550    2.7034070   -0.4669290  
C    -7.5875360    2.3653240    0.5932030  
O    -8.5857460    3.2126810    0.9790190  
C    -7.4041430    1.1391740    1.2869220  
O    -8.3043170    0.9442150    2.3191810  
C    -6.4115340    0.2444810    0.9378690  
H    -4.6897290    2.6399400   -2.4535850  
H    -6.9107380    3.6456520   -0.9846130  
H    -9.0387420    2.7964000    1.7325090  
H    -8.1197550    0.0958740    2.7484080  
H    -6.3016240   -0.6943280    1.4727930  
H    -3.2072030    0.6136770   -2.4872940  
C    -0.1857480   -1.0591590   -0.1497560  
C    -0.3409050   -2.4212420    0.1198360  
C    -1.7235430   -2.7111580    0.0550990  
C    -2.3964910   -1.4889170   -0.2661110  
N    -1.4417080   -0.5199970   -0.3865340  
C    -3.7989850   -1.3750260   -0.4072160  
C    -4.5107180   -2.5564000   -0.2000530  
O    -5.8665740   -2.5673240   -0.3244740  
C    -3.8566970   -3.7847820    0.1306380  
O    -4.7361400   -4.8364900    0.2949720  
C    -2.4910000   -3.8835630    0.2527810  
H     0.4610160   -3.1128180    0.3392950  
H    -1.5884100    0.4674400   -0.5460410  
H    -6.1603110   -3.4859170   -0.1899390  
H    -4.2402850   -5.6561960    0.4387110  
H    -2.0183960   -4.8302900    0.5039100  
C     0.9612640   -0.2182300   -0.2110650  
C     2.2970370   -0.5028780   -0.0093760  
C     2.9900140    0.7312490   -0.1907580  
C     1.9039390    1.7227870   -0.5060120  
N     0.7267750    1.1627620   -0.5203130  
C     2.1842330    3.1123820   -0.7349780  
C     3.4772460    3.5032860   -0.6540490  
O     3.8985410    4.7561240   -0.8481560  
C     4.6063690    2.5313640   -0.3642430  
O     5.7439340    3.0015570   -0.4231170  
C     4.3078750    1.1166630   -0.0980450  
H     2.7308400   -1.4577790    0.2481690  
H     1.3807610    3.8059240   -0.9560740  
H     4.8792530    4.7067470   -0.7499070  
C     5.8109970   -2.7115180   -1.8309360  
C     5.0994260   -1.5843420   -1.5719320  
C     5.7102570   -0.9395740   -0.4272690  
C     6.8587250   -1.7945210   -0.0416710  
N     6.8515260   -2.8612460   -0.9197450  
C     7.7339290   -1.5245420    0.9622850  
C     7.5358720   -0.3083220    1.7341420  
O     8.2860220    0.0515420    2.6291310  
C     6.2828350    0.5799820    1.4033050  
O     6.0155410    1.5045650    2.1489280  
C     5.4281540    0.2265860    0.2359000  
H     4.2332740   -1.2355510   -2.1126360  
H     8.5833480   -2.1572000    1.2009510  
H     5.6658640   -3.4511130   -2.6072900  
H     7.5563310   -3.5808130   -0.9522390  
