62


C     4.2746410    4.3517080    0.7236990  
C     3.4463750    3.2705770    0.5262660  
C     2.1589100    3.7765140    0.1511020  
C     2.2717820    5.1883550    0.1489670  
N     3.5693170    5.5077940    0.4904310  
C     1.2041290    6.0508110   -0.1328030  
C    -0.0228840    5.4767690   -0.4086520  
O    -1.1006040    6.2633020   -0.6761530  
C    -0.1900640    4.0655140   -0.4213440  
O    -1.4573140    3.6860100   -0.7099330  
C     0.8913630    3.1776200   -0.1679220  
H     3.7427460    2.2445180    0.6735340  
H     3.9336360    6.4441080    0.5742590  
H     1.3044420    7.1315880   -0.1280930  
H    -1.8529320    5.6607250   -0.8219560  
H    -1.4983130    2.6874940   -0.6410410  
H     5.3148120    4.3852570    1.0145250  
C     0.7048870    1.7530070   -0.2534520  
C     1.6031370    0.7046590   -0.2004840  
C     0.8486220   -0.5021060   -0.3389190  
C    -0.5588220   -0.0421610   -0.4918330  
N    -0.6360430    1.2563620   -0.4452860  
C    -1.6603390   -0.9601560   -0.6895920  
C    -1.3411350   -2.2828230   -0.7237810  
O    -2.2307180   -3.2574480   -0.9030280  
C     0.0742980   -2.7873460   -0.5032400  
O     0.1800950   -4.0115150   -0.4370070  
C     1.1889250   -1.8350460   -0.3616450  
H     2.6766020    0.7597340   -0.1447320  
H    -1.7049100   -4.0904100   -0.8146700  
C     4.1678300   -1.1006960    2.8460790  
C     5.1488940   -1.9318520    2.3736960  
C     4.6624060   -2.5043890    1.1504360  
C     3.3642730   -1.9745080    0.9291150  
N     3.0864900   -1.1307140    1.9834630  
C     2.5545930   -2.3480560   -0.1706440  
C     3.1234450   -3.2551020   -1.0731610  
O     2.4450290   -3.5993710   -2.2013930  
C     4.4218580   -3.7837050   -0.8656130  
O     4.8261230   -4.6581300   -1.8569170  
C     5.1886900   -3.4287340    0.2276410  
H     6.1037540   -2.1224160    2.8438290  
H     2.2591860   -0.5591970    2.0621190  
H     2.9720550   -4.2777890   -2.6588160  
H     5.6896350   -5.0321600   -1.6281270  
H     6.1813400   -3.8527830    0.3654950  
H     4.1405160   -0.4842660    3.7334360  
C    -3.3717970    0.4969650   -1.7628220  
C    -4.6893650    0.7908940   -1.6487480  
C    -5.2219560   -0.0152640   -0.5719300  
C    -4.0862500   -0.8203300   -0.0574710  
N    -2.9772630   -0.4744200   -0.8310670  
C    -4.1760530   -1.6831070    0.9844520  
C    -5.4726360   -1.8514180    1.6380760  
O    -5.6435320   -2.6027830    2.5860990  
C    -6.6939870   -1.0253110    1.0937180  
O    -7.7859850   -1.1627000    1.6233320  
C    -6.4637170   -0.1139170   -0.0286900  
H    -5.2417840    1.4962680   -2.2525120  
H    -3.3405190   -2.2644700    1.3546680  
H    -7.3071690    0.4682120   -0.3875040  
H    -2.6356490    0.8893270   -2.4502180  
