60


C    -4.0564740   -3.1325050    2.4257640  
C    -5.0413880   -3.8582610    1.8096050  
C    -5.6205540   -3.0137030    0.8033120  
C    -4.9338380   -1.7727560    0.8553610  
N    -3.9899350   -1.8734100    1.8555630  
C    -5.2622610   -0.6727120    0.0289730  
C    -6.3008150   -0.8776980   -0.8856560  
O    -6.6284370    0.1084960   -1.7645680  
C    -6.9878160   -2.1159020   -0.9531490  
O    -7.9754810   -2.1458040   -1.9194010  
C    -6.6669510   -3.1749050   -0.1255700  
H    -5.3278010   -4.8733680    2.0475280  
H    -3.3359130   -1.1485180    2.1068790  
H    -7.4031680   -0.1985730   -2.2673580  
H    -8.4574980   -2.9841740   -1.8665310  
H    -7.2124700   -4.1138250   -0.1956840  
H    -3.3884930   -3.4034440    3.2311270  
C    -0.9941860    0.6822490   -0.1612910  
C    -2.1147670   -0.1182670   -0.1690330  
C    -3.2091740    0.7851920    0.0503350  
C    -2.5617270    2.1285420    0.1792000  
N    -1.2608870    2.0506470    0.0547400  
C    -3.3145230    3.3300740    0.3886680  
C    -4.6592560    3.1999060    0.4725160  
O    -5.5006230    4.2159120    0.6662810  
C    -5.3562760    1.8481990    0.3843980  
O    -6.5667980    1.8623470    0.5872710  
C    -4.5682190    0.6231590    0.1213820  
H    -2.1920710   -1.1806540   -0.3399720  
H    -2.8146020    4.2885360    0.4691260  
H    -6.3935820    3.8015180    0.7250490  
C     0.6884440   -1.0284320   -0.6434000  
C     2.0280430   -1.1573450   -0.7877900  
C     2.6146350    0.1453580   -0.5802330  
C     1.4975060    1.0731770   -0.2958130  
N     0.3195730    0.2924020   -0.3552550  
C     1.6583440    2.3886960   -0.0127470  
C     3.0174470    2.9312930    0.0041160  
O     3.2623800    4.0889250    0.2986020  
C     4.2166360    1.9927090   -0.3696010  
O     5.3352120    2.4602140   -0.4712310  
C     3.9168490    0.5629280   -0.6134200  
H     2.5577740   -2.0741780   -1.0002200  
H     0.8268190    3.0445980    0.2017070  
H    -0.0768070   -1.7863910   -0.7183320  
C     5.0088320   -1.0193000   -2.1981450  
C     6.1443250   -1.7499990   -2.3025040  
C     6.9175790   -1.5244350   -1.0997810  
C     6.1291360   -0.5801010   -0.2716460  
N     4.9622250   -0.3005110   -0.9937100  
C     6.5010810   -0.1577870    0.9600780  
C     7.7726230   -0.6364610    1.5049830  
O     8.1791490   -0.3164700    2.6105990  
C     8.6376380   -1.6133030    0.6298020  
O     9.7038720   -2.0162970    1.0671140  
C     8.1128290   -2.0133460   -0.6779030  
H     6.4295360   -2.3730250   -3.1380050  
H     5.9179710    0.5289000    1.5624200  
H     8.7031820   -2.7073030   -1.2685460  
H     4.1937690   -0.9081430   -2.9007350  
