64


C    -0.9401810    0.3572460    1.6973840  
C    -2.1534770   -0.2192010    1.4400930  
C    -2.5757870    0.2415390    0.1478910  
C    -1.5562210    1.0996680   -0.3404330  
N    -0.5566980    1.1634190    0.6276170  
C    -1.6138890    1.7089310   -1.6041120  
C    -2.7394510    1.4610740   -2.3760820  
O    -2.8598770    2.0368080   -3.6051470  
C    -3.7730440    0.6114160   -1.9024530  
O    -4.8274410    0.4748640   -2.7774240  
C    -3.7143440   -0.0177700   -0.6570770  
H    -2.6972620   -0.8831670    2.0963240  
H    -0.8153400    2.3279190   -1.9989060  
H    -3.7200650    1.7618900   -3.9683540  
H    -5.5395020   -0.0175710   -2.3323510  
H    -0.3017210    0.2930090    2.5665800  
C     3.7308510    0.0625870    0.8947540  
C     2.3605520    0.0068720    0.8280130  
C     1.9018500    1.3595190    0.6986600  
C     3.0457800    2.1982340    0.6764320  
N     4.1541420    1.3800510    0.7968620  
C     2.9716770    3.5865230    0.5213020  
C     1.7082980    4.1437940    0.3967250  
O     1.5714510    5.4901080    0.2524020  
C     0.5413240    3.3340990    0.4331740  
O    -0.6344120    4.0401490    0.3403250  
C     0.6244440    1.9521420    0.5783070  
H     1.7605850   -0.8914660    0.8296790  
H     5.1059440    1.6893140    0.9229160  
H     3.8475530    4.2255600    0.4887360  
H     0.6202500    5.6729190    0.1524480  
H    -1.3697510    3.4403760    0.1269550  
C    -6.6826290    0.2034100    2.7406540  
C    -5.6632570    0.4662310    1.8629150  
C    -5.6281090   -0.6166460    0.9205600  
C    -6.6669500   -1.5154320    1.2821990  
N    -7.2913370   -0.9894440    2.3945110  
C    -6.9393810   -2.6915270    0.5721150  
C    -6.1426850   -2.9698290   -0.5263080  
O    -6.3499680   -4.1086920   -1.2491340  
C    -5.1025450   -2.0833640   -0.9111080  
O    -4.3928200   -2.5035070   -2.0178560  
C    -4.8254910   -0.9057440   -0.2141470  
H    -5.0090310    1.3256010    1.8849670  
H    -8.0703540   -1.4087620    2.8771220  
H    -7.7299690   -3.3807280    0.8510970  
H    -5.6648040   -4.1370310   -1.9396670  
H    -3.6021070   -1.9449000   -2.1125580  
H    -7.0316470    0.7691520    3.5929830  
C     4.5431990   -1.9793410    2.0458500  
C     5.5562410   -2.8741680    1.9573300  
C     6.4109550   -2.4550290    0.8663220  
C     5.7942230   -1.2267640    0.3063980  
N     4.6578640   -0.9713550    1.0766860  
C     6.2838750   -0.5419060   -0.7580180  
C     7.5125740   -1.0244890   -1.3878400  
O     8.0257210   -0.4710480   -2.3477390  
C     8.1963140   -2.3095550   -0.7948330  
O     9.2304260   -2.7172170   -1.2994530  
C     7.5548990   -2.9705380    0.3451210  
H     5.7061740   -3.7363070    2.5908540  
H     5.8053490    0.3365480   -1.1770520  
H     8.0238640   -3.8685050    0.7359220  
H     3.7116900   -1.9361540    2.7360660  
