62


C     2.7827040   -1.5615260    0.1384020  
C     3.7721520   -0.6028950    0.2160050  
C     3.0903630    0.6598510    0.3974740  
C     1.7003150    0.3915220    0.4272800  
N     1.5421430   -0.9714950    0.2824340  
C     0.7160710    1.3963590    0.5578200  
C     1.1891890    2.7058640    0.6531890  
O     0.3072820    3.7380600    0.8037230  
C     2.5788120    2.9889750    0.6192540  
O     2.8670840    4.3367770    0.7323100  
C     3.5275150    1.9939140    0.4974170  
H     0.6554090   -1.4409620    0.1852850  
H     0.8343360    4.5540410    0.8704170  
H     3.8272170    4.4583900    0.7720660  
H     4.5870440    2.2307240    0.4980050  
H     2.8730550   -2.6350950    0.0467960  
C    -1.3163290    0.1731640    1.4443880  
C    -0.7202250    1.0701110    0.6096950  
C    -1.7875130    1.6121460   -0.2339890  
C    -3.0370580    0.9391170    0.1903710  
N    -2.6949410    0.1047020    1.2252580  
C    -4.2599870    1.1504650   -0.3912230  
C    -4.3483390    2.1571090   -1.4557800  
O    -5.4024830    2.4636020   -1.9912620  
C    -3.0250350    2.8804210   -1.9035770  
O    -3.0977820    3.7092640   -2.7951410  
C    -1.7740540    2.5354210   -1.2283750  
H    -0.8705800    3.0483010   -1.5355410  
H    -0.8705180   -0.4177040    2.2338100  
H    -3.3080950   -0.5936090    1.6198580  
C    -6.6668130    1.0842530    0.2650060  
C    -7.6085300    0.1790960    0.6201620  
C    -6.9966240   -1.1303330    0.5683730  
C    -5.5922290   -0.9104290    0.1366190  
N    -5.4316870    0.4631260   -0.0044850  
C    -4.7004110   -1.9152460   -0.0855470  
C    -5.1252760   -3.2931530    0.1488560  
O    -4.3858850   -4.2511340   -0.0215280  
C    -6.5937530   -3.5409150    0.6477120  
O    -6.9563140   -4.6834600    0.8782350  
C    -7.4727030   -2.3793610    0.8100550  
H    -8.6335140    0.3941190    0.8851470  
H    -3.7022350   -1.7538130   -0.4763400  
H    -8.4980440   -2.5642890    1.1158830  
H    -6.7405670    2.1565820    0.1672540  
C     5.9765640   -2.9517410   -2.7786210  
C     7.2383190   -2.7866780   -2.2691960  
C     7.1166730   -1.9641070   -1.0984300  
C     5.7386070   -1.6646220   -0.9430630  
N     5.0672960   -2.2905930   -1.9742650  
C     5.2194680   -0.8554850    0.0922240  
C     6.1647720   -0.3395540    0.9811560  
O     5.7659890    0.4497420    2.0280640  
C     7.5471670   -0.6256280    0.8394090  
O     8.3371640   -0.0307450    1.8111570  
C     8.0342130   -1.4286730   -0.1733980  
H     8.1489120   -3.2024960   -2.6784350  
H     4.0859320   -2.1623350   -2.1673790  
H     6.5632230    0.6340700    2.5552140  
H     9.2377250   -0.3814090    1.7494180  
H     9.1006050   -1.6287420   -0.2568730  
H     5.6418180   -3.4974630   -3.6496600  
