60


C     4.6532760   -2.7539070   -1.5869860  
C     5.9536860   -3.1643810   -1.5623180  
C     6.6608720   -2.2961340   -0.6589500  
C     5.7233410   -1.3600760   -0.1580510  
N     4.4876820   -1.6438180   -0.7522420  
C     6.0616440   -0.4032200    0.8063150  
C     7.3805920   -0.3623450    1.2364970  
O     7.7572790    0.5582030    2.1683160  
C     8.3386370   -1.2737550    0.7219890  
O     9.6038480   -1.1064970    1.2445010  
C     7.9923320   -2.2375730   -0.2089040  
H     6.3698010   -3.9826290   -2.1339830  
H     5.3447470    0.2875540    1.2343750  
H     8.7044040    0.4231790    2.3448210  
H    10.2041020   -1.7668060    0.8675290  
H     8.7361740   -2.9419480   -0.5754720  
H     3.8100180   -3.1151070   -2.1573290  
C     2.0487600   -1.5887970   -0.3407800  
C     3.2661770   -1.0122940   -0.5235090  
C     2.9993560    0.4381490   -0.5972770  
C     1.5299790    0.5395180   -0.3985080  
N     0.9979650   -0.6427420   -0.2539700  
C     0.8442620    1.8352580   -0.3865900  
C     1.6464960    2.9261430   -0.6345040  
O     1.1961990    4.2003530   -0.6745170  
C     3.1044590    2.8320510   -0.8926540  
O     3.7166990    3.8833590   -1.1114380  
C     3.7618040    1.5150630   -0.8611170  
H     1.9970950    4.7413030   -0.8745820  
H     4.8331040    1.4832980   -1.0309290  
H     1.8206570   -2.6438260   -0.2615210  
C    -0.5820100    1.9337520   -0.1531680  
C    -1.5023670    0.9287810    0.0698010  
C    -2.7927490    1.5293800    0.2290500  
C    -2.5885740    2.9871840    0.0712000  
N    -1.2422570    3.1667360   -0.1329530  
C    -3.5735330    3.9243630    0.1157300  
C    -4.9351420    3.4726860    0.3226500  
O    -5.9034260    4.2180750    0.3496910  
C    -5.1883630    1.9310170    0.5229230  
O    -6.3307490    1.5648850    0.7436100  
C    -4.0426500    0.9868240    0.4667050  
H    -1.2594710   -0.1199660    0.0744450  
H    -3.3914170    4.9870760   -0.0079400  
H    -0.7820060    4.0473470   -0.3105650  
C    -3.3993620   -1.1974300    1.5083710  
C    -4.2450930   -0.4302460    0.7471080  
C    -5.3115810   -1.3372390    0.2946950  
C    -4.9881620   -2.6723530    0.8569970  
N    -3.8226340   -2.5087850    1.5824930  
C    -5.7167610   -3.8011340    0.6677760  
C    -6.9075410   -3.7228010   -0.1707540  
O    -7.6275400   -4.6817680   -0.4033480  
C    -7.2570650   -2.3308240   -0.8075290  
O    -8.2277960   -2.2435430   -1.5410550  
C    -6.3976710   -1.1767710   -0.5019600  
H    -5.4508650   -4.7612820    1.0994340  
H    -6.6868440   -0.2193680   -0.9166230  
H    -2.5111180   -0.8863080    2.0409260  
H    -3.3820760   -3.2301410    2.1325460  
