64


C    -0.9677560   -1.5368670   -1.0602310  
C     0.4017370   -1.6154380   -1.1073460  
C     0.8999790   -0.2963810   -0.8380260  
C    -0.2270590    0.5416740   -0.6363140  
N    -1.3566800   -0.2259100   -0.8330830  
C    -0.1339500    1.9144600   -0.3089170  
C     1.1722780    2.3865490   -0.1097060  
O     1.3829010    3.6678350    0.3004820  
C     2.3042820    1.5606230   -0.3120300  
O     3.5050960    2.2202810   -0.1102670  
C     2.2108500    0.2246500   -0.6922460  
H     0.9812620   -2.5124450   -1.2682450  
H    -2.2498100    0.0469940   -0.4369100  
H     2.3463720    3.8084530    0.2889050  
H     4.2322360    1.6435370   -0.3987790  
C    -1.9430100   -3.4808820   -2.2543220  
C    -3.0242850   -4.3068590   -2.1189550  
C    -3.7446630   -3.8763060   -0.9528550  
C    -3.0339450   -2.7760270   -0.4088460  
N    -1.9300930   -2.5405100   -1.2273950  
C    -3.4366310   -2.1201200    0.7616570  
C    -4.6012260   -2.5604160    1.3697270  
O    -5.0527660   -1.9341600    2.5027510  
C    -5.3358510   -3.6482440    0.8339810  
O    -6.4739080   -3.9667810    1.5539200  
C    -4.9188080   -4.3104460   -0.3070300  
H    -3.2861480   -5.1211610   -2.7807840  
H    -2.8807550   -1.2998850    1.2017590  
H    -5.8652870   -2.3926310    2.7780630  
H    -6.9077000   -4.7311270    1.1470790  
H    -5.4919310   -5.1503340   -0.6955990  
H    -1.1700880   -3.4483190   -3.0083330  
C     3.6599860   -1.3754580   -2.0325430  
C     3.4155900   -0.5916090   -0.9241630  
C     4.5759900   -0.7408190   -0.0653860  
C     5.4765750   -1.6194980   -0.7217880  
N     4.8892200   -1.9880840   -1.9152500  
C     6.7024960   -2.0043550   -0.1649670  
C     7.0258100   -1.4972210    1.0836640  
O     8.2089960   -1.8374790    1.6712830  
C     6.1313690   -0.6281910    1.7643510  
O     6.5893100   -0.2165670    3.0011790  
C     4.9217740   -0.2496080    1.2129840  
H     5.2975760   -2.6063120   -2.5987030  
H     7.3910910   -2.6779080   -0.6649590  
H     8.2350210   -1.3991780    2.5394350  
H     5.9151680    0.3318490    3.4293190  
H     4.2495370    0.4080360    1.7582790  
H     3.0479710   -1.5232890   -2.9107450  
C    -4.0821230    1.5589710    1.7255470  
C    -4.5791970    2.8066750    1.5763980  
C    -3.5948040    3.5213450    0.7734460  
C    -2.4964800    2.5196350    0.5469250  
N    -2.8073000    1.3768910    1.0941710  
C    -1.2896590    2.8349250   -0.2089120  
C    -1.3023850    4.0573880   -0.8286010  
O    -0.3449520    4.4814610   -1.6626700  
C    -2.3987010    5.0667220   -0.6394370  
O    -2.2946140    6.1408830   -1.2333760  
C    -3.5528620    4.7448050    0.2159080  
H    -5.5156600    3.2026840    1.9436640  
H    -0.6190100    5.3883470   -1.9270990  
H    -4.3244790    5.5010170    0.3228840  
H    -4.5238250    0.7091410    2.2334490  
