60


C    -2.5553540   -2.9250460    2.0391110  
C    -3.4991130   -3.8078780    1.5846850  
C    -4.3788780   -3.0669140    0.7255540  
C    -3.9212280   -1.7214760    0.7247620  
N    -2.8229990   -1.6571690    1.5584860  
C    -4.5679950   -0.6860890    0.0038590  
C    -5.6261710   -1.0985340   -0.8225550  
O    -6.2316870   -0.2101160   -1.6600450  
C    -6.0813040   -2.4407840   -0.8323660  
O    -7.1541950   -2.6563330   -1.6836210  
C    -5.4957490   -3.4184200   -0.0546520  
H    -3.5672630   -4.8592280    1.8299020  
H    -2.1104800   -0.9457510    1.4112750  
H    -6.9565070   -0.6870740   -2.1003800  
H    -7.3953550   -3.5936970   -1.6612650  
H    -5.8740600   -4.4390390   -0.0691930  
H    -1.7041870   -3.0900900    2.6855200  
C    -0.6822150    1.5259870   -0.0004510  
C    -1.1296580    2.8157130   -0.0945220  
C    -2.5688950    2.7397610   -0.0206640  
C    -2.8716120    1.2717930    0.0604690  
N    -1.7705050    0.5815660    0.0964880  
C    -4.2340410    0.7534730    0.1094960  
C    -5.2001850    1.7120340    0.2774520  
O    -6.4941230    1.4407700    0.4827210  
C    -4.9207250    3.1894080    0.2401980  
O    -5.8811240    3.9513790    0.3788270  
C    -3.5472750    3.6667030    0.0571280  
H    -0.5267710    3.7035350   -0.1946750  
H    -6.9301220    2.3214890    0.5413620  
H    -3.3831390    4.7393110    0.0291480  
C     3.0285760    3.5529580   -1.1565200  
C     3.9539190    2.5846340   -0.9837530  
C     3.2138320    1.4331230   -0.4855760  
C     1.7918920    1.9058930   -0.4239680  
N     1.6994340    3.1394490   -0.8234940  
C     0.6859410    1.0433220    0.0004830  
C     1.0586180   -0.2209750    0.3922600  
O     0.2356860   -1.1409560    0.9059170  
C     2.4809110   -0.7112600    0.3380250  
O     2.6879860   -1.8471100    0.7612760  
C     3.5692120    0.1645800   -0.1722870  
H     5.0193490    2.6369950   -1.1465140  
H     0.8091170   -1.9248710    1.0779770  
H     3.1762670    4.5670780   -1.5073170  
C     7.3551140    1.4466200    1.6939500  
C     8.2186570    0.4960290    1.2717550  
C     7.4243330   -0.3932110    0.4298340  
C     6.0492900    0.2062690    0.4638230  
N     6.0177250    1.2751050    1.2016970  
C     4.9327070   -0.3950410   -0.2494970  
C     5.2090220   -1.5221400   -0.9647130  
O     4.3053510   -2.1660070   -1.7093310  
C     6.5853470   -2.1381280   -1.0158960  
O     6.7207150   -3.1536080   -1.6937080  
C     7.6899410   -1.5128860   -0.2698020  
H     9.2707320    0.3954860    1.4989250  
H     4.7781500   -2.9390580   -2.0924140  
H     8.6631580   -1.9907670   -0.3260200  
H     7.5551790    2.2917660    2.3413900  
