62


C    -2.9337620   -1.3937790   -0.1213320  
C    -3.8082930   -0.5108590   -0.7163750  
C    -5.1427370   -0.9648090   -0.4615300  
C    -5.0390930   -2.1479270    0.3102850  
N    -3.6855430   -2.4421830    0.4585230  
C    -6.1553250   -2.8471000    0.7758280  
C    -7.4065890   -2.3474040    0.4417020  
O    -8.5288850   -2.9884570    0.8710690  
C    -7.5304260   -1.1748910   -0.3523230  
O    -8.8380160   -0.8147850   -0.6077860  
C    -6.4222440   -0.4852730   -0.8072170  
H    -3.5204700    0.3391060   -1.3186840  
H    -3.3423480   -2.9231080    1.2818820  
H    -6.0812700   -3.7506840    1.3721040  
H    -9.2944330   -2.4915600    0.5338140  
H    -8.8552610   -0.0053460   -1.1395890  
H    -6.5394670    0.4133780   -1.4091460  
C     0.1450900    1.8802230   -0.0151010  
C    -1.0421560    1.1505820   -0.0237150  
C    -0.7010190   -0.2220450   -0.1185260  
C     0.7186610   -0.3015250   -0.1611850  
N     1.1994960    0.9762410   -0.1072510  
C     1.4449720   -1.5208230   -0.1838630  
C     0.6500820   -2.6861910   -0.1714000  
O     1.2156300   -3.9047910   -0.2841010  
C    -0.7681740   -2.6210490   -0.1291630  
O    -1.3645540   -3.8684400   -0.1550470  
C    -1.4777070   -1.4199380   -0.1104120  
H    -2.0230670    1.5878570    0.0540430  
H     2.1713520    1.2401700   -0.0255760  
H     0.4863260   -4.5524470   -0.3081410  
H    -2.2994920   -3.7685740   -0.4138910  
C     2.8933800   -1.5497240   -0.2206590  
C     3.7474660   -0.6238810   -0.7763150  
C     5.0781230   -1.0962890   -0.5009840  
C     4.8616400   -2.3601550    0.2780170  
N     3.5992900   -2.6261100    0.4318830  
C     5.9700450   -3.1396330    0.7696080  
C     7.2181110   -2.7032340    0.4822100  
O     8.3448130   -3.3233230    0.8623050  
C     7.4668870   -1.4411660   -0.3171440  
O     8.6456710   -1.1369780   -0.5192970  
C     6.3295150   -0.6587430   -0.7929380  
H     3.4926910    0.2380320   -1.3770900  
H     5.7886220   -4.0447160    1.3384250  
H     9.0711520   -2.7642060    0.5016880  
H     6.5450670    0.2446050   -1.3552780  
C    -2.7157170    5.2170670    0.2591260  
C    -1.8883210    6.2831730    0.3216030  
C    -0.5418080    5.7246360    0.2560300  
C    -0.7578470    4.2480330    0.1547020  
N    -2.0268170    3.9654510    0.1543720  
C     0.3670100    3.3050380    0.0677920  
C     1.6133050    3.8852620    0.0761800  
O     2.7671400    3.1687220   -0.0008830  
C     1.8468310    5.3379650    0.1734010  
O     3.0169440    5.7426780    0.1762620  
C     0.6937130    6.2556330    0.2648770  
H    -2.1456940    7.3301330    0.4023860  
H     3.4802780    3.8468260    0.0398980  
H     0.9080110    7.3180180    0.3339870  
H    -3.7985900    5.2046710    0.2792120  
