62


C    -1.4420510   -0.8897270   -0.0798930  
C    -0.1383360   -0.9191490   -0.5112870  
C     0.6174400   -1.6336270    0.4779010  
C    -0.3012930   -2.0429670    1.4807100  
N    -1.5538930   -1.5810410    1.1153050  
C     0.0627470   -2.8088220    2.5899150  
C     1.3921360   -3.1936940    2.6771060  
O     1.8179560   -3.9494110    3.7254460  
C     2.3333600   -2.8174550    1.6843120  
O     3.6171170   -3.2577930    1.9390600  
C     1.9848180   -2.0149930    0.5903280  
H     0.2215750   -0.5006980   -1.4380370  
H    -2.3657930   -1.5513480    1.7133330  
H    -0.6443020   -3.1178930    3.3526900  
H     2.7678350   -4.1072590    3.5643550  
H     3.9674540   -3.6691940    1.1218060  
C     2.9650350    1.9989730   -0.9818090  
C     4.0041650    1.7061270   -1.8358280  
C     4.1994070    0.2892370   -1.7494860  
C     3.1526990   -0.1774410   -0.7747700  
N     2.4530090    0.8173560   -0.3292500  
C     3.0051020   -1.5833220   -0.3896510  
C     3.9256370   -2.4145740   -0.9509170  
O     3.9857350   -3.7456750   -0.6904740  
C     4.9826040   -1.9841320   -1.9268890  
O     5.7280290   -2.8716630   -2.3589210  
C     5.0755670   -0.5828590   -2.3111210  
H     4.5752120    2.3938790   -2.4439290  
H     4.7349960   -4.0665900   -1.2513530  
H     5.8519620   -0.3018140   -3.0153240  
C     2.6374840    4.5089990   -1.1387870  
C     2.3444530    3.2454360   -0.6683190  
C     1.2066710    3.4663290    0.2501120  
C     0.9722810    4.9321940    0.1861480  
N     1.8212370    5.5218860   -0.6305550  
C    -0.0636520    5.5720820    0.9406320  
C    -0.8411230    4.7873310    1.7300780  
O    -1.8460340    5.2430040    2.4876570  
C    -0.6296770    3.2965950    1.8176020  
O    -1.3791330    2.6617690    2.5558130  
C     0.4510620    2.6652870    1.0277930  
H    -0.2069600    6.6445240    0.8704230  
H    -2.2164260    4.4502540    2.9368340  
H     0.5947610    1.5934110    1.1031930  
H     3.4177990    4.7755310   -1.8427310  
C    -2.5343780    1.0019820   -1.2308810  
C    -3.7767670    1.3167040   -1.7035670  
C    -4.6380780    0.2037310   -1.4141780  
C    -3.8491080   -0.7768920   -0.7611440  
N    -2.5542940   -0.2648240   -0.6475190  
C    -4.3651460   -2.0191500   -0.3690030  
C    -5.7083080   -2.2620370   -0.6170290  
O    -6.2590900   -3.4560050   -0.2505610  
C    -6.5171320   -1.2838930   -1.2515090  
O    -7.8323970   -1.6719340   -1.4236450  
C    -5.9989310   -0.0666110   -1.6540030  
H    -4.0526310    2.2406020   -2.1933910  
H    -3.7609070   -2.7918670    0.0922410  
H    -7.1928760   -3.4376530   -0.5222730  
H    -8.3161250   -0.9761030   -1.8925510  
H    -6.6333040    0.6646570   -2.1512890  
H    -1.6142830    1.5676220   -1.2302620  
