62


C    -4.5597430   -0.1451690    0.1403850  
C    -3.7023040    0.8472570   -0.3408960  
C    -4.3540100    2.1000270   -0.1730720  
C    -5.6201390    1.8313840    0.4228890  
N    -5.7106530    0.4749280    0.6042590  
C    -6.5372770    2.8452170    0.7290920  
C    -6.1729450    4.1471910    0.4267680  
O    -7.0258760    5.1738210    0.7006320  
C    -4.9107170    4.4333570   -0.1713250  
O    -4.7037060    5.7788410   -0.4063250  
C    -4.0064770    3.4364090   -0.4711550  
H    -2.7618240    0.6916610   -0.8489520  
H    -6.5098250   -0.0668150    0.9103750  
H    -7.5032760    2.6474280    1.1813460  
H    -6.5935220    5.9944940    0.4069000  
H    -3.8484720    5.9027350   -0.8441670  
H    -3.0484970    3.6766800   -0.9279740  
C    -0.9782280   -2.6919330   -0.0735960  
C    -1.6000100   -3.9151740   -0.0382780  
C    -3.0168540   -3.6983050    0.0622240  
C    -3.2042820   -2.2388250    0.0626360  
N    -1.9440980   -1.6760270   -0.0786310  
C    -4.4077990   -1.5853570    0.1931510  
C    -5.5742740   -2.4695830    0.4321540  
O    -6.6841610   -2.0456960    0.7307290  
C    -5.4069170   -4.0322910    0.3121260  
O    -6.4195310   -4.7159940    0.3918190  
C    -4.0732110   -4.5652490    0.1440780  
H    -1.1119590   -4.8763550   -0.1183670  
H    -3.9521640   -5.6430020    0.1070810  
H    -1.7515320   -0.7389200    0.2520150  
C     1.4292900   -3.1652240    0.4209760  
C     0.4315380   -2.3715830   -0.0931270  
C     1.0828800   -1.1716560   -0.6117950  
C     2.5252310   -1.3466230   -0.3598640  
N     2.6634880   -2.5974290    0.2357650  
C     3.5181280   -0.4497810   -0.6535900  
C     3.0526220    0.8279070   -1.2503980  
O     3.8026220    1.7525150   -1.5105600  
C     1.5216650    1.0110500   -1.5820090  
O     1.1702150    2.0602470   -2.1008110  
C     0.5996940   -0.0598040   -1.2364540  
H    -0.4438920    0.0672340   -1.5009110  
H     1.3335130   -4.1135240    0.9332060  
H     3.5217130   -2.8984170    0.6766150  
C     5.5341830   -1.9631330   -0.6860090  
C     4.9377240   -0.7321360   -0.4433530  
C     5.9919190    0.1331940    0.0542000  
C     7.1781920   -0.6398560    0.0962650  
N     6.8660000   -1.9071910   -0.3637310  
C     8.4040620   -0.1410500    0.5535190  
C     8.4340330    1.1771210    0.9776130  
O     9.5982100    1.7241540    1.4231950  
C     7.2542610    1.9698860    0.9469640  
O     7.4433870    3.2608450    1.3968340  
C     6.0476430    1.4688600    0.5009320  
H     7.5318770   -2.6485520   -0.5189230  
H     9.3101710   -0.7373820    0.5802010  
H     9.4142790    2.6549380    1.6404380  
H     6.6481040    3.7854760    1.2197940  
H     5.1708340    2.1056440    0.4581360  
H     5.1147620   -2.8499080   -1.1408460  
