60


C    -0.5479040   -3.7633260    0.1283330  
C     0.2520580   -2.6494390    0.2350170  
C     1.5992860   -3.0572010   -0.0333470  
C     1.5545500   -4.4561650   -0.2815510  
N     0.2367140   -4.8502850   -0.1816610  
C     2.6907830   -5.2197270   -0.5592970  
C     3.9139130   -4.5644460   -0.5976410  
O     5.0446960   -5.2658630   -0.8868330  
C     3.9973530   -3.1731950   -0.3604410  
O     5.2820690   -2.6757430   -0.4611300  
C     2.8629550   -2.3910690   -0.0728870  
H    -0.0920830   -1.6601390    0.4944510  
H    -0.1043990   -5.7885210   -0.3246590  
H     2.6497050   -6.2858330   -0.7579720  
H     5.7758930   -4.6249480   -0.9352990  
H     5.2500470   -1.7248480   -0.6688860  
H    -1.6223530   -3.8607160    0.2281960  
C     2.9630290   -0.9572560    0.1207200  
C     2.0302380    0.0231620   -0.1192020  
C     2.5922050    1.2979360    0.2186610  
C     3.9668190    1.0258660    0.6828190  
N     4.1754380   -0.3526560    0.5461160  
C     4.8276250    1.9710140    1.1236420  
C     4.3850710    3.3684780    1.1135410  
O     5.1044980    4.2867310    1.4687940  
C     2.9251830    3.6890870    0.6293620  
O     2.5222590    4.8369810    0.7128480  
C     2.0790000    2.5740570    0.1641900  
H     1.0706930   -0.1384710   -0.5834850  
H     5.8393460    1.7570140    1.4547180  
H     4.7779530   -0.8373560    1.2020110  
C    -1.7300420    1.0588540    1.6543130  
C    -2.5729330    1.5652400    0.7064310  
C    -1.7799350    2.3844010   -0.1989520  
C    -0.3902830    2.2743540    0.2896290  
N    -0.4347500    1.4620370    1.4147520  
C     0.7046320    2.8398180   -0.2940870  
C     0.4523250    3.6723300   -1.4947650  
O     1.3483150    4.1635900   -2.1542470  
C    -1.0343710    3.8699510   -1.9765070  
O    -1.2499350    4.6127410   -2.9198110  
C    -2.0977670    3.1370740   -1.2854670  
H    -3.1093520    3.2298430   -1.6680440  
H    -1.9632380    0.4125360    2.4897770  
H     0.3730180    1.2071810    1.9613480  
C    -5.0109470    2.1580980    0.5956520  
C    -6.1991870    1.5254770    0.4372990  
C    -5.9229010    0.1088770    0.3094420  
C    -4.4491010   -0.0300060    0.3985950  
N    -3.9390500    1.2509540    0.5780510  
C    -3.7809690   -1.2098520    0.3142900  
C    -4.5479880   -2.4324910    0.1440060  
O    -4.0342990   -3.5438010    0.0807010  
C    -6.1134240   -2.3153110    0.0481420  
O    -6.7740870   -3.3306290   -0.0976230  
C    -6.7172930   -0.9804810    0.1404210  
H    -7.1738980    1.9908030    0.4156960  
H    -2.7005720   -1.2799770    0.3671650  
H    -7.7984910   -0.9141630    0.0676990  
H    -4.8007390    3.2105270    0.7327460  
