62


C     6.8704280   -1.0235760   -3.3376330  
C     5.6843810   -0.6714020   -2.7480060  
C     5.8005600   -0.9954530   -1.3538420  
C     7.0967250   -1.5432280   -1.1547670  
N     7.7208050   -1.5514690   -2.3842250  
C     7.5726760   -1.9473970    0.0978040  
C     6.7197680   -1.7994970    1.1814470  
O     7.1260540   -2.1700040    2.4253820  
C     5.4078680   -1.2808970    1.0167770  
O     4.6406570   -1.2707280    2.1655050  
C     4.9448970   -0.8854650   -0.2364580  
H     4.8385180   -0.2197460   -3.2463990  
H     8.6636050   -1.8651270   -2.5543240  
H     8.5683210   -2.3514160    0.2479610  
H     6.3871470   -1.9699530    3.0291640  
H     4.1307750   -0.4405610    2.2220290  
H     7.1868530   -0.9375030   -4.3673910  
C     2.6458730   -0.9829210   -1.2153010  
C     1.4447210   -0.3649960   -1.0846160  
C     1.6082580    0.6922770   -0.1064620  
C     3.0312010    0.6440080    0.3057720  
N     3.6139430   -0.4020230   -0.3891010  
C     3.6193970    1.5112530    1.1809580  
C     2.7957330    2.5608470    1.7674420  
O     3.2360740    3.4260810    2.5073000  
C     1.2624840    2.5617500    1.4387680  
O     0.5262270    3.2826180    2.0845630  
C     0.7435840    1.6272060    0.3975670  
H     0.5435270   -0.6016970   -1.6299060  
H     4.6893600    1.5275910    1.3686650  
H     2.9315450   -1.8176990   -1.8406320  
C    -2.5822700   -1.2823800    0.5114710  
C    -3.6046250   -0.5016340    0.0527610  
C    -3.0193890    0.8117730   -0.2086990  
C    -1.5759470    0.7086030    0.1159060  
N    -1.3816920   -0.5855940    0.5516660  
C    -0.6746400    1.7326210    0.0264240  
C    -1.1860520    3.0253030   -0.4851030  
O    -0.4526860    3.9621170   -0.7437950  
C    -2.7238170    3.1725190   -0.7607250  
O    -3.1588550    4.2627720   -1.0926240  
C    -3.5726830    1.9882600   -0.6184760  
H    -4.6370670    2.1050560   -0.7990170  
H    -2.6163450   -2.3200710    0.8153120  
H    -0.4970330   -0.9581150    0.8597390  
C    -6.4951990   -2.5299910    2.8176570  
C    -5.3905490   -1.9222730    2.2794350  
C    -5.7197170   -1.5621230    0.9279590  
C    -7.0585580   -1.9785100    0.7060280  
N    -7.5013990   -2.5709310    1.8711240  
C    -7.7310710   -1.7652870   -0.5027740  
C    -7.0337850   -1.1188630   -1.5098760  
O    -7.6364800   -0.8873630   -2.7115400  
C    -5.6896080   -0.7034950   -1.3186430  
O    -5.1367340   -0.1269840   -2.4468260  
C    -5.0113520   -0.9102040   -0.1172770  
H    -4.4589490   -1.7369280    2.7949250  
H    -8.4253770   -2.9458090    2.0172820  
H    -8.7571600   -2.0750780   -0.6723240  
H    -6.9941050   -0.4085910   -3.2641070  
H    -4.2912890    0.2956150   -2.2295720  
H    -6.6537190   -2.9388860    3.8055280  
