62


C     4.8874150   -2.4111210   -0.7712840  
C     6.0596520   -3.0643380   -0.5385320  
C     7.0254740   -2.0818470   -0.1229530  
C     6.3804550   -0.8220020   -0.1401800  
N     5.0527670   -1.0361310   -0.5430940  
C     7.0224030    0.3511220    0.2691690  
C     8.3465310    0.2523740    0.6696970  
O     9.0158780    1.3713820    1.0671970  
C     9.0129860   -1.0003370    0.6732790  
O    10.3239530   -0.9360470    1.0980960  
C     8.3684790   -2.1616170    0.2864430  
H     6.2288540   -4.1247090   -0.6687470  
H     6.5465270    1.3232160    0.2580380  
H     9.9267010    1.1051380    1.2805960  
H    10.7353120   -1.8094580    1.0193050  
H     8.8885490   -3.1169990    0.3112500  
H     3.9421920   -2.7769220   -1.1439410  
C     0.9438910   -1.0944260    0.9134760  
C     2.2459250   -1.3660680    0.6794060  
C     2.7778350   -0.3016880   -0.1474350  
C     1.6661240    0.6360460   -0.3931720  
N     0.5586320    0.1114810    0.2922160  
C     1.7510600    1.7598830   -1.1550690  
C     3.0428870    2.0999820   -1.7319770  
O     3.2429390    3.1160510   -2.3779200  
C     4.2484340    1.1164250   -1.5118470  
O     5.3018380    1.3480690   -2.0705550  
C     4.0296440   -0.0913370   -0.6652090  
H     2.8003540   -2.2070280    1.0674030  
H     0.9126790    2.4078570   -1.3775060  
H     0.2194920   -1.6237910    1.5152420  
C    -0.7222740    0.6309310    0.3844690  
C    -1.9040940   -0.0413080    0.5321050  
C    -2.9449780    0.9470570    0.6437130  
C    -2.2845210    2.2642670    0.5479730  
N    -0.9298800    2.0106760    0.3492270  
C    -2.9094410    3.4646170    0.6226390  
C    -4.3569110    3.4687010    0.7874960  
O    -5.0263740    4.4883340    0.8205740  
C    -5.1005640    2.0865960    0.9148420  
O    -6.2973970    2.0886820    1.1384810  
C    -4.3051110    0.8424100    0.7949730  
H    -2.0418670   -1.1108000    0.4907470  
H    -2.3938880    4.4159340    0.5402300  
H    -0.2077710    2.6823190    0.5682930  
C    -4.5200860   -1.3759520    1.8831910  
C    -5.3202170   -2.4768260    1.7864690  
C    -6.2902660   -2.2108470    0.7592020  
C    -6.0358030   -0.9063620    0.2687190  
N    -4.9362950   -0.4001040    0.9707420  
C    -6.7724060   -0.3433270   -0.7790870  
C    -7.7985070   -1.1015400   -1.3213870  
O    -8.5510380   -0.5927130   -2.3396360  
C    -8.0762210   -2.4042780   -0.8313640  
O    -9.1254540   -3.0334510   -1.4736640  
C    -7.3366020   -2.9636660    0.1942590  
H    -5.2442730   -3.3703980    2.3914380  
H    -6.5941210    0.6554350   -1.1571890  
H    -9.2287120   -1.2555420   -2.5568610  
H    -9.3066080   -3.8811610   -1.0417420  
H    -7.5557030   -3.9691830    0.5482900  
H    -3.7061940   -1.1569500    2.5587980  
