66


C    -4.1448350   -0.1788310    2.3404750  
C    -4.9050650   -1.3034630    2.5157070  
C    -5.2485630   -1.7896130    1.2091870  
C    -4.6595020   -0.9063320    0.2681210  
N    -3.9854440    0.0806940    0.9802170  
C    -4.7724160   -1.0912880   -1.1148740  
C    -5.5027460   -2.1830610   -1.5557630  
O    -5.6499020   -2.4091510   -2.8964500  
C    -6.1055100   -3.0744900   -0.6295110  
O    -6.8011980   -4.1143890   -1.2229850  
C    -5.9869290   -2.8924480    0.7354780  
H    -5.2003110   -1.7275680    3.4660560  
H    -4.3269120   -0.4129620   -1.8328850  
H    -6.2004970   -3.2049820   -2.9918350  
H    -7.2174430   -4.6535270   -0.5346580  
H    -6.4534750   -3.5917180    1.4272120  
H    -3.7175070    0.5009240    3.0644760  
C     0.2876610    0.7126560    1.3986040  
C     0.3856650    1.8851100    0.6740110  
C    -0.9550590    2.1904450    0.2224480  
C    -1.8002290    1.1662390    0.7112120  
N    -1.0223460    0.2838890    1.4271790  
C    -3.1818540    1.1212180    0.4468790  
C    -3.7136970    2.1407530   -0.3387010  
O    -5.0452400    2.1645670   -0.6194350  
C    -2.8676280    3.1608800   -0.8502440  
O    -3.5416060    4.0947400   -1.6165750  
C    -1.5138040    3.2027480   -0.5820100  
H    -1.3661470   -0.5475460    1.8834260  
H    -5.2039940    2.9487150   -1.1736860  
H    -2.9287380    4.7992050   -1.8737630  
H    -0.8969370    4.0092510   -0.9662700  
H     1.0527740    0.1731540    1.9391780  
C     4.2719900    0.3834210   -0.7157210  
C     4.9593040    1.5721330   -0.7210880  
C     4.0356790    2.5866030   -0.2971380  
C     2.8000900    1.9449220   -0.0291850  
N     2.9745250    0.5942370   -0.2777530  
C     1.6362930    2.6161290    0.4015300  
C     1.7672720    3.9998930    0.5519770  
O     0.7002240    4.7485990    0.9721120  
C     2.9954840    4.6589070    0.2926070  
O     2.9435890    6.0281740    0.4991550  
C     4.1266890    3.9800360   -0.1203470  
H     6.0058990    1.6942940   -0.9619240  
H     2.2190900   -0.0699640   -0.3682480  
H     1.0242040    5.6601840    1.0781750  
H     3.8383020    6.3942980    0.4425910  
H     5.0543910    4.5145290   -0.3137690  
C     5.4245440   -1.1811590   -2.2461970  
C     5.6822420   -2.5211470   -2.3140460  
C     5.0872710   -3.1289580   -1.1559890  
C     4.4793420   -2.0905430   -0.4058490  
N     4.6900220   -0.8957840   -1.0957660  
C     3.8304260   -2.3226220    0.8138040  
C     3.7723430   -3.6306790    1.2702460  
O     3.1447620   -3.9098930    2.4515930  
C     4.3597220   -4.6849090    0.5241020  
O     4.2156360   -5.9305900    1.1068280  
C     5.0151120   -4.4490050   -0.6706270  
H     6.2233890   -3.0225760   -3.1047900  
H     3.3961750   -1.5278110    1.4092310  
H     3.2237310   -4.8682450    2.5978490  
H     4.6494440   -6.5971240    0.5540930  
H     5.4687100   -5.2711070   -1.2210940  
H     5.6726610   -0.3784070   -2.9250340  
