62


C     3.7025730   -1.3025340   -2.1420360  
C     4.9178550   -1.9248530   -2.0608980  
C     5.4788860   -1.5961820   -0.7809590  
C     4.5396110   -0.7632030   -0.1182120  
N     3.4521820   -0.5883350   -0.9723160  
C     4.7495710   -0.2700880    1.1794320  
C     5.9385180   -0.6113110    1.8086080  
O     6.1916730   -0.1581740    3.0700940  
C     6.8940310   -1.4328970    1.1549800  
O     8.0250460   -1.6803900    1.9090850  
C     6.6760600   -1.9283640   -0.1178760  
H     5.3675830   -2.5401450   -2.8282660  
H     4.0167580    0.3307330    1.7071870  
H     7.0597760   -0.5088670    3.3339620  
H     8.6264390   -2.2548130    1.4126750  
H     7.4188440   -2.5655490   -0.5941500  
H     2.9784180   -1.2740220   -2.9432480  
C    -0.8880240   -1.5829700   -0.9290290  
C     0.4887270   -1.6592300   -0.9976800  
C     1.0032720   -0.3410750   -0.7797410  
C    -0.1067160    0.5158580   -0.5724950  
N    -1.2392550   -0.2638170   -0.6615910  
C     0.0015580    1.8994940   -0.3152990  
C     1.3027610    2.4052020   -0.2637930  
O     1.5043620    3.7139420    0.0316220  
C     2.4342270    1.5742470   -0.4800840  
O     3.6325690    2.2449390   -0.4268930  
C     2.3030320    0.2130600   -0.7358700  
H     1.0655930   -2.5639700   -1.1273490  
H    -2.1791580    0.1000390   -0.6914890  
H     2.4624980    3.8795750   -0.0188730  
H     4.3701930    1.6123780   -0.3945420  
C    -3.5401370    1.6918540    2.3728980  
C    -2.3280020    1.5032230    1.7854440  
C    -2.1758340    2.5205240    0.7629860  
C    -3.4042750    3.3504000    0.8306920  
N    -4.1893110    2.7875080    1.8191100  
C    -3.6490890    4.4431850    0.0622090  
C    -2.6417930    4.8301810   -0.9138230  
O    -2.7343740    5.8254660   -1.6166280  
C    -1.3812890    3.9042770   -1.0885750  
O    -0.6325090    4.1231160   -2.0227610  
C    -1.1826200    2.7663560   -0.1493200  
H    -1.6043770    0.7445460    2.0418070  
H    -4.5459200    5.0485820    0.1502090  
H    -4.0235630    1.1140170    3.1494410  
H    -5.1058950    3.1137800    2.0827580  
C    -1.8741400   -3.7227180   -1.8440750  
C    -1.9057760   -2.6139880   -1.0463880  
C    -3.1588240   -2.6878310   -0.2959680  
C    -3.8440850   -3.9282870   -0.7372230  
N    -3.0006760   -4.5172520   -1.6565990  
C    -5.0543900   -4.3390140   -0.2782130  
C    -5.7329430   -3.5251860    0.7272990  
O    -6.8261910   -3.8101990    1.1916220  
C    -5.0076040   -2.2257260    1.2335430  
O    -5.5444350   -1.5339170    2.0872390  
C    -3.7059370   -1.8877310    0.6561650  
H    -5.5428810   -5.2484340   -0.6143260  
H    -3.2192830   -0.9924950    1.0262720  
H    -1.1157500   -4.0185110   -2.5563970  
H    -3.2142060   -5.3498650   -2.1831320  
