62


C     5.0982410    0.0746610    0.1626280  
C     6.0047490    1.1441800    0.1840340  
C     7.2999460    0.6190370   -0.0116180  
C     7.1577310   -0.7968300   -0.1578020  
N     5.8288050   -1.0911260   -0.0486560  
C     8.2523480   -1.6435730   -0.3759350  
C     9.5037860   -1.0562990   -0.4485650  
O    10.6011960   -1.8245920   -0.6588430  
C     9.6657520    0.3601600   -0.3056770  
O    10.9779250    0.7671070   -0.4048550  
C     8.5929590    1.1929150   -0.0922440  
H     5.7417810    2.1864350    0.2785240  
H     5.3753960   -1.9857650   -0.1821980  
H     8.1538980   -2.7177610   -0.4884760  
H    11.3756580   -1.2348320   -0.6791990  
H    11.0337190    1.7291490   -0.3038880  
H     8.7345230    2.2660370    0.0142700  
C     2.0118320    3.0077260    1.5945570  
C     3.2139290    2.4201510    1.3522430  
C     2.9031420    1.1372230    0.7396760  
C     1.4324920    1.1203330    0.6856990  
N     0.9151940    2.2166820    1.1832190  
C     0.6665830   -0.0235790    0.1850910  
C     1.4202790   -1.1118430   -0.1463970  
O     0.8741240   -2.2931740   -0.5759820  
C     2.8907910   -1.1438590   -0.0994410  
O     3.4311650   -2.2192370   -0.4141260  
C     3.6665810    0.0824200    0.2893180  
H     4.1897070    2.7925680    1.6259900  
H     1.6476520   -2.8790300   -0.7403410  
H     1.8180780    3.9651280    2.0627510  
C    -2.2573240    2.8612040   -1.6512080  
C    -1.1161430    2.2313230   -1.2330350  
C    -1.5184680    1.0737530   -0.4882570  
C    -2.9339310    1.0560580   -0.4896830  
N    -3.3569820    2.1648860   -1.1859080  
C    -3.7216380    0.0152560    0.0684920  
C    -2.9897860   -1.0513670    0.6272610  
O    -3.6128300   -2.0788360    1.2383580  
C    -1.5689600   -1.0566800    0.6311880  
O    -1.0314260   -2.1520020    1.2744410  
C    -0.8055760   -0.0024680    0.1166130  
H    -0.1060600    2.5643200   -1.4141180  
H    -4.3158530    2.3222070   -1.4575240  
H    -2.8953830   -2.6751960    1.5338080  
H    -0.3346220   -2.5317620    0.6954590  
H    -2.3849360    3.7654260   -2.2291160  
C    -5.1692010    0.0600160    0.0429350  
C    -5.9802960    1.1736280    0.0789690  
C    -7.3304380    0.6851080   -0.0095980  
C    -7.1707230   -0.8025860   -0.1262390  
N    -5.9230790   -1.1630370   -0.0868620  
C    -8.3118050   -1.6724460   -0.2643120  
C    -9.5385020   -1.1015770   -0.2575520  
O   -10.6909300   -1.7785960   -0.3675760  
C    -9.7309550    0.3943160   -0.1210900  
O   -10.8942340    0.8062360   -0.1286420  
C    -8.5606030    1.2589860    0.0008960  
H    -5.6837820    2.1976770    0.2601020  
H    -8.1706410   -2.7434630   -0.3571050  
H   -11.3913150   -1.0872280   -0.3271310  
H    -8.7360490    2.3269290    0.0877370  
