62


C     5.2531340   -0.0030250   -2.3467540  
C     5.1045520    0.3055180   -1.0086030  
C     6.3795060    0.0232250   -0.3869700  
C     7.2480390   -0.4521130   -1.4010180  
N     6.5333100   -0.4623410   -2.5831870  
C     8.5715300   -0.8367760   -1.1486830  
C     9.0256490   -0.7371140    0.1563510  
O    10.3080980   -1.0911490    0.4616270  
C     8.1672220   -0.2664270    1.1863780  
O     8.7652030   -0.2256670    2.4333510  
C     6.8621480    0.1074850    0.9337600  
H     6.9121370   -0.6844120   -3.4902910  
H     9.2391210   -1.1983360   -1.9242300  
H    10.4300400   -0.9281210    1.4129460  
H     8.1563780    0.1826970    3.0663680  
H     6.2282930    0.4830450    1.7319460  
H     4.5533060    0.1224140   -3.1617810  
C     1.0676510   -1.3518760   -1.2546990  
C     0.3909880   -0.4209520   -0.4743660  
C     1.3914170    0.5402350   -0.0465310  
C     2.6283130    0.1286670   -0.5968660  
N     2.3931880   -1.0150600   -1.3360560  
C     3.8612300    0.7809970   -0.3756560  
C     3.7995950    1.8951980    0.4620710  
O     4.9284130    2.6130480    0.7357140  
C     2.5697370    2.3216880    1.0300220  
O     2.6911310    3.4485430    1.8242830  
C     1.3759570    1.6723970    0.7909740  
H     3.1165870   -1.5310070   -1.8146270  
H     4.6474250    3.3839700    1.2603810  
H     1.8107790    3.8168730    1.9925340  
H     0.4489340    2.0449890    1.2123490  
H     0.6748480   -2.1808880   -1.8270380  
C    -2.1799490   -3.8306830    0.4018520  
C    -3.3832210   -3.2029770    0.5205830  
C    -3.1613430   -1.7890790    0.3316770  
C    -1.7213140   -1.6405590    0.0673850  
N    -1.1849910   -2.9173940    0.1059210  
C    -1.0377540   -0.4697830   -0.1689230  
C    -1.8716090    0.7398210   -0.1423760  
O    -1.4363970    1.8676890   -0.3124730  
C    -3.4299810    0.6113500    0.0956320  
O    -4.0657210    1.6538070    0.0774710  
C    -4.0331530   -0.7097710    0.3558900  
H    -4.3325090   -3.6848680    0.6928850  
H    -1.9435890   -4.8831310    0.4861600  
H    -0.1902660   -3.0879430    0.1423080  
C    -6.0065530   -1.7291510    1.5652980  
C    -5.4399970   -0.8328070    0.6928170  
C    -6.6109590   -0.0809400    0.1632470  
C    -7.7786320   -0.7044510    0.8421480  
N    -7.4081570   -1.6521450    1.6661650  
C    -9.1281870   -0.2767810    0.5937170  
C    -9.3236330    0.7148670   -0.3088110  
O   -10.5273750    1.2083040   -0.6471660  
C    -8.1720760    1.3534950   -1.0247640  
O    -8.4240300    2.2413090   -1.8396000  
C    -6.7909580    0.9078310   -0.7334260  
H    -9.9499170   -0.7540610    1.1161900  
H   -10.3399810    1.9043010   -1.3151890  
H    -5.9889050    1.4279770   -1.2414700  
H    -5.4848000   -2.4370370    2.1968580  
