60


C    -6.4465150    3.8301620   -0.6824050  
C    -5.3744240    3.0080140   -0.4476720  
C    -5.8949520    1.7544530    0.0185310  
C    -7.3105360    1.8788380    0.0387050  
N    -7.6151430    3.1555500   -0.3863730  
C    -8.1630320    0.8374370    0.4181390  
C    -7.5719120   -0.3609830    0.7905960  
O    -8.3528960   -1.4039030    1.1954250  
C    -6.1646650   -0.5119890    0.7728230  
O    -5.7377680   -1.7652000    1.1884740  
C    -5.2997140    0.5156640    0.3880130  
H    -4.3368160    3.2649250   -0.6031600  
H    -8.5461630    3.5284340   -0.4857970  
H    -9.2435890    0.9346340    0.4411810  
H    -7.7512170   -2.1215490    1.4604910  
H    -4.8212030   -1.7015250    1.4986280  
H    -6.4761760    4.8501430   -1.0386580  
C    -2.8833990    1.2005500    0.8226190  
C    -3.8424710    0.3373920    0.3816270  
C    -3.0635890   -0.7736150   -0.2164730  
C    -1.6365650   -0.3808040   -0.0135750  
N    -1.5488290    0.7673690    0.5973300  
C    -0.5330740   -1.2045880   -0.4797750  
C    -0.8752160   -2.3588770   -1.1250890  
O     0.0213210   -3.2482320   -1.5729470  
C    -2.2986610   -2.7628890   -1.3625020  
O    -2.5028620   -3.8251460   -1.9488360  
C    -3.3941380   -1.8981030   -0.8787830  
H    -0.5039150   -3.9484470   -2.0199140  
H    -4.4110950   -2.2251190   -1.0680200  
H    -3.0409850    2.1517540    1.3160340  
C     2.0255710    0.0049860    2.9746890  
C     0.9999010   -0.4062890    2.1891390  
C     1.4821540   -0.4434340    0.8244090  
C     2.9014460   -0.0232250    0.8845510  
N     3.1839910    0.1952020    2.2221630  
C     3.7470430    0.1043020   -0.1821330  
C     3.1887170   -0.2546060   -1.4993650  
O     3.8672270   -0.3224340   -2.5081260  
C     1.6679840   -0.6307050   -1.6007790  
O     1.1881520   -0.7693770   -2.7108710  
C     0.8734600   -0.7779100   -0.3558060  
H    -0.0027720   -0.6343170    2.5129070  
H     2.0473670    0.1738360    4.0432200  
H     4.0005380    0.6967830    2.5384860  
C     7.1692950   -1.6016690    2.0204210  
C     8.1381020   -0.7280460    1.6464530  
C     7.5222900    0.2550650    0.7779960  
C     6.0918860   -0.1217630    0.6813310  
N     5.9345080   -1.2360670    1.4885930  
C     5.1553130    0.5200080   -0.0794020  
C     5.6158990    1.7173210   -0.8215610  
O     4.8536810    2.4393980   -1.4373600  
C     7.1368420    2.1108390   -0.7545820  
O     7.5237590    3.0645010   -1.4110300  
C     8.0231550    1.3226740    0.1006190  
H     9.1782090   -0.7590130    1.9366630  
H     9.0696300    1.6083810    0.1451140  
H     7.2412050   -2.4774010    2.6520610  
H     5.1132200   -1.8219990    1.4764010  
