62


C     0.5259630    3.7999020   -1.0400070  
C     1.5016240    4.7454370   -1.1007040  
C     2.6923230    4.1833200   -0.5148250  
C     2.3805700    2.8643040   -0.1093050  
N     1.0353180    2.6323600   -0.4494430  
C     3.3029970    2.0494530    0.5565600  
C     4.5713170    2.5667510    0.7833120  
O     5.4985660    1.8049330    1.4307710  
C     4.9078750    3.8765880    0.3592360  
O     6.2029730    4.2429450    0.6534700  
C     3.9831980    4.6864180   -0.2782940  
H     1.3962220    5.7333600   -1.5275630  
H     3.0718950    1.0541400    0.9139660  
H     6.3149520    2.3308250    1.4933280  
H     6.3694180    5.1456460    0.3435210  
H     4.2504140    5.6969190   -0.5796690  
H    -0.4925340    3.8084400   -1.3984390  
C     0.2819120    1.4993470   -0.2324760  
C    -1.0702560    1.3853500   -0.0485560  
C    -1.3794730   -0.0099320    0.0687820  
C    -0.0910030   -0.7234480   -0.0428540  
N     0.9014390    0.2469790   -0.1750000  
C     0.0762240   -2.0759610   -0.0509420  
C    -1.1457140   -2.8656490    0.2047540  
O    -1.1352740   -4.0756630    0.3252830  
C    -2.5037990   -2.1104870    0.4464910  
O    -3.4492340   -2.8123550    0.8116190  
C    -2.5842530   -0.6621620    0.2604780  
H    -1.7716060    2.1986330    0.0426610  
H     1.7662790    0.0521290   -0.6636430  
C    -4.3864150    2.3083940   -2.5958990  
C    -3.5761500    1.3789440   -1.9954610  
C    -4.2059150    0.9910100   -0.7615900  
C    -5.4199640    1.7239020   -0.6809520  
N    -5.4920230    2.5319240   -1.7986720  
C    -6.3417100    1.5672910    0.3593050  
C    -6.0378570    0.6221640    1.3256060  
O    -6.8963740    0.3925190    2.3557300  
C    -4.8338920   -0.1314590    1.2742120  
O    -4.6871100   -1.0084520    2.3239630  
C    -3.8795110    0.0573750    0.2689800  
H    -2.6481920    1.0014200   -2.3986820  
H    -6.2764380    3.1171340   -2.0390460  
H    -7.2728810    2.1220550    0.4143530  
H    -6.4941820   -0.3361970    2.8677470  
H    -4.3523800   -1.8536970    1.9385730  
H    -4.2708730    2.8305110   -3.5353530  
C     3.9733050   -1.8580820    2.0354490  
C     4.6695320   -2.7574450    1.2965030  
C     3.7805130   -3.2558050    0.2672170  
C     2.4872630   -2.5586330    0.4684920  
N     2.6790930   -1.7000340    1.5380560  
C     1.3577600   -2.7639040   -0.2738590  
C     1.4744270   -3.7187630   -1.4019070  
O     0.5861330   -3.8762220   -2.2194210  
C     2.8229730   -4.5024800   -1.5951610  
O     2.8886200   -5.3435410   -2.4775790  
C     3.9456280   -4.1796370   -0.7171220  
H     5.7004850   -3.0456740    1.4409950  
H     4.8786760   -4.7129740   -0.8708210  
H     4.2941720   -1.2711850    2.8857130  
H     1.9264390   -1.2360280    2.0243090  
