62


C     4.0052390   -4.2923560   -1.5013360  
C     3.4496060   -3.0628220   -1.2605010  
C     4.3773050   -2.3310650   -0.4427580  
C     5.4941110   -3.1807150   -0.2248110  
N     5.2353040   -4.3698820   -0.8749500  
C     6.6161780   -2.7880880    0.5137070  
C     6.6082450   -1.5083830    1.0449250  
O     7.6728020   -1.0690090    1.7752430  
C     5.4984610   -0.6437480    0.8546460  
O     5.6295660    0.5651960    1.5167080  
C     4.3755840   -1.0277060    0.1208080  
H     2.4980310   -2.7152000   -1.6369230  
H     5.8607810   -5.1591790   -0.9131700  
H     7.4752070   -3.4317750    0.6728580  
H     7.4811390   -0.1463640    2.0208620  
H     5.0621330    1.2381610    1.1070470  
H     3.6271900   -5.1277900   -2.0734770  
C     1.9145170   -0.4286390    0.2394970  
C     3.2174550   -0.1279540   -0.0325540  
C     3.2203910    1.2527910   -0.5028410  
C     1.8156980    1.7241160   -0.4522570  
N     1.0571790    0.6518630    0.0102240  
C     1.4132340    2.9699940   -0.8003170  
C     2.4205600    3.9244100   -1.2615730  
O     2.1522660    5.0745520   -1.5712190  
C     3.9114730    3.4376460   -1.3620230  
O     4.7615260    4.2097620   -1.7750070  
C     4.2207500    2.0645190   -0.9487840  
H     0.3779120    3.2902500   -0.7640500  
H     5.2474630    1.7261740   -1.0587100  
H     1.4998930   -1.3629860    0.5949670  
C    -1.2379450    0.3240290    3.7065460  
C    -2.4858800    0.3285230    3.1404220  
C    -2.3016830    0.4620470    1.7225580  
C    -0.9039940    0.5273510    1.4917730  
N    -0.2808100    0.4400830    2.7148110  
C    -0.3484040    0.6324350    0.2040110  
C    -1.2312040    0.6834890   -0.8740150  
O    -0.7511700    0.7731790   -2.1373530  
C    -2.6360440    0.6664920   -0.6641450  
O    -3.3734010    0.8174980   -1.8158930  
C    -3.1751920    0.5525150    0.6155890  
H    -3.4231210    0.2336890    3.6695980  
H     0.7156150    0.4895150    2.8630790  
H    -1.5252480    0.7982420   -2.7309500  
H    -4.1933330    0.2903470   -1.7730110  
H    -0.9441740    0.2403980    4.7429850  
C    -5.2822660    1.5096260    1.5729070  
C    -6.6208820    1.3265040    1.4894660  
C    -6.8479560    0.1951570    0.6132130  
C    -5.5031050   -0.2765190    0.1957500  
N    -4.5833290    0.5595330    0.8053740  
C    -5.2848680   -1.3420030   -0.6275950  
C    -6.4424930   -2.0751720   -1.1390560  
O    -6.3427310   -3.0561770   -1.8583270  
C    -7.8740430   -1.5726600   -0.7305010  
O    -8.8541060   -2.1491830   -1.1717070  
C    -7.9751840   -0.4237670    0.1786580  
H    -7.3813740    1.9185950    1.9774920  
H    -4.2952140   -1.7312360   -0.8493790  
H    -8.9701410   -0.1048150    0.4744270  
H    -4.7151760    2.2559730    2.1121240  
