60


C    -4.1644390   -0.2430950    0.0992890  
C    -4.8984320   -1.0807670    0.9029780  
C    -6.2650280   -0.9568410    0.4875030  
C    -6.2987330   -0.0157550   -0.5749000  
N    -5.0015190    0.4170490   -0.7875400  
C    -7.4826780    0.3542930   -1.2222360  
C    -8.6580160   -0.2387600   -0.7878470  
O    -9.8387340    0.0801270   -1.3862790  
C    -8.6460540   -1.1779430    0.2804890  
O    -9.8953330   -1.6714910    0.5958970  
C    -7.4747950   -1.5387720    0.9181700  
H    -4.5090240   -1.6750730    1.7177980  
H    -4.6865900    0.9743410   -1.5673350  
H    -7.5125620    1.0736940   -2.0337940  
H   -10.5385380   -0.4268940   -0.9392370  
H    -9.8256040   -2.2897610    1.3383040  
H    -7.4896590   -2.2587100    1.7336350  
C    -1.8384420   -1.0503920    0.0973700  
C    -0.5520480   -0.5697550    0.1099630  
C    -0.6641680    0.8927570    0.0773800  
C    -2.1118880    1.1987310    0.0645170  
N    -2.7786300   -0.0354550    0.0631330  
C    -2.6432530    2.4459020    0.0745020  
C    -1.7255850    3.5856430    0.0735200  
O    -2.1101110    4.7443000    0.0815890  
C    -0.1848890    3.2872770    0.0616730  
O     0.5973580    4.2236650    0.0449230  
C     0.2591330    1.8866180    0.0775370  
H    -3.7089760    2.6437690    0.1020220  
H     1.3205870    1.6728150    0.0937580  
H    -2.1839760   -2.0750590    0.0863550  
C     0.6458250   -1.3660080    0.1326040  
C     0.7826090   -2.7282690    0.2584070  
C     2.1921720   -2.9865570    0.2084550  
C     2.8140010   -1.6249220    0.0589780  
N     1.9101370   -0.6940650    0.0028290  
C     4.2494620   -1.4399900   -0.0369170  
C     5.0003940   -2.5747120   -0.0180740  
O     6.3334930   -2.5875840   -0.0992100  
C     4.3997140   -3.9595490    0.1266020  
O     5.1956960   -4.9019180    0.1409120  
C     2.9559080   -4.1087360    0.2416540  
H     0.0031160   -3.4687480    0.3744690  
H     6.5781650   -3.5417020   -0.0515660  
H     2.5599920   -5.1147160    0.3376490  
C     4.2216210    1.9839940    2.7184150  
C     4.8922220    2.9275860    2.0204180  
C     5.2625420    2.2786910    0.7661180  
C     4.6911040    0.8976380    0.8878490  
N     4.0975220    0.7292230    2.0315350  
C     4.8415980   -0.0916520   -0.1673690  
C     5.5663410    0.2881550   -1.2543470  
O     5.8003140   -0.5054110   -2.3101530  
C     6.1606390    1.6647860   -1.3925050  
O     6.7887680    1.9084630   -2.4217280  
C     5.9688630    2.6535790   -0.3171160  
H     5.1186800    3.9441090    2.3099840  
H     6.3369500    0.0404340   -2.9274540  
H     6.4155230    3.6333520   -0.4559560  
H     3.7835690    2.0706480    3.7055940  
