62


C     4.2011930   -1.6522920   -0.3351430  
C     3.0935910   -0.8273350   -0.3479740  
C     1.9639850   -1.6292750    0.0087800  
C     2.4448810   -2.9462410    0.2042400  
N     3.8116080   -2.9350990   -0.0148160  
C     1.6217930   -4.0296770    0.5236030  
C     0.2629070   -3.7880540    0.6429380  
O    -0.5842120   -4.8066880    0.9521750  
C    -0.2733650   -2.4897430    0.4470400  
O    -1.6156900   -2.4370920    0.6043780  
C     0.5567640   -1.3719390    0.1453910  
H     3.1108610    0.2029550   -0.6620010  
H     4.4492770   -3.6812740    0.2194670  
H     2.0038600   -5.0348820    0.6704680  
H    -1.4782890   -4.4200690    0.9932080  
H    -1.9036190   -1.4908190    0.4242580  
C    -0.0080620   -0.0575720    0.0178910  
C     0.5751250    1.1917920   -0.0681530  
C    -0.4865810    2.1335370   -0.1587910  
C    -1.7448900    1.3109100   -0.1320760  
N    -1.4474530    0.0495350   -0.0140860  
C    -3.0755680    1.8918260   -0.2055870  
C    -3.0935260    3.2703700   -0.2784920  
O    -4.1793610    4.0112890   -0.3939090  
C    -1.8268440    4.1269130   -0.2871930  
O    -2.0182890    5.3466960   -0.3602160  
C    -0.5339860    3.4953720   -0.2271260  
H     1.6221070    1.4396900   -0.0128500  
H    -3.8340850    4.9421700   -0.4249920  
H     0.3464120    4.1292680   -0.2364520  
C    -4.2707250    1.0660180   -0.2068080  
C    -4.4010830   -0.2553730   -0.5488470  
C    -5.7972400   -0.5729920   -0.3690070  
C    -6.4058850    0.7075360    0.1182120  
N    -5.5245010    1.6558570    0.2077630  
C    -7.8097030    0.8032810    0.4334890  
C    -8.5672530   -0.3042690    0.2606280  
O    -9.8843530   -0.3674830    0.5057870  
C    -7.9824090   -1.6074410   -0.2391370  
O    -8.7583990   -2.5566360   -0.3615330  
C    -6.5513090   -1.6842640   -0.5445230  
H    -3.6347830   -0.9241280   -0.9067150  
H    -8.2247310    1.7396640    0.7892280  
H   -10.1394500   -1.2922160    0.2857780  
H    -6.1661260   -2.6372280   -0.8940460  
C     6.3886680   -2.1913760   -1.3645800  
C     7.6241600   -1.6172800   -1.4477960  
C     7.5724330   -0.3786710   -0.7203080  
C     6.2591960   -0.2495220   -0.2052040  
N     5.5376160   -1.3758570   -0.6103040  
C     5.8626440    0.8327150    0.5885410  
C     6.8070320    1.8147080    0.8475200  
O     6.4694680    2.8933740    1.6111970  
C     8.1238780    1.7105370    0.3267650  
O     8.9437700    2.7678290    0.6684310  
C     8.5144100    0.6307230   -0.4436060  
H     8.4743020   -2.0221990   -1.9797250  
H     4.8664140    0.9215910    1.0052780  
H     7.2588540    3.4576440    1.6799420  
H     9.8236270    2.6339450    0.2862240  
H     9.5316300    0.5641130   -0.8243200  
H     6.0039810   -3.0970940   -1.8112380  
