64


C    -4.5659330    1.2187840   -1.4961550  
C    -5.5481120    1.9563760   -0.8929750  
C    -5.9824700    1.2198860    0.2603160  
C    -5.2162860    0.0266560    0.3049970  
N    -4.3507510    0.0401880   -0.7843000  
C    -5.3611720   -0.9257870    1.3204700  
C    -6.3045290   -0.6737900    2.3034960  
O    -6.4912390   -1.5733680    3.3169840  
C    -7.0856220    0.5111090    2.2721250  
O    -7.9842020    0.6194480    3.3205820  
C    -6.9358540    1.4527840    1.2713870  
H    -5.9280060    2.9087700   -1.2376900  
H    -4.7782940   -1.8386240    1.3520950  
H    -7.1947210   -1.2177170    3.8863270  
H    -8.5007330    1.4316360    3.2146070  
H    -7.5423370    2.3569150    1.2705230  
H    -4.0012490    1.4053110   -2.3989150  
C    -0.0214420    0.5249660   -0.9772440  
C     0.2681140   -0.7796470   -1.3526990  
C    -0.9671270   -1.4926650   -1.4412350  
C    -1.9926890   -0.5699750   -1.1092570  
N    -1.3978370    0.6331580   -0.8266170  
C    -3.3556320   -0.9208020   -1.0973620  
C    -3.6799960   -2.2363600   -1.4248690  
O    -4.9822140   -2.6330970   -1.4458120  
C    -2.6562440   -3.1708030   -1.7379270  
O    -3.1403550   -4.4331820   -2.0293410  
C    -1.3200800   -2.8210030   -1.7564910  
H     1.2432060   -1.1716640   -1.6037140  
H    -1.8743350    1.5032840   -0.6381840  
H    -4.9887840   -3.5763210   -1.6851090  
H    -2.4033620   -5.0131970   -2.2706450  
H    -0.5606800   -3.5596750   -2.0046810  
C     4.2604460    0.6218280    0.1228460  
C     4.4092410    2.0064730    0.0977330  
C     3.1477630    2.5659690   -0.2302420  
C     2.2396690    1.4833610   -0.4152640  
N     2.9385700    0.3255400   -0.2039200  
C     0.8723850    1.6584430   -0.7449940  
C     0.4526930    2.9918690   -0.8275610  
O    -0.8561240    3.2842990   -1.1061540  
C     1.3477710    4.0812480   -0.6432900  
O     0.7384690    5.3140600   -0.7854800  
C     2.6819170    3.8928210   -0.3613740  
H     5.3318560    2.5261120    0.3004550  
H     2.5435660   -0.6011770   -0.1384780  
H    -0.9384390    4.2546480   -1.1162330  
H     1.3892020    6.0166420   -0.6410750  
H     3.3512570    4.7393490   -0.2273370  
C     8.5255930    0.8781610    1.1924750  
C     8.8508490   -0.4246650    1.3392430  
C     7.6201620   -1.1580830    1.0613280  
C     6.6154730   -0.0931190    0.7533140  
N     7.1544600    1.0869480    0.8329390  
C     5.2214980   -0.4170940    0.4137950  
C     4.9249890   -1.7595090    0.4011680  
O     3.6882080   -2.2460880    0.1086720  
C     5.9000700   -2.8232910    0.7033530  
O     5.5136460   -3.9991950    0.6638190  
C     7.2914020   -2.4616620    1.0407870  
H     9.8075150   -0.8531020    1.6040720  
H     3.7835410   -3.2224880    0.1938740  
H     7.9783260   -3.2747740    1.2561600  
H     9.1607920    1.7473370    1.3117180  
