64


C    -3.6623800    0.0024100    2.3749040  
C    -3.6826540    0.3907330    1.0498940  
C    -4.6965560   -0.4191170    0.4104910  
C    -5.2447590   -1.2718460    1.4013220  
N    -4.5927300   -0.9959000    2.5872310  
C    -6.2506300   -2.2078080    1.1260960  
C    -6.7120670   -2.2819160   -0.1781410  
O    -7.6961020   -3.1706490   -0.5052280  
C    -6.1711600   -1.4378100   -1.1847060  
O    -6.7331120   -1.6310010   -2.4349450  
C    -5.1770380   -0.5195350   -0.9098750  
H    -4.8148540   -1.4021670    3.4822680  
H    -6.6733860   -2.8596420    1.8839690  
H    -7.8856870   -3.0488060   -1.4515720  
H    -6.3801240   -0.9693150   -3.0478770  
H    -4.7916720    0.1314070   -1.6893440  
H    -3.0839220    0.4006550    3.1973190  
C     0.6695390    0.7301560    1.2755450  
C     0.8459110    1.8916760    0.5415380  
C    -0.4819950    2.3095410    0.1290030  
C    -1.3987710    1.3683750    0.6584390  
N    -0.6648510    0.4301820    1.3602700  
C    -2.7931930    1.3974330    0.4421740  
C    -3.2482620    2.4360740   -0.3723330  
O    -4.5837900    2.5676110   -0.6411740  
C    -2.3473300    3.3798820   -0.9259470  
O    -2.9659390    4.3419550   -1.7096890  
C    -0.9866360    3.3371930   -0.6914790  
H    -1.0692770   -0.3772030    1.8097940  
H    -4.6824130    3.3873040   -1.1569150  
H    -2.3289890    5.0435750   -1.9099570  
H    -0.3292800    4.0878520   -1.1162510  
H     1.4136950    0.1064990    1.7448720  
C     4.7590940    0.0114610   -0.0955860  
C     5.5676040    1.1128850   -0.2397260  
C     4.7085400    2.2546310   -0.1349040  
C     3.3384120    1.6762010    0.0964690  
N     3.3769290    0.3782910    0.1048620  
C     2.1466230    2.5087120    0.2736540  
C     2.3757100    3.8535720    0.1876760  
O     1.4214360    4.7929450    0.3523810  
C     3.7275190    4.4567570   -0.0691460  
O     3.7832880    5.6935610   -0.1122920  
C     4.8915060    3.5956440   -0.2258810  
H     6.6314790    1.1318290   -0.4326540  
H     1.9119390    5.6436350    0.2515110  
H     5.8509540    4.0714670   -0.4022650  
C     6.3656400   -1.9251600   -0.0846350  
C     5.0835570   -1.3860440   -0.1144250  
C     4.1721850   -2.5164250   -0.1736720  
C     4.9635940   -3.6885210   -0.1771670  
N     6.2922340   -3.2878230   -0.1196510  
C     4.4237010   -4.9774270   -0.2434890  
C     3.0425570   -5.0819970   -0.3147310  
O     2.4554500   -6.3100780   -0.3862770  
C     2.2317160   -3.9160930   -0.3196910  
O     0.8782320   -4.1801280   -0.3958420  
C     2.7729560   -2.6455530   -0.2500400  
H     7.0852930   -3.9107430   -0.0897910  
H     5.0331810   -5.8751950   -0.2503100  
H     1.4958580   -6.1648140   -0.4581120  
H     0.3958160   -3.3498940   -0.5271820  
H     2.1466010   -1.7589680   -0.2511740  
H     7.3203960   -1.4229850   -0.0205960  
