64


C     1.3622000    2.8928630   -0.3378580  
C     0.3165420    1.9806710   -0.1890410  
C     0.9490270    0.6914560    0.0495950  
C     2.3462600    0.8961500    0.0217790  
N     2.5521050    2.2469480   -0.2435920  
C     3.3021370   -0.1334970    0.2045390  
C     2.7463340   -1.3898440    0.4868970  
O     3.5557270   -2.4791250    0.7056480  
C     1.3469270   -1.6028730    0.5371940  
O     0.9802960   -2.8995770    0.8380410  
C     0.4414520   -0.5906840    0.3003180  
H     3.4425030    2.6978390   -0.0725630  
H     2.9634760   -3.2073770    0.9698780  
H     0.0183010   -2.9348040    0.9880460  
H    -0.6264480   -0.7643000    0.3181330  
H     1.3243560    3.9607740   -0.5014830  
C    -1.0837280    2.2537940   -0.2233310  
C    -1.7980220    3.4281250   -0.3557730  
C    -3.1785570    3.0665920   -0.2894010  
C    -3.1641990    1.5722750   -0.1023790  
N    -1.9566030    1.1143670   -0.0736760  
C    -4.3824440    0.7664110   -0.0031610  
C    -5.5295250    1.4847730   -0.1170180  
O    -6.7682020    0.9302920   -0.1018660  
C    -5.5880000    2.9835570   -0.2909350  
O    -6.7268720    3.4683150   -0.3666360  
C    -4.3594400    3.7445040   -0.3669880  
H    -1.4065750    4.4281610   -0.4824170  
H    -7.3710230    1.7119240   -0.2027450  
H    -4.4371930    4.8183950   -0.5021930  
C    -2.0472410   -2.0257980    2.6721740  
C    -2.6636780   -0.9299260    2.1412380  
C    -3.4527990   -1.3722620    1.0197550  
C    -3.2854820   -2.7756120    0.9362900  
N    -2.3555460   -3.1523370    1.9031240  
C    -3.9733240   -3.5771650    0.0195540  
C    -4.8649480   -2.9353050   -0.8240150  
O    -5.5966350   -3.6504140   -1.7216400  
C    -5.0290460   -1.5234320   -0.7883980  
O    -5.9040280   -1.0468200   -1.7413320  
C    -4.3050790   -0.7107480    0.0901300  
H    -2.5459130    0.0864120    2.4854310  
H    -2.3137460   -4.0921720    2.2733690  
H    -3.8507810   -4.6540770   -0.0361160  
H    -6.1452650   -2.9946020   -2.1928240  
H    -6.4765250   -0.3667970   -1.3278830  
H    -1.3760180   -2.1088120    3.5156210  
C     6.3664460   -2.4145180   -2.0633190  
C     7.4356830   -1.5933890   -1.8266140  
C     6.9670590   -0.5353830   -0.9772860  
C     5.5846460   -0.7713930   -0.7384620  
N     5.2396520   -1.9063850   -1.4442650  
C     4.7673460    0.0812880    0.0457630  
C     5.4358160    1.1768340    0.6049010  
O     4.7560300    2.0877200    1.3877080  
C     6.8106900    1.4231420    0.3767150  
O     7.2811280    2.5689980    1.0031530  
C     7.5831540    0.5930870   -0.4099500  
H     8.4366180   -1.7146820   -2.2175020  
H     4.4292860   -2.4588260   -1.2005670  
H     5.4329740    2.6796650    1.7640900  
H     8.2493660    2.5524970    1.0139360  
H     8.6342540    0.8123660   -0.5853670  
H     6.3043170   -3.3269920   -2.6400670  
