62


C     4.8520150    0.1958300    0.0435120  
C     5.0224570   -0.7662680   -0.9429320  
C     6.3105210   -1.3580020   -0.7564620  
C     6.8974310   -0.7186440    0.3693020  
N     5.9899260    0.2031060    0.8377470  
C     8.1768280   -1.0422350    0.8389380  
C     8.8774650   -2.0275140    0.1613480  
O    10.1301000   -2.3815660    0.5760180  
C     8.3061200   -2.6783490   -0.9654140  
O     9.1273190   -3.6386180   -1.5302560  
C     7.0433110   -2.3593190   -1.4269450  
H     4.3456660   -0.9597810   -1.7638510  
H     6.1583390    0.9090170    1.5393360  
H     8.6290260   -0.5556890    1.6970370  
H    10.4468150   -3.0731250   -0.0301120  
H     8.6934130   -4.0124860   -2.3111310  
H     6.6285170   -2.8724330   -2.2927740  
C     0.5918060   -0.3673030   -0.7956750  
C     0.1187710    0.8711890   -0.3868210  
C     1.2820810    1.6015760    0.0929140  
C     2.4049420    0.7569140   -0.0843030  
N     1.9478380   -0.4220740   -0.6443630  
C     3.7232360    1.0865490    0.3061450  
C     3.8548370    2.3156560    0.9644720  
O     5.0821750    2.7269420    1.4243630  
C     2.7449400    3.1657220    1.1664060  
O     3.0635860    4.3419080    1.8234970  
C     1.4721040    2.8379530    0.7390520  
H     2.5181540   -1.2476860   -0.7523720  
H     4.9572040    3.6153540    1.8030030  
H     2.2940990    4.9300280    1.8189330  
H     0.6458930    3.5222880    0.8918790  
H     0.0376200   -1.2091340   -1.1768620  
C    -3.4609540   -1.5776040   -0.0233940  
C    -4.4891770   -0.6804350   -0.1372660  
C    -3.7971620    0.6138320   -0.3441040  
C    -2.3470870    0.2736070   -0.3014620  
N    -2.1766850   -1.0111560   -0.1209830  
C    -1.2841850    1.2736390   -0.4391070  
C    -1.7265300    2.5593920   -0.6189810  
O    -0.9070790    3.6191020   -0.8162920  
C    -3.1601970    2.9285240   -0.6446930  
O    -3.4525810    4.1179190   -0.8135810  
C    -4.1993460    1.8864360   -0.4980700  
H    -1.5216470    4.3786170   -0.9362910  
H    -5.2328130    2.2033410   -0.5583990  
H    -3.5444810   -2.6513320    0.0925030  
C    -6.7564120   -3.5162110    2.4083140  
C    -5.7896240   -2.7377640    1.8541550  
C    -6.4118860   -1.9334120    0.8247920  
C    -7.8444270   -2.3059210    0.8326230  
N    -7.9816960   -3.2853200    1.7954650  
C    -8.8057340   -1.7616120    0.0383310  
C    -8.4091470   -0.7154450   -0.8823850  
O    -9.1835410   -0.1365980   -1.6299490  
C    -6.8921960   -0.2879900   -0.9165430  
O    -6.5770470    0.6014300   -1.6888400  
C    -5.9104780   -0.9763650   -0.0344260  
H    -4.7530050   -2.7089150    2.1509460  
H    -9.8483590   -2.0618180    0.0689640  
H    -6.6815990   -4.2362200    3.2122220  
H    -8.8579250   -3.7046370    2.0642940  
