62


C     5.4489280   -2.2037800   -0.3811890  
C     4.9270970   -0.9298660   -0.1882160  
C     6.0753990   -0.0412520   -0.0863350  
C     7.2343960   -0.8477120   -0.2065350  
N     6.8150430   -2.1549090   -0.3923710  
C     8.5372160   -0.3443440   -0.1225790  
C     8.6796200    1.0173810    0.0906130  
O     9.9221680    1.5707790    0.1712080  
C     7.5334400    1.8443190    0.2227840  
O     7.8304020    3.1774140    0.4312030  
C     6.2505520    1.3381080    0.1423430  
H     7.4218980   -2.9380600   -0.5809590  
H     9.4178660   -0.9709020   -0.2197040  
H     9.8007930    2.5288220    0.2919460  
H     7.0172170    3.7007640    0.3698210  
H     5.3949690    1.9996060    0.2151350  
H     4.9266760   -3.1302710   -0.5696870  
C     1.5314420   -3.1812810    1.5761400  
C     2.7646660   -2.7322790    1.2356270  
C     2.5877960   -1.5134650    0.4675200  
C     1.1308150   -1.2779860    0.4104490  
N     0.5518580   -2.3314920    1.0659530  
C     0.4822180   -0.2188880   -0.2064510  
C     1.3549780    0.6808770   -0.9184900  
O     0.9718160    1.5822260   -1.6762730  
C     2.9141670    0.5539250   -0.7501450  
O     3.5884720    1.4766530   -1.1712390  
C     3.4968490   -0.6617860   -0.1212990  
H     3.7063110   -3.1813570    1.5095400  
H     1.2434670   -4.0496560    2.1527510  
H    -0.4377140   -2.3864770    1.2621120  
C    -2.5393070   -0.3971120    3.1284950  
C    -1.3767950   -0.3358690    2.4027330  
C    -1.7405880   -0.1823880    1.0160050  
C    -3.1578590   -0.1381590    0.9751770  
N    -3.6149220   -0.2713440    2.2723280  
C    -3.9047780    0.0345450   -0.2091490  
C    -3.1506920    0.1937220   -1.3717590  
O    -3.7707520    0.4312700   -2.5525740  
C    -1.7290690    0.1530690   -1.3615040  
O    -1.1700000    0.3168100   -2.6041550  
C    -0.9936690   -0.0731610   -0.1956760  
H    -0.3780760   -0.3552030    2.8148860  
H    -4.5862540   -0.3499330    2.5308940  
H    -3.0538980    0.5174720   -3.2117140  
H    -0.3831150    0.9064810   -2.4905180  
H    -2.6922980   -0.5018400    4.1933410  
C    -6.7291410    2.7986350    1.6894560  
C    -7.9060520    2.2588520    1.2775410  
C    -7.5905390    1.0974280    0.4715990  
C    -6.1119690    1.0028400    0.4531020  
N    -5.6494930    2.0448280    1.2429490  
C    -5.3817510    0.0722520   -0.2274540  
C    -6.1533250   -0.9477210   -0.9738570  
O    -5.6275420   -1.8833330   -1.5491490  
C    -7.7259420   -0.8503440   -0.9843710  
O    -8.3556140   -1.6674050   -1.6390670  
C    -8.3654660    0.2086250   -0.2076420  
H    -8.8957270    2.6273330    1.5053460  
H    -9.4497990    0.2622140   -0.2194990  
H    -6.5541520    3.6780590    2.2955420  
H    -4.6829980    2.3349540    1.2675160  
