60


C    -4.1206670   -1.1338560    1.7442340  
C    -4.6260260   -0.3079100    0.7489970  
C    -5.8809850   -0.9101390    0.3291450  
C    -6.0528610   -2.0873320    1.0987020  
N    -4.9667630   -2.1880060    1.9528320  
C    -7.1412040   -2.9537860    0.9487170  
C    -8.0869150   -2.6269180   -0.0097760  
O    -9.1729640   -3.4276870   -0.1981340  
C    -7.9313350   -1.4574460   -0.7999000  
O    -8.9502070   -1.2649420   -1.7122730  
C    -6.8523450   -0.6081760   -0.6459860  
H    -4.8518930   -2.8922230    2.6656000  
H    -7.2653810   -3.8521510    1.5445630  
H    -9.7152550   -3.0180140   -0.8945300  
H    -8.8305100   -0.4118390   -2.1554160  
H    -6.7753650    0.2907980   -1.2480960  
H    -3.2351660   -1.0030900    2.3489170  
C    -0.3468730    0.8000240    0.0830950  
C    -1.4855300    0.0635600    0.3229010  
C    -2.5670250    0.9963540    0.1795100  
C    -1.8976440    2.2827000   -0.1588310  
N    -0.5958050    2.1589700   -0.2057110  
C    -2.6285510    3.4937940   -0.4163840  
C    -3.9753590    3.4154780   -0.3567610  
O    -4.8025500    4.4404160   -0.5945200  
C    -4.6991550    2.1233510   -0.0145870  
O    -5.9292330    2.1988510    0.0009190  
C    -3.9372490    0.8918790    0.2879930  
H    -1.5739500   -0.9882420    0.5439530  
H    -2.1059400    4.4120040   -0.6589620  
H    -5.7064330    4.0738870   -0.4584800  
C     1.3066590   -1.0016410    0.1969280  
C     2.6458900   -1.1845120    0.1743740  
C     3.2651820    0.1147260    0.0261790  
C     2.1584430    1.0988590   -0.0295810  
N     0.9625310    0.3526290    0.0705990  
C     2.3414270    2.4385870   -0.1209060  
C     3.7126460    2.9463940   -0.1788800  
O     3.9693890    4.1381420   -0.2362900  
C     4.8959020    1.9226330   -0.1819730  
O     6.0296600    2.3285050   -0.3598490  
C     4.5811000    0.4790840   -0.0282870  
H     3.1605540   -2.1302650    0.2534680  
H     1.5193690    3.1396320   -0.1477090  
H     0.5215090   -1.7373360    0.2868470  
C     5.8852650   -2.9225670   -2.6066930  
C     5.2081340   -1.8765230   -2.0664190  
C     5.9199370   -1.4712950   -0.8709800  
C     7.0891370   -2.3793650   -0.7640520  
N     6.9945210   -3.2488980   -1.8346600  
C     8.0432220   -2.3116620    0.1994270  
C     7.9189000   -1.2782890    1.2182940  
O     8.7329440   -1.1185640    2.1143390  
C     6.6630040   -0.3360340    1.1662440  
O     6.4803980    0.4450740    2.0820660  
C     5.7054230   -0.4703460    0.0371680  
H     4.3116700   -1.4231200   -2.4609470  
H     8.9005840   -2.9764310    0.2400550  
H     5.6701520   -3.4879510   -3.5038740  
H     7.6918900   -3.9346310   -2.0783500  
