60


C     0.1785740   -3.1292650   -1.7400470  
C     0.1439250   -4.4893640   -1.6564600  
C     1.1251820   -4.8861990   -0.6824580  
C     1.7463300   -3.7051490   -0.2075260  
N     1.1554900   -2.6243170   -0.8753910  
C     2.7180460   -3.7227810    0.7979490  
C     3.0884570   -4.9580300    1.3115710  
O     4.0397550   -5.0247690    2.2890950  
C     2.4901450   -6.1505290    0.8347330  
O     2.9632560   -7.2985030    1.4407550  
C     1.5156630   -6.1266490   -0.1482990  
H    -0.5052600   -5.1412220   -2.2252580  
H     3.1938130   -2.8278420    1.1768130  
H     4.1561230   -5.9640140    2.5132440  
H     2.5099530   -8.0701860    1.0704870  
H     1.0550800   -7.0513050   -0.4907050  
H    -0.3952690   -2.4487630   -2.3488200  
C    -1.5472360    0.6920170   -0.2449870  
C    -0.6689940    1.7332440   -0.1399820  
C     0.6441520    1.1533720   -0.2956720  
C     0.3806790   -0.3032030   -0.5056050  
N    -0.8912540   -0.5646550   -0.4785700  
C     1.4537330   -1.2629760   -0.7188030  
C     2.7214650   -0.7589090   -0.7390140  
O     3.8151030   -1.5093930   -0.9420360  
C     3.0153620    0.6876920   -0.5014150  
O     4.2010650    1.0134550   -0.4653010  
C     1.9038270    1.6683930   -0.3228350  
H    -0.8888490    2.7699760    0.0625280  
H     4.5719170   -0.8858600   -0.8625090  
C    -2.9829440    0.6711390   -0.1546860  
C    -3.8941010    1.6854470    0.0329890  
C    -5.2040990    1.0963230    0.0479640  
C    -5.0055900   -0.3657700   -0.1465520  
N    -3.6474540   -0.5496880   -0.2656170  
C    -6.0141330   -1.2742070   -0.1875970  
C    -7.3855400   -0.7995690   -0.0357510  
O    -8.3556360   -1.5424510   -0.0605050  
C    -7.6194890    0.7428380    0.1690470  
O    -8.7622660    1.1573180    0.2973370  
C    -6.4525120    1.6248070    0.1973530  
H    -3.6638260    2.7349580    0.1459440  
H    -5.8516250   -2.3381630   -0.3287150  
H    -6.6260440    2.6871180    0.3404320  
H    -3.1525170   -1.4215470   -0.3888340  
C     0.9629760    4.5286380    2.9013880  
C     1.6251040    5.6370970    2.5009900  
C     2.2417960    5.2743140    1.2291100  
C     1.8260930    3.8482180    1.0165230  
N     1.0815070    3.4236580    1.9925260  
C     2.2543720    3.0882590   -0.1500510  
C     3.0237650    3.7591580   -1.0562120  
O     3.4421690    3.2317080   -2.2089140  
C     3.4439280    5.1967010   -0.8645860  
O     4.1358300    5.6990740   -1.7464060  
C     3.0163860    5.9254000    0.3401900  
H     1.6973710    6.5932450    3.0000910  
H     3.9818020    3.9323510   -2.6411780  
H     3.3468540    6.9542050    0.4450090  
H     0.3763210    4.3877920    3.8010240  
