60


C     3.1900710   -2.3403640   -1.0599740  
C     4.1208430   -3.3139540   -1.2279730  
C     5.3785360   -2.8063750   -0.7370460  
C     5.1537750   -1.4897510   -0.2717490  
N     3.7801500   -1.2057010   -0.4769060  
C     6.1775130   -0.7107060    0.2732180  
C     7.4454880   -1.2769430    0.3448680  
O     8.4727420   -0.5502190    0.8694020  
C     7.6840740   -2.5930950   -0.1177750  
O     8.9898810   -3.0137440    0.0200360  
C     6.6641670   -3.3611610   -0.6567340  
H     3.9419220   -4.2907090   -1.6571080  
H     6.0058830    0.2957040    0.6262190  
H     9.2714340   -1.1038660    0.8303810  
H     9.0815360   -3.9138370   -0.3260330  
H     6.8593870   -4.3718850   -1.0089790  
H     2.1404830   -2.3322420   -1.3064780  
C     3.0846800   -0.0617580   -0.1868680  
C     1.7343100    0.1798150   -0.3813690  
C     1.5263320    1.5112350    0.0721810  
C     2.8892630    1.9662020    0.5268030  
N     3.7881460    1.0311640    0.3714140  
C     3.1272070    3.2810040    1.0406790  
C     2.0612810    4.1145720    1.1030880  
O     2.1109380    5.3645620    1.5596020  
C     0.6606960    3.6890290    0.6794250  
O    -0.2258810    4.5190900    0.8847340  
C     0.4368010    2.3507220    0.1257500  
H     0.9904190   -0.4801470   -0.7982290  
H     4.1209840    3.5792250    1.3546170  
H     1.1794100    5.6889290    1.5008260  
C    -2.3695090   -0.9371240    1.1747430  
C    -1.3057040   -0.1032110    1.0881130  
C    -1.6164210    0.9085010    0.1041980  
C    -2.9785610    0.5981250   -0.3866380  
N    -3.3846630   -0.5656650    0.2791960  
C    -3.6808420    1.3771970   -1.2466270  
C    -3.0401240    2.5798560   -1.7667850  
O    -3.6069000    3.3646070   -2.5113970  
C    -1.5558870    2.8681200   -1.3569660  
O    -0.9583220    3.7661000   -1.9222530  
C    -0.9175520    2.0043060   -0.3296370  
H    -0.3913770   -0.1790700    1.6564790  
H    -4.6929180    1.1639040   -1.5634250  
H    -2.5249330   -1.7925880    1.8136250  
C    -6.0286490   -2.0390930    3.3709860  
C    -7.0600890   -2.5200500    2.6415150  
C    -6.6851900   -2.2935460    1.2482690  
C    -5.3453220   -1.6383300    1.3397120  
N    -4.9660800   -1.4961740    2.5739520  
C    -4.6131720   -1.2329640    0.1464090  
C    -5.1805410   -1.5297430   -1.0604610  
O    -4.5977970   -1.2706520   -2.2431300  
C    -6.5233620   -2.1747300   -1.1665650  
O    -6.9557450   -2.4031220   -2.2968370  
C    -7.2616550   -2.5452440    0.0586100  
H    -7.9763900   -2.9728880    2.9935300  
H    -5.2434240   -1.5769060   -2.9197130  
H    -8.2312660   -3.0159870   -0.0712440  
H    -5.9200770   -2.0192160    4.4482840  
