62


C    -1.7291130   -1.8033150    1.1643570  
C    -3.0592980   -1.5072850    1.0970990  
C    -3.2227950   -0.5064590    0.0774500  
C    -1.9368420   -0.2309360   -0.4491750  
N    -1.0195340   -1.0290940    0.2421040  
C    -1.7317530    0.6473780   -1.5201810  
C    -2.8447340    1.2956040   -2.0343570  
O    -2.6996460    2.1782510   -3.0628210  
C    -4.1374300    1.0511930   -1.5043310  
O    -5.1370760    1.7784950   -2.1085850  
C    -4.3578230    0.1500810   -0.4599790  
H    -3.8389650   -1.9301880    1.7138840  
H    -0.7579780    0.8338450   -1.9574000  
H    -3.5809190    2.5439990   -3.2547660  
H    -5.9644190    1.6412420   -1.6142520  
H    -1.1880650   -2.4740610    1.8158210  
C     1.1141880   -2.2519410   -0.0348200  
C     0.3561940   -1.1271420    0.0268290  
C     1.3218300   -0.0097890   -0.0139330  
C     2.6420860   -0.6837240   -0.1416750  
N     2.5039520   -1.9797580   -0.1377540  
C     3.9012520    0.0656460   -0.2272090  
C     3.7693950    1.4282680   -0.1205010  
O     4.8047460    2.2931230   -0.2077080  
C     2.4664110    2.1128270    0.0691660  
O     2.4631120    3.3454660    0.1456050  
C     1.2192620    1.3217150    0.1252220  
H     4.3928780    3.1824330   -0.1134270  
H     0.2864570    1.8619370    0.2505270  
H     0.7777790   -3.2805790   -0.0098000  
C     5.3133070   -1.8721330   -1.0113430  
C     5.1581120   -0.6444620   -0.4169470  
C     6.5334930   -0.2791830   -0.0021770  
C     7.3674290   -1.4277140   -0.4710450  
N     6.6436730   -2.3395750   -1.0637170  
C     8.7881430   -1.4845160   -0.2598970  
C     9.3682740   -0.4664390    0.4190700  
O    10.6775660   -0.3887630    0.7002750  
C     8.5558260    0.6875580    0.9369370  
O     9.1491010    1.5695870    1.5554750  
C     7.0989690    0.7283430    0.6912210  
H     9.3532800   -2.3329730   -0.6292800  
H    10.7864310    0.4507190    1.1998730  
H     6.5628680    1.5914530    1.0629680  
H     4.5282860   -2.4902800   -1.4211440  
C    -6.3384100    0.8946880    3.5292560  
C    -5.4358050    0.8177520    2.5006590  
C    -6.1205030    0.2339830    1.3816390  
C    -7.4543780   -0.0214360    1.7980720  
N    -7.5568020    0.3911290    3.1106610  
C    -8.4219800   -0.5828330    0.9553850  
C    -8.0342450   -0.8979050   -0.3366150  
O    -8.9286630   -1.4615070   -1.1996210  
C    -6.7084830   -0.6461080   -0.7776870  
O    -6.4741510   -1.0232760   -2.0847910  
C    -5.7372920   -0.0821860    0.0518130  
H    -4.4037060    1.1353040    2.5332280  
H    -8.3896970    0.3340050    3.6751450  
H    -9.4396870   -0.7829100    1.2749090  
H    -8.4493840   -1.6475080   -2.0259310  
H    -5.5164000   -0.9926030   -2.2518680  
H    -6.2174220    1.2690690    4.5360010  
