62


C     3.5719760   -1.6047210   -1.5093810  
C     3.9452150   -2.8996190   -1.2987450  
C     5.0436830   -2.8822680   -0.3710210  
C     5.3092100   -1.5262140   -0.0593780  
N     4.3900060   -0.7440330   -0.7683410  
C     6.2947940   -1.1482020    0.8587270  
C     7.0406280   -2.1560020    1.4504310  
O     8.0194600   -1.8369570    2.3461430  
C     6.7974810   -3.5186840    1.1375000  
O     7.6193800   -4.4036850    1.8083300  
C     5.8121380   -3.8897070    0.2410040  
H     3.5037450   -3.7700820   -1.7651340  
H     6.5135190   -0.1156230    1.0998890  
H     8.4401430   -2.6690900    2.6224890  
H     7.4444950   -5.3046980    1.4991210  
H     5.6306270   -4.9404820    0.0235960  
H     2.8240580   -1.1879240   -2.1679010  
C     0.8482060    1.7792860   -0.1438960  
C     1.7235620    0.7345970   -0.2581750  
C     3.0344100    1.2579050   -0.5454940  
C     2.8892490    2.7223650   -0.6044180  
N     1.5543450    3.0094980   -0.2825560  
C     3.8810270    3.5990950   -0.8888750  
C     5.2166670    3.0647510   -1.1254430  
O     6.1915810    3.7655070   -1.3421310  
C     5.4172090    1.5043070   -1.0774220  
O     6.5129560    1.0507070   -1.3525590  
C     4.2513580    0.6525400   -0.7403050  
H     1.4888250   -0.3025340   -0.0723550  
H     3.7413310    4.6750260   -0.9184970  
H     1.0981740    3.7832340   -0.7561550  
C    -2.4732310   -0.9845200   -1.2445200  
C    -1.2693280   -0.3655010   -1.1218760  
C    -1.4544580    0.7823110   -0.2723320  
C    -2.8205680    0.8233480    0.0885650  
N    -3.4477830   -0.2905480   -0.5173590  
C    -3.3536150    1.8377000    0.8877460  
C    -2.4864390    2.8296780    1.3283340  
O    -2.9644290    3.8267420    2.1207780  
C    -1.1168680    2.8170470    0.9797560  
O    -0.3987280    3.8542570    1.5204910  
C    -0.5719280    1.7987920    0.1774450  
H    -0.3515530   -0.6822060   -1.5946180  
H    -4.3978070    1.8584600    1.1637560  
H    -2.2121290    4.3955540    2.3610740  
H     0.5534390    3.7201440    1.3517850  
H    -2.7405840   -1.8726910   -1.7942510  
C    -4.7643830   -0.6819590   -0.4542430  
C    -5.3479720   -1.7787200   -1.0541110  
C    -6.7209870   -1.7208490   -0.6712330  
C    -6.8187600   -0.4872750    0.1920180  
N    -5.6639820    0.1086880    0.3082430  
C    -8.0554240   -0.0701010    0.7847960  
C    -9.1454830   -0.8364830    0.5364100  
O   -10.3650980   -0.5874650    1.0105760  
C    -9.0842080   -2.0906790   -0.3315920  
O   -10.1507550   -2.6944250   -0.4756020  
C    -7.8196360   -2.4885310   -0.9183010  
H    -4.8884560   -2.5301390   -1.6777200  
H    -8.0984760    0.8206080    1.4013060  
H   -10.9264490   -1.3181110    0.6542860  
H    -7.8071040   -3.3842820   -1.5306100  
