62


C     4.7831620   -0.0240880   -2.4347420  
C     5.9854000   -0.5844270   -2.7442550  
C     6.6648970   -0.8577940   -1.5060870  
C     5.8181900   -0.4209800   -0.4572680  
N     4.6588540    0.1027590   -1.0464240  
C     6.1470210   -0.5999210    0.8902710  
C     7.3646970   -1.1992760    1.1818330  
O     7.7306920   -1.3864020    2.4858630  
C     8.2312940   -1.6216030    0.1450210  
O     9.4060850   -2.1993510    0.5902890  
C     7.8934980   -1.4612550   -1.1882870  
H     6.3489350   -0.7887600   -3.7421660  
H     5.5076670   -0.2797150    1.7017640  
H     8.6059940   -1.8099810    2.4788790  
H     9.9498540   -2.4489320   -0.1712600  
H     8.5630980   -1.8097660   -1.9724110  
H     3.9785730    0.3057550   -3.0718050  
C     0.4631370   -0.6528570   -1.7556010  
C    -0.1400310    0.1569950   -0.8403130  
C     0.9924430    0.8107380   -0.1423680  
C     2.2023840    0.2612660   -0.8079290  
N     1.8822960   -0.5939670   -1.7372610  
C     3.5452110    0.6543320   -0.3980340  
C     3.6403700    1.5516030    0.6316730  
O     4.8086570    2.0513060    1.0850930  
C     2.4443300    2.0654300    1.3400660  
O     2.6142360    2.8806920    2.2526400  
C     1.0932600    1.6369940    0.9130300  
H     4.5540130    2.6543320    1.8183390  
H     0.2483710    2.0333960    1.4670090  
H    -0.0195380   -1.2962920   -2.4810190  
C    -2.4479830   -0.7625120   -0.5180130  
C    -1.5558440    0.2858400   -0.5417350  
C    -2.3282680    1.4809330   -0.2559290  
C    -3.6744000    1.0824580   -0.0825570  
N    -3.7301800   -0.3093060   -0.2454960  
C    -4.6918940    1.9870940    0.2344780  
C    -4.3492560    3.3259650    0.3459930  
O    -5.3067000    4.2457800    0.6509310  
C    -3.0111280    3.7495030    0.1387480  
O    -2.8291480    5.1106200    0.2651610  
C    -2.0058970    2.8480660   -0.1621880  
H    -5.7254740    1.6923420    0.3623170  
H    -4.8805580    5.1201850    0.6525150  
H    -1.9064620    5.3369270    0.0756490  
H    -0.9897200    3.1970150   -0.3265660  
H    -2.2700750   -1.8150180   -0.6820500  
C    -4.3237840   -3.9540350    2.1161430  
C    -3.8120120   -2.8133930    1.5827600  
C    -4.8165140   -2.2673740    0.6961410  
C    -5.9710650   -3.1934930    0.7560650  
N    -5.5998210   -4.2008640    1.6252350  
C    -7.1455840   -3.0293310    0.0918520  
C    -7.2933210   -1.8589620   -0.7559820  
O    -8.3182790   -1.5823860   -1.3595390  
C    -6.0641770   -0.8847930   -0.9055300  
O    -6.1389340    0.0342300   -1.6997970  
C    -4.8513420   -1.1459720   -0.0912990  
H    -2.8436230   -2.3869430    1.7944320  
H    -7.9793190   -3.7193980    0.1722000  
H    -3.8798990   -4.6350170    2.8300330  
H    -6.1935100   -4.9672790    1.9009250  
