60


C     5.5696290   -2.1793730   -0.2653370  
C     4.9508180   -0.9397770   -0.1924860  
C     6.0215480    0.0392580   -0.1522990  
C     7.2438160   -0.6760080   -0.1896760  
N     6.9348450   -2.0224660   -0.2587820  
C     8.4977990   -0.0538180   -0.1444720  
C     8.5176360    1.3288870   -0.0647740  
O     9.7061230    1.9950300   -0.0307400  
C     7.3027330    2.0651020   -0.0245430  
O     7.4838200    3.4331380    0.0510050  
C     6.0700820    1.4445670   -0.0606770  
H     7.6042700   -2.7658270   -0.3844820  
H     9.4313860   -0.6059340   -0.1788230  
H     9.4987820    2.9460060   -0.0206330  
H     6.6404600    3.8783390   -0.1212370  
H     5.1587410    2.0327850   -0.0615920  
H     5.1299750   -3.1582220   -0.3980510  
C     1.8397750   -3.1897810    1.8860720  
C     0.7300210   -2.5363110    1.4440010  
C     1.1750090   -1.4535130    0.5902620  
C     2.6473990   -1.5442580    0.5538010  
N     2.9844010   -2.6320000    1.3470280  
C     3.5029420   -0.7284820   -0.1435280  
C     2.8491780    0.3555460   -0.9019970  
O     3.4615070    1.1550860   -1.5912270  
C     1.2834140    0.5179090   -0.8267250  
O     0.7998810    1.5220230   -1.3185940  
C     0.4811650   -0.4881760   -0.1009750  
H    -0.2942650   -2.7997290    1.6603340  
H     1.9138260   -4.0462090    2.5436240  
H     3.9339850   -2.8324010    1.6250270  
C    -2.4749800   -0.1048050    3.1518110  
C    -3.6144380   -0.0308530    2.4179010  
C    -3.2383770   -0.1049770    1.0231320  
C    -1.7633220   -0.2457190    1.0052180  
N    -1.3642000   -0.2361210    2.3272880  
C    -0.9815300   -0.3543610   -0.1122630  
C    -1.6964430   -0.3649260   -1.4027080  
O    -1.1419900   -0.5946550   -2.4627560  
C    -3.2485400   -0.1299170   -1.4158050  
O    -3.7933080    0.0165790   -2.4955550  
C    -3.9804970   -0.0720510   -0.1291080  
H    -4.6143860    0.0995090    2.7989680  
H    -2.3461590   -0.0695440    4.2255490  
H    -0.4062430   -0.3101580    2.6308760  
C    -6.6732540    3.0381710    1.4927550  
C    -7.8787900    2.6431370    1.0250910  
C    -7.6148340    1.4088230    0.2926350  
C    -6.1332760    1.2077170    0.4347480  
N    -5.5957720    2.1622100    1.1367570  
C    -5.4469120    0.0770200   -0.1737870  
C    -6.2348240   -0.8003910   -0.8617940  
O    -5.7691380   -1.9164950   -1.4359840  
C    -7.7202280   -0.6220060   -1.0125930  
O    -8.3351570   -1.4780610   -1.6467010  
C    -8.3797290    0.5454750   -0.4008170  
H    -8.8386590    3.1251530    1.1480840  
H    -6.5443740   -2.3285720   -1.8779170  
H    -9.4518310    0.6434320   -0.5420070  
H    -6.4422930    3.9162080    2.0842840  
