62


C     3.7799090   -0.0282770   -0.1467670  
C     2.4121570    0.2216070   -0.0748660  
C     2.2217260    1.6406080   -0.0222550  
C     3.5183980    2.2201120   -0.0791620  
N     4.4316490    1.1929120   -0.1261100  
C     3.7335570    3.6005740   -0.1226990  
C     2.6075930    4.4091150   -0.1398440  
O     2.7368060    5.7600310   -0.2084290  
C     1.2957550    3.8620450   -0.0794260  
O     0.3041560    4.8120510   -0.0722790  
C     1.0691300    2.4854350    0.0246850  
H     1.6313260   -0.5143580   -0.1966900  
H     5.4246470    1.2800990   -0.2887270  
H     4.7227070    4.0430470   -0.1762710  
H     1.8249270    6.1083650   -0.2498180  
H    -0.4217020    4.4775760   -0.6519900  
C    -0.3365080   -0.4757390    2.9121030  
C    -1.6312820   -0.6168530    2.5237240  
C    -1.8534160    0.2929290    1.4182880  
C    -0.5599830    0.9696440    1.1822610  
N     0.3048900    0.4771360    2.1326160  
C    -0.2830030    1.9127740    0.2130290  
C    -1.4398470    2.3221530   -0.5697610  
O    -1.4409800    3.2667580   -1.3615010  
C    -2.8076620    1.5541430   -0.4194700  
O    -3.7036390    1.8565460   -1.1880640  
C    -2.9684570    0.5537860    0.6562470  
H    -2.3555590   -1.2922020    2.9522150  
H     0.2036450   -0.9770230    3.7045290  
H     1.2922030    0.6919760    2.1440890  
C    -4.8499490   -0.1886560    2.1430930  
C    -4.2765540   -0.0514830    0.9079330  
C    -5.2231680   -0.6447760   -0.0460160  
C    -6.3721310   -1.1324900    0.7568670  
N    -6.0757380   -0.8272370    2.0724240  
C    -7.4689810   -1.7523390    0.2528610  
C    -7.5320070   -1.9859060   -1.1856240  
O    -8.4738670   -2.5377990   -1.7337890  
C    -6.3142240   -1.5093550   -2.0560090  
O    -6.3272330   -1.7204180   -3.2575080  
C    -5.1950410   -0.8278090   -1.3896510  
H    -8.2966340   -2.0927120    0.8676850  
H    -4.3861020   -0.4718250   -2.0159540  
H    -4.4736000    0.1528980    3.0981370  
H    -6.7078150   -0.9558820    2.8473870  
C     2.5378500   -4.1337130    0.9328070  
C     3.6767750   -4.7801370    0.5344610  
C     4.5773060   -3.7786450    0.0375560  
C     3.9164220   -2.5278610    0.1495130  
N     2.6694760   -2.7789630    0.6862630  
C     4.5036830   -1.2944260   -0.2314390  
C     5.8235780   -1.3870150   -0.6963420  
O     6.5089810   -0.2547000   -1.0676040  
C     6.4925180   -2.6283040   -0.8143810  
O     7.7817300   -2.5124520   -1.3039410  
C     5.8905640   -3.8215540   -0.4673850  
H     3.8574850   -5.8449360    0.5855840  
H     2.0363270   -2.0634680    1.0055620  
H     7.3780240   -0.5441500   -1.3981790  
H     8.1505900   -3.3939930   -1.4605020  
H     6.4254850   -4.7634310   -0.5668820  
H     1.6262320   -4.5245870    1.3624130  
