62


C    -1.8960820   -4.3007900    0.9641800  
C    -1.9553050   -2.9621470    0.6453250  
C    -3.3229530   -2.6482150    0.3640080  
C    -4.0496750   -3.8531850    0.5184530  
N    -3.1584550   -4.8370970    0.8917300  
C    -5.4279150   -3.9628090    0.2883450  
C    -6.1021480   -2.8276230   -0.1232480  
O    -7.4387660   -2.8784080   -0.3731460  
C    -5.4250640   -1.5902930   -0.2915480  
O    -6.2337580   -0.5898630   -0.6927360  
C    -4.0268550   -1.4552290   -0.0298870  
H    -1.0968510   -2.3120500    0.5925760  
H    -3.3980950   -5.7990190    1.0760040  
H    -5.9705760   -4.8949950    0.4110180  
H    -7.7030940   -1.9788680   -0.6409680  
H    -5.6595050    0.2356780   -0.8054120  
H    -1.0474110   -4.9109220    1.2380920  
C    -3.3955470   -0.1762290   -0.1377130  
C    -2.1168610    0.2485180    0.1972480  
C    -2.0431040    1.6269640   -0.1142440  
C    -3.4012750    1.9671320   -0.6530090  
N    -4.1746870    0.9178980   -0.6629110  
C    -3.7518810    3.2904480   -1.0722250  
C    -2.8027890    4.2404290   -0.9032610  
O    -2.9732130    5.5270580   -1.2062790  
C    -1.4288880    3.9382930   -0.3170770  
O    -0.7113690    4.9517210   -0.1658040  
C    -1.0427600    2.5834610    0.0134710  
H    -1.3339080   -0.3261860    0.6584820  
H    -4.7332790    3.5122660   -1.4751000  
H    -2.1258450    5.9607720   -0.9437310  
C     1.8380920   -0.5754240   -1.3303250  
C     0.7648190    0.2623070   -1.2034900  
C     1.0380620    1.1536430   -0.1084720  
C     2.3182110    0.8053010    0.3920160  
N     2.7965360   -0.2649510   -0.3637940  
C     2.9576190    1.5153220    1.4106900  
C     2.2842750    2.6135760    1.9225260  
O     2.8514380    3.3644410    2.9027590  
C     0.9996590    2.9876060    1.4448830  
O     0.4711970    4.0875130    2.0837740  
C     0.3315370    2.2566450    0.4575810  
H    -0.1284230    0.2320730   -1.8093120  
H     3.9338010    1.2478510    1.7967220  
H     2.2137120    4.0812810    3.0853930  
H     0.0907800    4.6690250    1.3884190  
H     1.9998770   -1.4117190   -1.9960800  
C     5.9480820   -0.6907740   -3.2863750  
C     6.8165460   -1.4490420   -2.5681360  
C     6.2277300   -1.6628500   -1.2619850  
C     4.9269670   -0.9547720   -1.2865360  
N     4.8086220   -0.3997030   -2.5423840  
C     4.0503860   -0.8983690   -0.2411140  
C     4.4169490   -1.6095520    0.9961120  
O     3.6867960   -1.6694690    1.9694530  
C     5.8162690   -2.3359680    1.0446050  
O     6.1457630   -2.8810590    2.0859070  
C     6.6559340   -2.3227720   -0.1515370  
H     7.7721640   -1.8233430   -2.9048260  
H     7.6082940   -2.8415000   -0.1065090  
H     6.0362220   -0.3182940   -4.2983640  
H     4.0411090    0.1878350   -2.8318800  
