62


C    -4.3108390   -0.6437920    2.0621100  
C    -5.0358450   -1.8024330    2.0806870  
C    -5.7989280   -1.8453410    0.8651080  
C    -5.4930850   -0.6668920    0.1378570  
N    -4.5775050    0.0655790    0.8901100  
C    -6.0433550   -0.3925850   -1.1194100  
C    -6.9284120   -1.3197540   -1.6462400  
O    -7.4984720   -1.0992030   -2.8699990  
C    -7.2534840   -2.5006410   -0.9294690  
O    -8.1524320   -3.3254010   -1.5843120  
C    -6.7028110   -2.7717220    0.3091080  
H    -5.0299090   -2.5398430    2.8717780  
H    -5.8106120    0.5065640   -1.6772350  
H    -8.0739170   -1.8607060   -3.0561130  
H    -8.3046630   -4.1187960   -1.0503380  
H    -6.9604210   -3.6871900    0.8386800  
H    -3.6328100   -0.2292330    2.7947440  
C    -0.3288170    0.8796190    0.3233420  
C    -0.4738330    2.2281300   -0.0112770  
C    -1.8587730    2.5383530    0.0205890  
C    -2.5369560    1.3401990    0.3849840  
N    -1.5969540    0.3628910    0.5590250  
C    -3.9379090    1.2711000    0.5149870  
C    -4.6552990    2.4420660    0.2764610  
O    -6.0067450    2.4497770    0.4064790  
C    -3.9834950    3.6401090   -0.1063990  
O    -4.8451840    4.6985390   -0.3153760  
C    -2.6128050    3.7069930   -0.2306880  
H     0.3295320    2.9259700   -0.1917730  
H    -1.7409300   -0.5825210    0.8937050  
H    -6.3133080    3.3474940    0.1880590  
H    -4.3372220    5.4922040   -0.5392120  
H    -2.1278770    4.6360120   -0.5223800  
C     3.8497670    1.3131900   -1.1523650  
C     2.5132870    1.4407900   -0.9572840  
C     2.0946500    0.3879030   -0.0618010  
C     3.3082950   -0.3910560    0.2435690  
N     4.3631760    0.2244750   -0.4379260  
C     3.3666350   -1.4559950    1.0881020  
C     2.1281550   -1.9181370    1.6764160  
O     2.0488360   -2.8437970    2.4712210  
C     0.7962990   -1.1918480    1.2652350  
O    -0.2540820   -1.7086070    1.6208610  
C     0.8609020    0.0692650    0.4767250  
H     1.8745810    2.1585090   -1.4467440  
H     4.2815320   -1.9829840    1.3290750  
H     4.5145100    1.8860360   -1.7841030  
C     8.0366880    2.4330890    0.4388760  
C     6.7344440    2.0631290    0.3060250  
C     6.7256470    0.6936140   -0.1564870  
C     8.1441280    0.2886280   -0.2881850  
N     8.8859970    1.3964090    0.0781930  
C     8.5743450   -0.9416090   -0.6711530  
C     7.5740970   -1.9479860   -0.9951670  
O     7.8465940   -3.0978560   -1.3003200  
C     6.0557160   -1.5331610   -0.9516930  
O     5.2178460   -2.3181890   -1.3538030  
C     5.7119890   -0.1787450   -0.4533070  
H     5.8712630    2.6727620    0.5261390  
H     9.6224640   -1.2147010   -0.7393800  
H     8.4491730    3.3751580    0.7749540  
H     9.8923200    1.4208120    0.1308050  
