64


C    -4.1067530    1.5695530   -0.5442470  
C    -4.4481470    0.2528930   -0.2996860  
C    -5.3763490    0.2777120    0.8098360  
C    -5.5487150    1.6341330    1.1840360  
N    -4.7640620    2.3964570    0.3409470  
C    -6.3734060    2.0316960    2.2446490  
C    -7.0384520    1.0365190    2.9418790  
O    -7.8600900    1.3635960    3.9817660  
C    -6.8746740   -0.3285740    2.5834970  
O    -7.6024720   -1.2021400    3.3721430  
C    -6.0580000   -0.7161660    1.5395100  
H    -4.7118320    3.4031440    0.3420880  
H    -6.5065030    3.0701000    2.5305470  
H    -8.2352110    0.5327890    4.3213490  
H    -7.4918730   -2.1034530    3.0353650  
H    -5.9633520   -1.7641220    1.2703490  
H    -3.4807330    1.9847670   -1.3219840  
C    -0.2943880   -0.7429390   -1.2834180  
C    -0.5169540   -1.9114860   -1.9701190  
C    -1.9350850   -2.1330190   -1.9569670  
C    -2.5230030   -1.0489400   -1.2590400  
N    -1.4995260   -0.2036970   -0.8669350  
C    -3.9074050   -0.9115710   -1.0232570  
C    -4.6995080   -1.9456420   -1.5288630  
O    -6.0556010   -1.9121550   -1.3626290  
C    -4.1302530   -3.0390930   -2.2340810  
O    -5.0661990   -3.9621680   -2.6661130  
C    -2.7718730   -3.1472290   -2.4617750  
H     0.2382070   -2.5139970   -2.4556080  
H    -1.6110050    0.5425170   -0.1952870  
H    -6.4178340   -2.6775410   -1.8425380  
H    -4.6383130   -4.6084040   -3.2468450  
H    -2.3654760   -3.9977710   -3.0045810  
C     2.0530660   -0.7801430   -0.4939380  
C     3.1125660    0.0621500   -0.3247900  
C     2.6455040    1.3905390   -0.7180070  
C     1.2348650    1.2305220   -1.1476040  
N     0.9158850   -0.1116440   -0.9631620  
C     0.4618690    2.2397620   -1.6258750  
C     1.0285820    3.5830670   -1.6912500  
O     0.4046880    4.5490450   -2.1050390  
C     2.5038400    3.7855130   -1.1938380  
O     2.9924050    4.9036360   -1.2175070  
C     3.2445680    2.6096640   -0.7221730  
H    -0.5579460    2.0960230   -1.9642870  
H     4.2605820    2.7672520   -0.3749960  
H     1.9930860   -1.8441210   -0.3121360  
C     4.4232160   -0.2976900    0.1878020  
C     4.7804800   -1.2467590    1.1235930  
C     6.2065520   -1.2259990    1.2431250  
C     6.6829090   -0.2309760    0.3486510  
N     5.5805560    0.3372740   -0.2598600  
C     8.0436510    0.0583990    0.1934470  
C     8.9424590   -0.6664600    0.9606350  
O    10.2809250   -0.4277610    0.8470170  
C     8.4842510   -1.6576020    1.8707430  
O     9.5007890   -2.2866740    2.5648580  
C     7.1403120   -1.9411450    2.0213070  
H     4.0895140   -1.8523070    1.6946230  
H     5.6178390    0.9369620   -1.0701000  
H     8.4117870    0.8169310   -0.4897300  
H    10.7335630   -1.0240720    1.4680920  
H     9.1214810   -2.9347350    3.1765210  
H     6.8141310   -2.7058580    2.7235940  
