60


C     3.4721620   -1.5359540   -1.9335880  
C     4.6648810   -2.1938890   -1.9616730  
C     5.4188860   -1.7650680   -0.8132860  
C     4.6283070   -0.8155980   -0.1210920  
N     3.4209340   -0.6818760   -0.8231080  
C     5.0433480   -0.2344200    1.0815900  
C     6.2881570   -0.5972010    1.5747340  
O     6.7385860   -0.0489970    2.7400720  
C     7.0985990   -1.5329440    0.8831580  
O     8.3074840   -1.7927060    1.4971630  
C     6.6774140   -2.1193520   -0.2978170  
H     4.9846350   -2.8922630   -2.7233310  
H     4.4554970    0.4982780    1.6187560  
H     7.6287370   -0.4051790    2.9026320  
H     8.8269860   -2.3970710    0.9466990  
H     7.3047050   -2.8483400   -0.8070280  
H     2.6489160   -1.5456080   -2.6319230  
C    -0.8684920   -1.5946780   -0.7137150  
C     0.5087640   -1.6622010   -0.7790350  
C     1.0267050   -0.3471740   -0.5722800  
C    -0.1471090    0.5422890   -0.4179770  
N    -1.2522520   -0.2638050   -0.5406300  
C    -0.0998660    1.9050440   -0.2190910  
C     1.2458300    2.4159130    0.1218370  
O     1.4381910    3.4735460    0.6951250  
C     2.5127280    1.5538150   -0.2112940  
O     3.5963200    2.1107570   -0.2316880  
C     2.3229560    0.1220790   -0.5002080  
H     1.0900840   -2.5662550   -0.8784480  
H    -2.1601830    0.0784620   -0.2189590  
C    -1.6811130   -3.8883030   -1.3938660  
C    -1.8231580   -2.6664150   -0.7853480  
C    -3.1775920   -2.7173760   -0.1963990  
C    -3.6912270   -4.0578350   -0.5821980  
N    -2.8020000   -4.7292970   -1.2741430  
C    -4.9963920   -4.5062450   -0.1871650  
C    -5.7526410   -3.6740500    0.5736510  
O    -6.9894750   -3.9675120    1.0054670  
C    -5.2480250   -2.3287420    1.0025900  
O    -5.9908740   -1.6181290    1.6822270  
C    -3.8946040   -1.8981180    0.5953810  
H    -5.3481990   -5.4861260   -0.4901690  
H    -7.2820110   -3.1880950    1.5257050  
H    -3.5533700   -0.9356830    0.9611800  
H    -0.8251090   -4.2375880   -1.9590480  
C    -4.3713320    1.7541610    1.2282730  
C    -4.7129000    3.0551570    1.1189840  
C    -3.5631520    3.7079310    0.5082910  
C    -2.5465860    2.6132420    0.3413880  
N    -3.0491260    1.4767250    0.7484850  
C    -1.2217050    2.8593480   -0.2168830  
C    -1.0520790    4.1166090   -0.7507620  
O     0.0334560    4.4786820   -1.4401500  
C    -2.0611120    5.2164180   -0.6246150  
O    -1.7860440    6.3084420   -1.1218860  
C    -3.3377500    4.9560040    0.0610920  
H    -5.6444900    3.5270560    1.3977630  
H    -0.0910120    5.4306530   -1.6535350  
H    -4.0452710    5.7757890    0.1370660  
H    -4.9653540    0.9323940    1.6117180  
