62


C    -4.7384030    1.8534830   -1.8801250  
C    -4.2510240    1.0776790   -0.8535750  
C    -5.3636200    0.6859600   -0.0286420  
C    -6.5146960    1.2642700   -0.6188520  
N    -6.1017680    1.9713960   -1.7334360  
C    -7.7978960    1.1021880   -0.0808530  
C    -7.9153460    0.3443740    1.0728790  
O    -9.1401010    0.1510920    1.6358910  
C    -6.7670070   -0.2364990    1.6807740  
O    -7.0510230   -0.9538330    2.8234720  
C    -5.5020700   -0.0744390    1.1501570  
H    -6.7091700    2.4760360   -2.3600380  
H    -8.6840180    1.5404690   -0.5281150  
H    -9.0132410   -0.4047670    2.4244110  
H    -6.2398810   -1.3556350    3.1689640  
H    -4.6370880   -0.5264490    1.6287000  
H    -4.2150510    2.3137550   -2.7054170  
C    -1.8865570    1.6856950   -0.4997160  
C    -0.6569920    1.0474140   -0.3415910  
C    -0.9426520   -0.3779340   -0.3743580  
C    -2.3325120   -0.5192540   -0.5742250  
N    -2.8882590    0.7681810   -0.6400310  
C    -2.9625490   -1.7617990   -0.7037680  
C    -2.1618000   -2.8929130   -0.6140750  
O    -2.7174360   -4.1309190   -0.7396300  
C    -0.7653140   -2.7714370   -0.3905570  
O    -0.0943160   -3.9733340   -0.3193170  
C    -0.1557090   -1.5368700   -0.2573380  
H    -4.0275960   -1.8633390   -0.8766510  
H    -1.9953300   -4.7787740   -0.6614620  
H     0.8637330   -3.8102600   -0.3000910  
H     0.9046380   -1.4563220   -0.0529370  
H    -2.1205560    2.7403890   -0.5150870  
C     0.6143980    1.6829180   -0.2039540  
C     0.9525300    3.0196230   -0.1058950  
C     2.3721800    3.0717610   -0.0122660  
C     2.8052390    1.6274610   -0.0445430  
N     1.7747200    0.8367480   -0.1733690  
C     4.1893220    1.2135550    0.0496090  
C     5.0906980    2.2468440    0.0693560  
O     6.4051630    2.0843510    0.0469870  
C     4.6880860    3.7196000    0.0933160  
O     5.6275520    4.5228580    0.1257540  
C     3.2908180    4.0780970    0.0689160  
H     0.2821220    3.8678510   -0.0978330  
H     6.7707950    3.0031660    0.0976990  
H     3.0339930    5.1318960    0.0939210  
C     2.9061550   -2.5121250   -1.9873280  
C     3.7092740   -3.4087720   -1.3500800  
C     4.5272540   -2.6605520   -0.4160950  
C     4.1149520   -1.2427490   -0.5630850  
N     3.1672480   -1.2110120   -1.5787870  
C     4.6059950   -0.1979510    0.1718920  
C     5.5636330   -0.5682080    1.2466580  
O     5.9121690    0.2079230    2.1180070  
C     6.1223220   -2.0373250    1.3035300  
O     7.0364130   -2.2821530    2.0761790  
C     5.5049610   -3.0437590    0.4485030  
H     3.7716470   -4.4708770   -1.5414200  
H     5.8514660   -4.0692920    0.5324890  
H     2.1586450   -2.6892250   -2.7506010  
H     2.4519170   -0.4837180   -1.5439250  
