62


C     5.1012030    0.3648280   -2.0300350  
C     6.1737920   -0.3838400   -2.4104960  
C     6.5380940   -1.2133030   -1.2926680  
C     5.6495670   -0.9080870   -0.2337470  
N     4.7607140    0.0729740   -0.7012040  
C     5.6892140   -1.5816300    0.9912640  
C     6.6636770   -2.5543960    1.1582710  
O     6.7468250   -3.2301970    2.3397420  
C     7.5742710   -2.8574340    0.1134320  
O     8.4823540   -3.8476690    0.4302070  
C     7.5193580   -2.2029260   -1.1038860  
H     6.6676510   -0.3381080   -3.3717740  
H     5.0204350   -1.3600120    1.8130340  
H     7.5003560   -3.8413540    2.2721000  
H     9.1106160   -3.9572640   -0.2987920  
H     8.2143600   -2.4590850   -1.9010080  
H     4.5633750    1.1385270   -2.5572890  
C     0.6201960    0.8088920   -1.9186880  
C     1.9047390    0.3816570   -1.8711720  
C     2.4520100    0.8076030   -0.5988410  
C     1.3615730    1.5134370    0.1029700  
N     0.2694200    1.4971790   -0.7456270  
C     1.4431290    2.0403180    1.3641620  
C     2.6973360    1.9025970    2.0802850  
O     2.8657780    2.2492540    3.2395650  
C     3.9163070    1.2583870    1.3238050  
O     5.0158460    1.3008420    1.8396190  
C     3.6851430    0.6505550   -0.0202530  
H     2.4218210   -0.1807880   -2.6333270  
H     0.5847910    2.4411020    1.8949450  
H    -0.1210030    0.6983030   -2.6977310  
C    -3.8863500   -0.0386090   -0.7972580  
C    -2.5155500    0.0470010   -0.8229460  
C    -2.1881210    1.4283920   -0.6151370  
C    -3.4074200    2.1364220   -0.4510470  
N    -4.4312660    1.2158600   -0.5698460  
C    -3.4669920    3.5077450   -0.1853460  
C    -2.2615820    4.1877190   -0.0880830  
O    -2.2522690    5.5213380    0.1657740  
C    -1.0215150    3.5168380   -0.2679450  
O     0.0841280    4.3361550   -0.2174150  
C    -0.9760780    2.1494970   -0.5330110  
H    -1.8334160   -0.7846310   -0.9247750  
H    -5.4171690    1.4283960   -0.5939040  
H    -4.4004210    4.0420150   -0.0448690  
H    -1.3164150    5.7914600    0.2126220  
H     0.8231480    3.8846040    0.2341350  
C    -4.5455980   -2.0857120   -2.0317380  
C    -5.4651380   -3.0765230   -1.9587260  
C    -6.3083210   -2.8035950   -0.8130710  
C    -5.7870240   -1.5554380   -0.2031170  
N    -4.7130590   -1.1486660   -0.9992630  
C    -6.2925260   -0.9843170    0.9191990  
C    -7.4440920   -1.6179020    1.5625420  
O    -7.9654730   -1.1709360    2.5717240  
C    -8.0285640   -2.9258530    0.9174710  
O    -8.9984000   -3.4588300    1.4317900  
C    -7.3749110   -3.4564240   -0.2829650  
H    -5.5612370   -3.9118360   -2.6370700  
H    -5.8805880   -0.0921080    1.3779850  
H    -7.7723110   -4.3723070   -0.7097640  
H    -3.7539320   -1.9233840   -2.7503370  
