62


C    -6.0931570    3.0071730    1.9339330  
C    -7.3363830    2.6944390    1.4486460  
C    -7.1760150    1.5585650    0.5872710  
C    -5.7954340    1.2189990    0.5975010  
N    -5.1625370    2.1290590    1.4167910  
C    -5.2452640    0.1590120   -0.1624990  
C    -6.1629530   -0.5332540   -0.9523180  
O    -5.7282690   -1.5703540   -1.7597850  
C    -7.5409860   -0.2161580   -0.9749120  
O    -8.2807020   -1.0283310   -1.8168910  
C    -8.0606880    0.8126750   -0.2147410  
H    -8.2570290    3.2171610    1.6680520  
H    -4.1838200    2.0945470    1.6588000  
H    -6.5155600   -1.9261060   -2.2115290  
H    -9.2128910   -0.7679210   -1.7846640  
H    -9.1227690    1.0459120   -0.2485550  
H    -5.7856110    3.7934810    2.6088790  
C    -2.3536520   -0.4742550    3.2178660  
C    -3.4851910   -0.2966640    2.4658950  
C    -3.0828190   -0.2969510    1.0832400  
C    -1.6782500   -0.4982260    1.0679890  
N    -1.2617740   -0.5835500    2.3783100  
C    -0.9124670   -0.5521150   -0.1209120  
C    -1.6436480   -0.4628220   -1.3105880  
O    -1.0181950   -0.6104940   -2.5032830  
C    -3.0503390   -0.2766640   -1.3168360  
O    -3.5848470   -0.1896630   -2.5836290  
C    -3.7938490   -0.1506850   -0.1424150  
H    -4.4910930   -0.2015030    2.8475020  
H    -0.3160920   -0.7789500    2.6694150  
H    -1.7184990   -0.5125860   -3.1784470  
H    -4.4006330   -0.7372970   -2.6022950  
H    -2.2302190   -0.5439660    4.2892430  
C     2.0099740   -3.4294810    1.6746150  
C     0.8497950   -2.8221050    1.3266510  
C     1.2478830   -1.6585380    0.5410820  
C     2.7336890   -1.7250070    0.5199090  
N     3.1679170   -2.7623500    1.1855050  
C     3.5634260   -0.7471470   -0.1864840  
C     2.8666400    0.1992740   -0.8830990  
O     3.4491820    1.1421170   -1.6510010  
C     1.3766180    0.3188480   -0.8484580  
O     0.8850140    1.2988980   -1.4026920  
C     0.5469620   -0.7011780   -0.1240010  
H    -0.1611640   -3.1370220    1.5428010  
H     2.7060900    1.7052680   -1.9659580  
H     2.1416830   -4.3377030    2.2508260  
C     5.7159220   -2.0224090   -0.0078950  
C     5.0224530   -0.8453320   -0.1348890  
C     6.0297980    0.2206320   -0.1373600  
C     7.3492110   -0.4558990   -0.0345090  
N     7.0791980   -1.8088630    0.0244370  
C     8.5513090    0.1718970    0.0072180  
C     8.5739520    1.6292140   -0.0289710  
O     9.6047370    2.2848740    0.0024910  
C     7.1939340    2.3746510   -0.0964510  
O     7.1826060    3.5961130   -0.1042160  
C     5.9629160    1.5780420   -0.1469320  
H     9.4961930   -0.3578200    0.0828070  
H     5.0277850    2.1173350   -0.2153920  
H     5.3130440   -3.0194720    0.0808030  
H     7.7744430   -2.5299040    0.1391820  
