60


C     6.5073870   -0.6420690   -2.5423590  
C     7.2275820   -1.5371890   -1.7978250  
C     6.5210580   -1.7266230   -0.5623090  
C     5.3639810   -0.9052000   -0.6232230  
N     5.3754060   -0.2625540   -1.8409030  
C     4.4344570   -0.8511220    0.4324450  
C     4.6775860   -1.6428100    1.5537770  
O     3.7968450   -1.6264320    2.5951980  
C     5.8227070   -2.4757230    1.6106280  
O     5.9094000   -3.2009890    2.7816520  
C     6.7401270   -2.5236930    0.5778550  
H     8.1525220   -2.0120540   -2.0935840  
H     4.7071390    0.4292120   -2.1427370  
H     4.1449970   -2.2336150    3.2723430  
H     6.7307460   -3.7144250    2.7906370  
H     7.6102300   -3.1729360    0.6449700  
H     6.6999500   -0.2360220   -3.5250680  
C     1.9678350   -0.5053090    0.5353120  
C     1.0623520    0.5098530    0.4518800  
C     1.8015970    1.7409890    0.2384620  
C     3.2295410    1.3473160    0.2186360  
N     3.2673320   -0.0392450    0.3695720  
C     4.2558660    2.2253400    0.0795840  
C     3.9387740    3.6456220   -0.0798790  
O     4.7968270    4.5043140   -0.2077010  
C     2.4262600    4.0752570   -0.0900310  
O     2.1445760    5.2532900   -0.2390610  
C     1.4112230    3.0326470    0.0870660  
H     5.2990190    1.9298890    0.0997160  
H     0.3685950    3.3351500    0.0941360  
H     1.7949730   -1.5592940    0.6993450  
C    -1.1255660    0.9330670    1.5685170  
C    -2.4422370    0.6820890    1.3674870  
C    -2.5590270   -0.0661940    0.1327370  
C    -1.1781370   -0.2356670   -0.3757300  
N    -0.3382790    0.3979000    0.5400510  
C    -0.8436130   -0.9067910   -1.5068330  
C    -1.9120860   -1.5120000   -2.2900650  
O    -1.7126690   -2.1556700   -3.3087690  
C    -3.3908270   -1.3133020   -1.8022500  
O    -4.2981170   -1.7021360   -2.5144240  
C    -3.6372790   -0.5963900   -0.5221970  
H    -3.2543630    0.9742050    2.0156490  
H     0.1792430   -1.0292800   -1.8457610  
H    -0.6369930    1.4519710    2.3824980  
C    -6.3354050    2.8651830    0.2967820  
C    -5.2720100    2.0847780   -0.0270540  
C    -5.6777900    0.7050920    0.1491960  
C    -7.0903380    0.7495700    0.6024430  
N    -7.4192060    2.0890950    0.6917600  
C    -7.8669670   -0.3378680    0.8435490  
C    -7.2794240   -1.6567630    0.6554170  
O    -7.8977910   -2.6969060    0.8203890  
C    -5.7678610   -1.7393570    0.2358320  
O    -5.2277740   -2.8303180    0.2130260  
C    -5.0279490   -0.4824800   -0.0540180  
H    -4.3051980    2.4289120   -0.3608990  
H    -8.9059240   -0.2742320    1.1520210  
H    -6.4229980    3.9436070    0.2838210  
H    -8.3399730    2.4397980    0.9040730  
