66


C     0.2392940    1.2295530   -0.3502390  
C     0.2522050    2.6169620   -0.3040910  
C     1.6086660    3.0330830   -0.1338680  
C     2.4010940    1.8552950   -0.0955920  
N     1.5459550    0.7883700   -0.2267820  
C     3.8091140    1.8624540    0.0619120  
C     4.3772570    3.1299580    0.2431290  
O     5.7318500    3.2582480    0.4433800  
C     3.5982360    4.3122600    0.2128990  
O     4.3421700    5.4661670    0.3950030  
C     2.2320800    4.2878780    0.0142900  
H    -0.5946710    3.2687190   -0.4667220  
H     1.8081910   -0.1850470   -0.2109290  
H     5.9195480    4.2115450    0.5032410  
H     3.7731730    6.2395740    0.2699940  
H     1.6573160    5.2113420   -0.0075940  
C    -4.0132960    1.7267960    0.6789810  
C    -4.4748270    0.5011850    0.2398550  
C    -3.3149310   -0.2007080   -0.2667850  
C    -2.1977270    0.6539280   -0.1120130  
N    -2.6556820    1.8285270    0.4507750  
C    -0.8793210    0.2989800   -0.4890740  
C    -0.7378110   -0.9997050   -0.9936340  
O     0.5017290   -1.4731300   -1.3462320  
C    -1.8507070   -1.8591490   -1.1668600  
O    -1.5158380   -3.0896170   -1.7030860  
C    -3.1340250   -1.4781110   -0.8300490  
H    -2.0488150    2.5334850    0.8417320  
H     0.3723310   -2.3762320   -1.6864140  
H    -2.3165540   -3.6246160   -1.8067680  
H    -3.9750700   -2.1522540   -0.9667640  
H    -4.5494610    2.5223260    1.1782990  
C     4.5981690    0.6320740    0.0280280  
C     4.3232300   -0.5911940   -0.5670970  
C     5.4285720   -1.4593110   -0.3071170  
C     6.3666570   -0.7147700    0.4587640  
N     5.8333840    0.5371390    0.6559260  
C     7.5868950   -1.2526020    0.8880330  
C     7.8669870   -2.5643330    0.5391930  
O     9.0440230   -3.1386770    0.9307990  
C     6.9406620   -3.3243630   -0.2241980  
O     7.3626570   -4.6165500   -0.4890960  
C     5.7367600   -2.7932270   -0.6461710  
H     3.4668860   -0.8218690   -1.1852530  
H     6.3074530    1.3377560    1.0466720  
H     8.3059990   -0.6872870    1.4719690  
H     9.0467920   -4.0470850    0.5835140  
H     6.6986140   -5.0637190   -1.0338610  
H     5.0443330   -3.3968450   -1.2304240  
C    -6.4253020   -3.1988480    1.9346660  
C    -5.5190050   -2.2355730    1.5742320  
C    -6.2413860   -1.2171530    0.8608970  
C    -7.6014290   -1.6239450    0.8280910  
N    -7.6816600   -2.8372500    1.4830410  
C    -8.6127830   -0.8596350    0.2327940  
C    -8.2383460    0.3443700   -0.3407370  
O    -9.1749830    1.1320100   -0.9489030  
C    -6.8873890    0.7746230   -0.3137950  
O    -6.6750780    1.9906420   -0.9336020  
C    -5.8710230    0.0201310    0.2703250  
H    -4.4622590   -2.2413840    1.7993380  
H    -8.5296380   -3.3596990    1.6352760  
H    -9.6522780   -1.1704680    0.2058950  
H    -8.7016660    1.9026690   -1.3080940  
H    -5.7118220    2.1270220   -0.9917880  
H    -6.2840280   -4.1195890    2.4832410  
