60


C    -3.9499370   -2.3521300    3.8611120  
C    -4.4195660   -3.5276410    3.3370730  
C    -4.2719020   -3.4431730    1.9110740  
C    -3.6918080   -2.1791970    1.6293880  
N    -3.4918600   -1.5419320    2.8372650  
C    -3.4169010   -1.7236730    0.3221870  
C    -3.7528780   -2.5967170   -0.7138110  
O    -3.5034270   -2.2401880   -2.0101390  
C    -4.3302540   -3.8648760   -0.4489440  
O    -4.5840010   -4.6046900   -1.5909500  
C    -4.5866890   -4.2990520    0.8376080  
H    -4.8231870   -4.3583480    3.8994940  
H    -3.2141080   -0.5770760    2.9337800  
H    -3.8553250   -2.9530330   -2.5718730  
H    -5.0860240   -5.3988860   -1.3559960  
H    -5.0279310   -5.2784290    1.0114690  
H    -3.8923160   -2.0196500    4.8879750  
C    -1.6437120    0.0557010    0.6135180  
C    -2.8071300   -0.4041570    0.0753510  
C    -3.3413120    0.6899670   -0.7328930  
C    -2.3885450    1.8165330   -0.6048150  
N    -1.3622980    1.3737910    0.2321730  
C    -2.5226430    3.0055640   -1.2417380  
C    -3.6921520    3.2086090   -2.0937610  
O    -3.8881880    4.2396900   -2.7190170  
C    -4.7336580    2.0380970   -2.2135150  
O    -5.7236040    2.1935700   -2.9112970  
C    -4.4632040    0.7930690   -1.4881710  
H    -1.8166250    3.8215920   -1.1405530  
H    -5.1659410   -0.0246850   -1.6012700  
H    -0.9518150   -0.4570780    1.2691010  
C     2.9028600    0.4972920   -0.3137880  
C     1.5288580    0.4877540   -0.3685340  
C     1.0481020    1.6243610    0.3598860  
C     2.2442920    2.3287200    0.8708310  
N     3.3364670    1.5676760    0.4777460  
C     2.2224460    3.4967200    1.5580090  
C     0.9247270    4.0965850    1.8561490  
O     0.7988090    5.1622370    2.4359140  
C    -0.3750190    3.3248100    1.4190030  
O    -1.4625560    3.7550970    1.7632330  
C    -0.2144850    2.0946690    0.6227830  
H     0.9216610   -0.2684660   -0.8439690  
H     3.1162440    4.0070270    1.9026030  
H     4.2736860    1.9407610    0.4301060  
C     3.6208380   -1.1079840   -2.0904490  
C     3.8504680   -0.3951840   -0.9392610  
C     5.2122120   -0.7209240   -0.5142570  
C     5.7398470   -1.6698300   -1.5250730  
N     4.7135850   -1.8629320   -2.4399140  
C     6.9789370   -2.2151390   -1.5042480  
C     7.8764110   -1.8549560   -0.4043450  
O     9.0128590   -2.2856180   -0.3086110  
C     7.3323890   -0.8772540    0.6968840  
O     8.0526200   -0.5749170    1.6327520  
C     5.9645350   -0.3581440    0.5572530  
H     7.3396420   -2.9119200   -2.2544950  
H     5.6016870    0.2896280    1.3483880  
H     2.7345460   -1.1108640   -2.7112740  
H     4.7836900   -2.4287610   -3.2724900  
