62


C     1.3415400    0.0076340   -0.0035070  
C     1.0954650   -1.3563980    0.0376520  
C     2.2115500   -1.9884640   -0.6552090  
C     3.0731640   -0.9594450   -1.0988830  
N     2.5174040    0.2488770   -0.6771560  
C     4.2369560   -1.1777220   -1.8384730  
C     4.5470470   -2.4946080   -2.1437370  
O     5.6723260   -2.7836890   -2.8524480  
C     3.6974400   -3.5492330   -1.7170170  
O     4.1355540   -4.8029720   -2.0937490  
C     2.5460790   -3.3153140   -0.9897260  
H     4.8849990   -0.3710300   -2.1615170  
H     5.7228680   -3.7528300   -2.9277180  
H     3.6039730   -5.4782770   -1.6459400  
H     1.9345130   -4.1426980   -0.6488260  
H     0.8068120    0.8288660    0.4490130  
C    -3.1417720    0.0130840    0.2928820  
C    -1.8069970   -0.1559520   -0.0153220  
C    -1.3247600   -1.3285990    0.6492070  
C    -2.4806430   -1.8778000    1.3889030  
N    -3.5548180   -1.0493730    1.1111160  
C    -2.4592510   -2.9858530    2.1737370  
C    -1.2183490   -3.7309670    2.2559690  
O    -1.0852130   -4.7597480    2.9021010  
C     0.0253340   -3.2036140    1.4442280  
O     1.0509280   -3.8626950    1.5066400  
C    -0.0815580   -1.9421770    0.6678150  
H    -1.2567300    0.4471030   -0.7213040  
H    -3.3257330   -3.3545480    2.7136430  
H    -4.3729390   -1.0055100    1.7008700  
C    -3.7546880    2.3045960   -0.5680690  
C    -4.0511160    1.0353210   -0.1291430  
C    -5.5275780    0.9659140   -0.2066820  
C    -5.9233820    2.3079120   -0.7108770  
N    -4.8735720    3.0696780   -0.9203160  
C    -7.2949230    2.6548700   -0.9389170  
C    -8.2397630    1.7090570   -0.6996960  
O    -9.5566060    1.9022930   -0.8715250  
C    -7.8739560    0.3369820   -0.2210520  
O    -8.7806690   -0.4729830   -0.0291760  
C    -6.4498520    0.0060600    0.0060300  
H    -7.5506010    3.6445820   -1.3006350  
H    -9.9823100    1.0507560   -0.6295110  
H    -6.2323570   -1.0100290    0.3199890  
H    -2.7707520    2.7534330   -0.6365630  
C     2.8615640    2.3002590   -1.9731790  
C     3.5894800    3.4461030   -1.8249890  
C     4.2925930    3.3568260   -0.5719600  
C     3.9558920    2.1140490    0.0166830  
N     3.0725970    1.4874690   -0.8586030  
C     4.4572950    1.6837400    1.2483070  
C     5.3281950    2.5393160    1.9065270  
O     5.8529060    2.1778520    3.1114540  
C     5.6812140    3.7932170    1.3382900  
O     6.5545190    4.5290850    2.1157580  
C     5.1782330    4.2075600    0.1189170  
H     3.6246870    4.2665240   -2.5287530  
H     4.1986580    0.7268590    1.6879070  
H     6.4409950    2.8974310    3.3988490  
H     6.7796030    5.3533180    1.6596700  
H     5.4632080    5.1723720   -0.2960310  
H     2.2071640    1.9618460   -2.7631000  
