66


C     3.6606910    1.6912940   -1.5515140  
C     2.3171870    1.8237250   -1.3400550  
C     2.0461900    1.4073540    0.0107580  
C     3.2787470    1.0148590    0.5850090  
N     4.2534850    1.2051550   -0.3886880  
C     3.4076030    0.5245570    1.8868760  
C     2.2437020    0.4311720    2.6344860  
O     2.2959120   -0.0223460    3.9202070  
C     0.9923780    0.8136150    2.0895250  
O    -0.0626330    0.6798150    2.9728500  
C     0.8603930    1.3050450    0.7867570  
H     1.5932150    2.1635790   -2.0660390  
H     4.3594070    0.2274210    2.3121460  
H     1.3910810    0.0303640    4.2745900  
H    -0.8459250    1.1106210    2.5832820  
H     4.2732130    1.8889490   -2.4189230  
C     6.5303120    1.8415510    0.2569720  
C     7.7549020    1.2361790    0.2737580  
C     7.5841610   -0.1018840   -0.2284520  
C     6.2124580   -0.2646860   -0.5412430  
N     5.5880700    0.9407350   -0.2369350  
C     5.6767150   -1.4477500   -1.0581390  
C     6.5556160   -2.5002910   -1.2649920  
O     6.0946770   -3.6825510   -1.7672740  
C     7.9361570   -2.3625170   -0.9597160  
O     8.6808100   -3.4977420   -1.2223500  
C     8.4553420   -1.1871030   -0.4489640  
H     8.6790680    1.6889310    0.6063910  
H     4.6239750   -1.5622990   -1.2909480  
H     6.8555650   -4.2854190   -1.8274930  
H     9.6030130   -3.3441190   -0.9696930  
H     9.5169780   -1.1059040   -0.2232360  
H     6.2153540    2.8327470    0.5486380  
C    -0.4429990    1.7250530    0.2677690  
C    -0.7992750    2.8065710   -0.5031050  
C    -2.2218270    2.7676260   -0.6958160  
C    -2.7025630    1.6277230   -0.0111650  
N    -1.6169840    1.0324770    0.6279990  
C    -4.0490910    1.2094440   -0.0162640  
C    -4.9227200    2.0313660   -0.7374060  
O    -6.2563820    1.7321960   -0.7931910  
C    -4.4625380    3.1920340   -1.4099460  
O    -5.4663400    3.8868330   -2.0626260  
C    -3.1345030    3.5755990   -1.3991800  
H    -0.1222440    3.5761460   -0.8476980  
H    -1.6151810    0.0349150    0.8116510  
H    -6.6858970    2.4544550   -1.2841810  
H    -5.1081020    4.7157590   -2.4124610  
H    -2.8083090    4.4647920   -1.9344270  
C    -4.1004580   -0.3635820    1.9726760  
C    -4.4812710   -0.0084380    0.6931890  
C    -5.3207470   -1.0859040    0.2120810  
C    -5.4038180   -2.0502210    1.2477460  
N    -4.6541490   -1.5803090    2.3081540  
C    -6.1244510   -3.2449660    1.1207990  
C    -6.7743670   -3.4720560   -0.0811100  
O    -7.4955740   -4.6172790   -0.2625390  
C    -6.6982380   -2.5200910   -1.1325050  
O    -7.3980300   -2.8881140   -2.2684190  
C    -5.9851790   -1.3444800   -1.0031900  
H    -4.5411360   -2.0457670    3.1947940  
H    -6.1875770   -3.9823450    1.9146150  
H    -7.8701830   -4.5786250   -1.1594280  
H    -7.3273860   -2.1827040   -2.9282760  
H    -5.9587010   -0.6220360   -1.8133350  
H    -3.5037750    0.1828570    2.6891970  
