64


C    -5.0563490    0.5031190    0.1045650  
C    -4.6752970   -0.7710560    0.5017460  
C    -5.7856670   -1.6441920    0.2872360  
C    -6.8367940   -0.8513240   -0.2480870  
N    -6.3648230    0.4351720   -0.3579500  
C    -8.0916980   -1.3821980   -0.5741400  
C    -8.2898800   -2.7364140   -0.3567380  
O    -9.4949870   -3.3068540   -0.6565530  
C    -7.2497380   -3.5450170    0.1763220  
O    -7.6019330   -4.8747440    0.3330130  
C    -6.0124740   -3.0205430    0.4968950  
H    -3.7345400   -1.0443130    0.9577670  
H    -6.9044650    1.2550110   -0.5913430  
H    -8.8971010   -0.7806630   -0.9829560  
H    -9.4267070   -4.2508750   -0.4327570  
H    -6.8515840   -5.3628110    0.7025590  
H    -5.2320880   -3.6607770    0.9043690  
C    -0.6963190    1.2330860    0.0461540  
C    -0.7560810    2.6211690    0.1445850  
C    -2.1255200    2.9888680    0.1785510  
C    -2.8882650    1.7866100    0.1131150  
N    -2.0018060    0.7465810    0.0407840  
C    -4.3058950    1.7576230    0.1161570  
C    -4.9178650    3.0171100    0.1323070  
O    -6.2854810    3.1207500    0.1019380  
C    -4.1692480    4.2241520    0.1933900  
O    -4.9644100    5.3558750    0.2185450  
C    -2.7932240    4.2323840    0.2307190  
H     0.1045230    3.2697920    0.1769510  
H    -2.2342000   -0.2201500   -0.1348240  
H    -6.5004980    4.0695380    0.1463990  
H    -4.4052520    6.1427450    0.2960970  
H    -2.2392680    5.1669010    0.2803100  
C     3.5992420    2.1322680   -0.0369960  
C     4.1592780    0.8851040   -0.0625710  
C     2.9935020   -0.0308840   -0.0780760  
C     1.8137850    0.8668390   -0.0334240  
N     2.1908170    2.1190660   -0.0250700  
C     0.4438400    0.3475400   -0.0329480  
C     0.3384110   -1.0241570   -0.1192930  
O    -0.8563560   -1.6812470   -0.1278020  
C     1.4875980   -1.9271040   -0.2147870  
O     1.2818530   -3.1490850   -0.2935460  
C     2.8533850   -1.3627010   -0.2056060  
H    -0.6089640   -2.6301150   -0.2149560  
H     3.6740900   -2.0650760   -0.3160940  
H     4.1139480    3.0843070   -0.0047070  
C     5.5509670    0.5244690   -0.0963110  
C     6.6447390    1.2409330   -0.5599570  
C     7.8090630    0.4477690   -0.3508950  
C     7.3818520   -0.7667540    0.2567490  
N     6.0070240   -0.7115400    0.3667230  
C     8.2717020   -1.7798050    0.6270520  
C     9.6185610   -1.5713020    0.3697970  
O    10.5293690   -2.5238880    0.7102990  
C    10.0641380   -0.3703880   -0.2533090  
O    11.4302980   -0.3236760   -0.4452610  
C     9.1843230    0.6289980   -0.6156500  
H     6.5937750    2.2070830   -1.0431020  
H     5.4623780   -1.3183000    0.9609990  
H     7.9524710   -2.7057490    1.0940260  
H    11.4062030   -2.1956580    0.4449980  
H    11.6708910    0.5121720   -0.8716360  
H     9.5466340    1.5397370   -1.0878820  
