60


C     0.9648830    3.9511910   -0.5365630  
C     1.3547570    2.6173450   -0.3477680  
C     2.8080650    2.6369090   -0.2220200  
C     3.2162220    3.9812010   -0.3319520  
N     2.0636080    4.7447710   -0.5297660  
C     4.5517430    4.3842830   -0.2274870  
C     5.4946520    3.3905200    0.0072880  
O     6.8083390    3.7151680    0.1356740  
C     5.1064320    2.0257030    0.1246710  
O     6.1460950    1.1678350    0.3636520  
C     3.7806730    1.6463520   -0.0055590  
H     2.0486890    5.7476420   -0.6496510  
H     4.8682590    5.4190560   -0.3074080  
H     7.2827480    2.8826160    0.3160890  
H     5.8309080    0.2710470    0.6252220  
H     3.4818670    0.6118990    0.0630630  
H    -0.0229140    4.3667850   -0.6759200  
C     0.5059200    1.4821460   -0.2567040  
C    -0.8877380    1.3508220   -0.2770670  
C    -1.1614400   -0.0258450   -0.1105570  
C     0.1976670   -0.6522170    0.0105390  
N     1.1488950    0.2267530   -0.0872000  
C     0.4137490   -2.0693410    0.2069480  
C    -0.7143150   -2.8276540    0.2852920  
O    -0.7176830   -4.1387180    0.4738590  
C    -2.1253540   -2.2419700    0.1721230  
O    -3.0155080   -3.0922050    0.1941380  
C    -2.3185500   -0.7973050   -0.0073200  
H    -1.6110990    2.1476670   -0.3599180  
H    -1.6789570   -4.3840660    0.4527660  
C    -3.6521460   -0.2475320   -0.0910590  
C    -4.0649810    0.8739080   -0.7741510  
C    -5.4733860    1.0020800   -0.5110840  
C    -5.7805060   -0.1481600    0.4010810  
N    -4.7301190   -0.8749030    0.6370380  
C    -7.1081680   -0.3604980    0.9211700  
C    -8.0774470    0.5025570    0.5379060  
O    -9.3573440    0.4275240    0.9317110  
C    -7.8007290    1.6616040   -0.3942870  
O    -8.7554160    2.3896330   -0.6775320  
C    -6.4439680    1.8676230   -0.8992360  
H    -3.4786110    1.4919630   -1.4379210  
H    -7.3046240   -1.1946160    1.5854430  
H    -9.8027340    1.1846740    0.4872700  
H    -6.2805740    2.7146230   -1.5585690  
C     4.0414410   -0.8282340    2.3812350  
C     2.7570630   -1.1952870    2.1816050  
C     2.7791080   -2.0588690    1.0074260  
C     4.2235210   -2.1476380    0.6417880  
N     4.9449360   -1.3628990    1.4028380  
C     4.6819370   -2.9396830   -0.4673040  
C     3.7431460   -3.5922860   -1.1920350  
O     4.0176970   -4.4050820   -2.2200750  
C     2.2627830   -3.4153620   -0.9335760  
O     1.4936850   -3.9721470   -1.7088230  
C     1.8087840   -2.5498070    0.1942160  
H     1.8841930   -0.9112480    2.7504510  
H     5.7401530   -3.0142620   -0.6916980  
H     3.1447080   -4.6790190   -2.5801450  
H     4.4449130   -0.1862190    3.1543530  
