60


C     2.8428690   -1.1997700   -2.5949540  
C     2.8989240   -0.7275420   -1.2981420  
C     3.8001060   -1.6060880   -0.5810500  
C     4.2494810   -2.5810850   -1.5062370  
N     3.6454710   -2.3077400   -2.7201410  
C     5.1285890   -3.6133520   -1.1572380  
C     5.5617940   -3.6660680    0.1578250  
O     6.4235210   -4.6445000    0.5508460  
C     5.1091000   -2.7086310    1.1062560  
O     5.6154260   -2.9043310    2.3741250  
C     4.2364730   -1.6948580    0.7574520  
H     3.8165220   -2.8061200   -3.5798050  
H     5.4744900   -4.3578580   -1.8668200  
H     6.6123830   -4.5031660    1.4948950  
H     5.3429710   -2.1772080    2.9535410  
H     3.8959000   -0.9856110    1.5074110  
H     2.3127650   -0.7983160   -3.4471980  
C     0.8445220    0.7025080   -1.0449510  
C     2.1522650    0.4199290   -0.7939420  
C     2.6599510    1.5264240    0.0129240  
C     1.5369110    2.4744840    0.2010560  
N     0.4411680    1.9357780   -0.5041420  
C     1.6139110    3.5814690    0.9744110  
C     2.8944020    3.9068790    1.6114690  
O     3.0379200    4.8833490    2.3284280  
C     4.1148140    2.9602140    1.3520500  
O     5.1949870    3.2270320    1.8533770  
C     3.8917860    1.7680640    0.5293210  
H     0.7938810    4.2700030    1.1299180  
H     4.7276980    1.0943720    0.3752880  
H     0.1289040    0.1259060   -1.6130090  
C    -3.5363290    0.0088870   -0.0817010  
C    -2.1733950    0.1877150   -0.1073250  
C    -1.9692700    1.5788350   -0.4383640  
C    -3.3412710    2.1155440   -0.6124730  
N    -4.2510240    1.2069170   -0.3971230  
C    -3.5920880    3.4937370   -0.9530180  
C    -2.5273750    4.3147730   -1.0894210  
O    -2.6176950    5.6218400   -1.3884140  
C    -1.1180880    3.8242190   -0.9269790  
O    -0.2101500    4.6185320   -1.1563670  
C    -0.8759610    2.3955140   -0.5523210  
H    -1.4197720   -0.5371610    0.1635880  
H    -4.6108130    3.8434150   -1.0756140  
H    -1.6949180    5.9453440   -1.4683230  
C    -2.8800280   -4.3314360   -0.9102330  
C    -2.7066100   -2.9837290   -0.8835210  
C    -3.8410900   -2.4679390   -0.1379530  
C    -4.6297670   -3.6949790    0.2026270  
N    -4.0582810   -4.7781220   -0.2484570  
C    -5.8710460   -3.6249560    0.9220910  
C    -6.3161960   -2.4006600    1.2883550  
O    -7.4515860   -2.1878910    1.9685820  
C    -5.5383150   -1.1400360    0.9966500  
O    -5.9831970   -0.1005010    1.4677080  
C    -4.2595180   -1.2161670    0.2175160  
H    -1.9110650   -2.4099940   -1.3345970  
H    -6.4174590   -4.5323790    1.1539700  
H    -7.4848590   -1.2176210    2.1245830  
H    -2.2390940   -5.0710830   -1.3761440  
