60


C     5.4752680    3.4456300   -1.6112150  
C     6.7504810    3.0080590   -1.8505810  
C     6.8662560    1.7017170   -1.2651200  
C     5.6090130    1.3936640   -0.6839370  
N     4.7771960    2.4696300   -0.9199190  
C     5.3582240    0.1954410    0.0217720  
C     6.4262590   -0.7014350    0.1153360  
O     6.2419650   -1.8995370    0.7329570  
C     7.6840790   -0.4104830   -0.4703340  
O     8.6185170   -1.4146490   -0.2994340  
C     7.9150420    0.7681420   -1.1537220  
H     7.5208810    3.5515820   -2.3799560  
H     3.8505740    2.5765410   -0.5378280  
H     7.1107650   -2.3351820    0.7853390  
H     9.4900640   -1.0971050   -0.5781110  
H     8.8897480    0.9670920   -1.5945890  
H     4.9924690    4.3740940   -1.8814460  
C     1.2613290   -0.1450570   -1.6085840  
C     2.5906630    0.0211610   -1.4325180  
C     2.8760110   -0.1318950   -0.0202180  
C     1.5802430   -0.4070260    0.6368310  
N     0.6011420   -0.3679290   -0.3832030  
C     1.4470190   -0.7459970    1.9400930  
C     2.6495930   -0.7752970    2.7710230  
O     2.6311890   -1.1185280    3.9417710  
C     4.0109970   -0.3380700    2.1314760  
O     4.9697500   -0.1744140    2.8602090  
C     4.0627440   -0.1022440    0.6601010  
H     3.3135760    0.2383760   -2.2047160  
H     0.5046720   -0.9919500    2.4117480  
H     0.6709880   -0.0902280   -2.5118940  
C    -2.2250850   -2.7922820   -2.7567190  
C    -1.0627310   -2.2578110   -2.3033080  
C    -1.4447030   -1.3975200   -1.1904770  
C    -2.9131410   -1.5343700   -1.1204750  
N    -3.3650730   -2.3513000   -2.0336120  
C    -3.7128200   -0.8340120   -0.1216880  
C    -3.0378030   -0.0879510    0.8023880  
O    -3.6397290    0.5567390    1.8213370  
C    -1.5675050    0.0933860    0.7511120  
O    -1.0569500    0.8525510    1.5743620  
C    -0.7632570   -0.6291810   -0.2931670  
H    -0.0620620   -2.4511620   -2.6624590  
H    -2.9244790    1.0504930    2.2791410  
H    -2.3646360   -3.4971040   -3.5668100  
C    -5.8024410   -2.1577760   -0.3551090  
C    -7.1423910   -1.9688880   -0.3259470  
C    -7.3852850   -0.5594280   -0.1210760  
C    -6.0507240    0.0801820   -0.0226910  
N    -5.1088660   -0.9512040   -0.1464250  
C    -5.8623840    1.4169770    0.0916250  
C    -7.0408780    2.2833200    0.1745430  
O    -6.9557070    3.4967260    0.2782640  
C    -8.4615180    1.6188560    0.1232980  
O    -9.4521290    2.3272880    0.2095040  
C    -8.5312200    0.1663920   -0.0446860  
H    -7.8950360   -2.7353270   -0.4424430  
H    -4.8895760    1.8869530    0.1407880  
H    -9.5149110   -0.2864910   -0.1228220  
H    -5.2350930   -3.0616060   -0.5117340  
