62


C    -3.5943510   -0.1289810   -0.0680520  
C    -2.2968190    0.3574730   -0.1343710  
C    -2.3388970    1.7740760    0.0159580  
C    -3.7043880    2.1204300    0.1602450  
N    -4.4449810    0.9510830    0.1540660  
C    -4.1589120    3.4348720    0.2880930  
C    -3.2098420    4.4453890    0.2719850  
O    -3.5969840    5.7447080    0.3851030  
C    -1.8277890    4.1565500    0.1455760  
O    -1.0487040    5.2594190    0.1592650  
C    -1.3453720    2.8182330    0.0270820  
H    -1.4411250   -0.2764000   -0.2817410  
H    -5.4311570    0.9184170   -0.0656530  
H    -5.2096090    3.6865010    0.3937010  
H    -2.7802580    6.2768560    0.3512160  
H    -0.0929180    4.9538130    0.0427080  
C     0.0610650    2.5644120   -0.0789920  
C     0.7839600    1.3781460   -0.1418500  
C     2.1529790    1.7286810   -0.2431870  
C     2.1595530    3.2211080   -0.2214330  
N     0.9461180    3.6932990   -0.1309940  
C     3.3647080    3.9936240   -0.2790460  
C     4.5243700    3.2989280   -0.3289220  
O     5.7329120    3.8615100   -0.3686570  
C     4.5724110    1.7766670   -0.3472050  
O     5.7129640    1.3010160   -0.4033920  
C     3.3336920    0.9937850   -0.3223510  
H     0.3952560    0.3783340   -0.0763380  
H     3.3351880    5.0772040   -0.2683300  
H     6.3612080    3.1008660   -0.4090600  
C     2.4016990   -1.2317150   -1.0494370  
C     3.3627210   -0.4512780   -0.4520960  
C     4.3521820   -1.4450580    0.0477370  
C     3.7806680   -2.7585190   -0.3580460  
N     2.6532300   -2.6140240   -1.0087020  
C     4.4254070   -4.0045940   -0.0498340  
C     5.5804080   -3.9643030    0.6582640  
O     6.2852450   -5.0480330    1.0240330  
C     6.1729520   -2.6622310    1.1045120  
O     7.2197420   -2.6986530    1.7514180  
C     5.4970510   -1.3929220    0.7555300  
H     3.9772720   -4.9375730   -0.3733120  
H     7.0573210   -4.6973670    1.5206560  
H     5.9827910   -0.4779910    1.0689240  
H     1.5168210   -0.8837260   -1.5665520  
C    -7.2150930   -1.9562490    1.6990820  
C    -7.0934300   -3.1883660    1.1184760  
C    -5.8927880   -3.1687380    0.3285740  
C    -5.3304340   -1.8760420    0.4581080  
N    -6.1745800   -1.1406170    1.2776380  
C    -4.1175670   -1.4859710   -0.1627150  
C    -3.4618660   -2.4880940   -0.8930190  
O    -2.2730970   -2.2216970   -1.5056130  
C    -4.0205440   -3.7831160   -1.0329890  
O    -3.2523130   -4.6295020   -1.8093020  
C    -5.2237490   -4.1323760   -0.4505990  
H    -7.7771010   -4.0180770    1.2349010  
H    -5.8859030   -0.2992190    1.7557330  
H    -1.9970120   -3.0361650   -1.9626480  
H    -3.6716590   -5.5011370   -1.8553870  
H    -5.6299410   -5.1336170   -0.5770430  
H    -7.9697180   -1.5719800    2.3708750  
