62


C    -4.7075290   -0.1786880    0.2039120  
C    -5.4303670   -1.2547610    0.7399020  
C    -6.7788520   -1.1117220    0.3489440  
C    -6.8588320    0.0766530   -0.4423700  
N    -5.6050450    0.6109790   -0.5103660  
C    -8.0611430    0.5255460   -1.0051170  
C    -9.1943280   -0.2332750   -0.7688350  
O   -10.3876540    0.1500970   -1.2886350  
C    -9.1332650   -1.4271580    0.0202870  
O   -10.3540360   -2.0530540    0.1513360  
C    -7.9547830   -1.8694280    0.5734730  
H    -5.0150160   -2.0733970    1.3055250  
H    -5.2928940    1.4057020   -1.0538180  
H    -8.1307360    1.4255570   -1.6062910  
H   -11.0531260   -0.5050920   -1.0135290  
H   -10.2585210   -2.8498050    0.6942780  
H    -7.9276380   -2.7781990    1.1706150  
C    -1.2129650   -1.7810100    2.5095380  
C    -2.4907790   -1.5061530    2.1425120  
C    -2.3933030   -0.4708350    1.1266350  
C    -0.9462000   -0.1943990    1.0318790  
N    -0.2628130   -0.9940570    1.8214060  
C    -0.3769400    0.8373910    0.1663830  
C    -1.2713970    1.4262730   -0.6881230  
O    -0.9176450    2.3166880   -1.6337850  
C    -2.7295060    1.1705310   -0.6366300  
O    -3.4331120    1.8435540   -1.4073140  
C    -3.3051820    0.1331250    0.2898410  
H    -3.3896370   -1.9346060    2.5578040  
H    -1.7601750    2.6111230   -2.0400910  
H    -0.8661240   -2.4951060    3.2465980  
C     3.4029880   -1.4990400    0.2514750  
C     4.3010950   -0.4534170    0.0798150  
C     3.4937140    0.7560720    0.0897740  
C     2.1422750    0.3513070    0.2200310  
N     2.1225640   -1.0288690    0.3064460  
C     1.0429700    1.2464510    0.2028970  
C     1.3893330    2.6094460    0.1840770  
O     0.4383310    3.5672430    0.3281860  
C     2.7383270    3.0239120    0.0558710  
O     2.8938530    4.3995700    0.0220670  
C     3.7828150    2.1282630   -0.0234480  
H     1.3432600   -1.4840940    0.7841650  
H     0.9001400    4.4245430    0.2976630  
H     3.8250230    4.6185280    0.1760750  
H     4.8053700    2.4787220   -0.1025340  
H     3.6099860   -2.5499840    0.3948810  
C     6.6858540   -3.5382900   -2.0345600  
C     5.6853350   -2.7406800   -1.5835650  
C     6.2850880   -1.6991860   -0.7695420  
C     7.7401340   -1.9526630   -0.7982040  
N     7.9159850   -3.0941150   -1.5513810  
C     8.6924650   -1.1824130   -0.1977640  
C     8.2536300   -0.0067490    0.5148320  
O     9.0058710    0.7877790    1.0652230  
C     6.7035000    0.2886750    0.5806950  
O     6.3515050    1.2845170    1.1903240  
C     5.7380940   -0.6390250   -0.0773490  
H     4.6364560   -2.8430850   -1.8143160  
H     9.7543000   -1.4032480   -0.2427810  
H     6.6407710   -4.4063460   -2.6783770  
H     8.8133480   -3.4784390   -1.8014110  
