62


C     4.6955340    0.0671760   -0.1227710  
C     6.0503060   -0.2691240   -0.1734900  
C     6.1362050   -1.6791600   -0.2288320  
C     4.7949810   -2.1843620   -0.2123430  
N     3.9550530   -1.1094420   -0.1402890  
C     4.5071480   -3.5545740   -0.2621560  
C     5.5795960   -4.4271800   -0.3265230  
O     5.3621470   -5.7650070   -0.3767540  
C     6.9270880   -3.9416290   -0.3403330  
O     7.8643390   -4.9485720   -0.4051200  
C     7.2130490   -2.5973130   -0.2922270  
H     6.8708040    0.4351770   -0.1658220  
H     2.9445180   -1.1043880   -0.1524740  
H     3.4952740   -3.9449320   -0.2531410  
H     6.2298120   -6.2044450   -0.4209080  
H     8.7558720   -4.5694460   -0.4221410  
H     8.2429130   -2.2477420   -0.3046240  
C     4.0239120    1.3202930   -0.0636340  
C     4.5089060    2.6094740   -0.0739890  
C     3.3653310    3.4586960    0.0029050  
C     2.1907390    2.5139320    0.0406150  
N     2.5893190    1.2705260    0.0161760  
C     0.8187680    2.9760280    0.1041230  
C     0.6734220    4.3331050    0.2113600  
O    -0.4949780    4.9468050    0.3635140  
C     1.8396260    5.3115760    0.1820080  
O     1.5365020    6.5067540    0.2764560  
C     3.1886900    4.8093970    0.0607030  
H     5.5413210    2.9244070   -0.1302730  
H    -0.2638260    5.9084700    0.3965420  
H     4.0013790    5.5278950    0.0397790  
C    -0.1633210   -0.6350780    2.4860990  
C    -1.4126250   -0.8706500    1.9691810  
C    -1.6348510    0.1097000    0.9463210  
C    -0.4808840    0.9333750    0.9095270  
N     0.3892080    0.4695440    1.8743220  
C    -0.3422300    2.0565280    0.0648910  
C    -1.4047450    2.2832590   -0.8177830  
O    -1.3199010    3.2782560   -1.7416820  
C    -2.5718030    1.4830680   -0.7987650  
O    -3.4988060    1.8589210   -1.7456280  
C    -2.7277510    0.3992180    0.0795000  
H    -2.1005450   -1.6326460    2.3034980  
H     1.3753250    0.6932020    1.8551600  
H    -2.1468120    3.2606100   -2.2552110  
H    -4.2112890    1.1928800   -1.7886310  
H     0.3776530   -1.1620410    3.2596560  
C    -3.9281740   -0.4166560    0.0582270  
C    -4.1011780   -1.7568710    0.2781490  
C    -5.4922070   -2.0827970    0.1129630  
C    -6.1707070   -0.8115200   -0.2202760  
N    -5.1730400    0.1702900   -0.3277140  
C    -7.5053780   -0.6764340   -0.3830880  
C    -8.3443420   -1.8734340   -0.2623250  
O    -9.5567570   -1.8421840   -0.3978840  
C    -7.6385700   -3.2457800    0.0343210  
O    -8.3267840   -4.2531100    0.1199620  
C    -6.1893550   -3.2501360    0.2097710  
H    -3.3079030   -2.4635120    0.4727880  
H    -7.9899280    0.2665450   -0.6184390  
H    -5.7126860   -4.1983820    0.4388500  
H    -5.3828440    1.1042720    0.0122320  
