60


C    -3.6756920    1.5528090    2.4868110  
C    -2.4345940    1.3580030    1.9370230  
C    -2.2853930    2.3063540    0.8693940  
C    -3.4807810    3.0742940    0.8404100  
N    -4.3065650    2.5908520    1.8326150  
C    -3.6921240    4.1345860   -0.0472240  
C    -2.6564910    4.4479160   -0.9119970  
O    -2.7854730    5.4801500   -1.7908960  
C    -1.4455600    3.7084470   -0.9050370  
O    -0.5339490    4.1214170   -1.8563560  
C    -1.2451410    2.6108620   -0.0545120  
H    -1.7159760    0.6173960    2.2536810  
H    -5.2518730    2.8963560    2.0028030  
H    -4.6091160    4.7146900   -0.0656920  
H    -1.9405270    5.5166110   -2.2778220  
H     0.3375460    4.2197570   -1.4190940  
H    -4.1698780    1.0326860    3.2946860  
C    -0.6992070   -1.7435980   -0.4853280  
C     0.6698030   -1.8388390   -0.5938300  
C     1.1629220   -0.4973900   -0.4832260  
C    -0.0612260    0.3434360   -0.3006790  
N    -1.1327670   -0.3900110   -0.3070290  
C    -0.0137730    1.8027840   -0.1565740  
C     1.2401490    2.3302340   -0.2188820  
O     1.4876840    3.6665890   -0.1360800  
C     2.4907770    1.5384110   -0.3997750  
O     3.5506170    2.1666430   -0.4728440  
C     2.4071060    0.0667040   -0.5067860  
H     1.2653650   -2.7358100   -0.6893200  
H     2.4674320    3.7457580   -0.2194430  
C     3.6901450   -1.5940010   -1.8208640  
C     4.9057710   -2.1895410   -1.8319970  
C     5.6635290   -1.6541360   -0.7216730  
C     4.7779610   -0.6718460   -0.0501620  
N     3.5767370   -0.6618280   -0.7769590  
C     5.1130840   -0.0029830    1.0780200  
C     6.4433310   -0.2226470    1.6509730  
O     6.8231280    0.3412320    2.6645390  
C     7.4095200   -1.2282150    0.9301630  
O     8.5247140   -1.4149400    1.3899240  
C     6.9158270   -1.9156770   -0.2651900  
H     5.2541750   -2.9177290   -2.5503630  
H     4.4627500    0.7066290    1.5742170  
H     7.5746600   -2.6339480   -0.7436460  
H     2.8543730   -1.7168350   -2.4957550  
C    -1.4920050   -4.0975200   -0.8364630  
C    -1.6996300   -2.7757100   -0.5132460  
C    -3.1295910   -2.6550160   -0.1923100  
C    -3.7053930   -4.0098230   -0.3567760  
N    -2.6541590   -4.8251750   -0.7513510  
C    -5.0039000   -4.3398960   -0.1503080  
C    -5.9195510   -3.2858730    0.2820910  
O    -7.1071840   -3.4784070    0.4887970  
C    -5.3272210   -1.8461190    0.4953220  
O    -6.0617960   -0.9624330    0.9058720  
C    -3.9029370   -1.6147830    0.2074260  
H    -5.3967430   -5.3430000   -0.2850220  
H    -3.5048930   -0.6160700    0.3415180  
H    -0.5731690   -4.5829530   -1.1378670  
H    -2.7370850   -5.8097770   -0.9562260  
