62


C     2.5991940   -2.2503220    0.0300690  
C     3.5463820   -1.3281780   -0.3493980  
C     2.8248190   -0.0954100   -0.5829760  
C     1.4521520   -0.3562760   -0.3433480  
N     1.3353940   -1.6907940   -0.0080760  
C     0.4386360    0.6184890   -0.5085120  
C     0.8874340    1.9074990   -0.8354790  
O     0.0079110    2.9454730   -0.9029690  
C     2.2574060    2.1722990   -1.0849940  
O     2.5149700    3.4915760   -1.4243300  
C     3.2232990    1.1910690   -0.9897710  
H     0.5598060   -1.9965590    0.5718720  
H     0.5101330    3.7204440   -1.2101070  
H     3.4434520    3.5767300   -1.6860680  
H     4.2666820    1.4118720   -1.2027680  
H     2.7357390   -3.2779380    0.3379330  
C    -1.9718830   -1.5882960    2.5006770  
C    -3.2340530   -1.3170630    2.1035510  
C    -3.0919780   -0.5356020    0.8820350  
C    -1.6081550   -0.3942290    0.7009170  
N    -0.9709180   -1.0394150    1.6401380  
C    -1.0123160    0.3391190   -0.4063430  
C    -1.9027360    0.7535360   -1.3598800  
O    -1.5442790    1.3534430   -2.5020390  
C    -3.3900590    0.6115050   -1.2217330  
O    -4.0859950    1.1074480   -2.1056030  
C    -3.9744810   -0.0929150   -0.0440870  
H    -4.1619650   -1.6015470    2.5757640  
H    -2.3897480    1.5746550   -2.9524070  
H    -1.6491330   -2.1550000    3.3658880  
C    -6.8725550    1.2084280    3.0076710  
C    -8.0516180    0.8267710    2.4672790  
C    -7.7006360    0.1840770    1.2045760  
C    -6.2039890    0.2780540    1.1519820  
N    -5.7309710    0.8753950    2.2044430  
C    -5.4405550   -0.2418460    0.0271220  
C    -6.1591200   -0.8441810   -0.9627440  
O    -5.6062980   -1.4236240   -2.0337080  
C    -7.6623610   -0.9528800   -0.9273100  
O    -8.2084340   -1.5165560   -1.8731510  
C    -8.4061130   -0.3964950    0.2153980  
H    -9.0478510    0.9604940    2.8651340  
H    -6.3594480   -1.7531570   -2.5737930  
H    -9.4877410   -0.4891430    0.1989060  
H    -6.7024430    1.7215490    3.9464940  
C     5.5756700   -2.5898100   -1.2009790  
C     4.9842750   -1.5616940   -0.5022380  
C     6.0683350   -0.7861570    0.0618810  
C     7.2838470   -1.3994040   -0.3375250  
N     6.9525640   -2.5007740   -1.1004780  
C     8.5394290   -0.9106340    0.0463310  
C     8.5687360    0.2142870    0.8560670  
O     9.7670760    0.7330400    1.2613870  
C     7.3624550    0.8324590    1.2773310  
O     7.5530140    1.9406340    2.0871330  
C     6.1248630    0.3486850    0.8955790  
H     7.6100310   -3.1209320   -1.5455630  
H     9.4715000   -1.3781230   -0.2553360  
H     9.5666550    1.4874910    1.8417060  
H     6.6970390    2.2294620    2.4364600  
H     5.2120880    0.8319780    1.2367360  
H     5.1130570   -3.3739320   -1.7836980  
