62


C     4.6020610   -0.1449780    0.1820770  
C     4.0128900    0.9521990    0.7643470  
C     4.8177670    2.1033180    0.4654360  
C     5.9078930    1.6547150   -0.3172660  
N     5.8076110    0.2667110   -0.4326480  
C     6.8839540    2.5179250   -0.8201040  
C     6.7637170    3.8668220   -0.5133520  
O     7.6875800    4.7525760   -0.9804100  
C     5.6897440    4.3324310    0.2909140  
O     5.7152790    5.6936470    0.5166500  
C     4.7241030    3.4724950    0.7826510  
H     3.1347680    0.9255350    1.3948150  
H     6.1406260   -0.2089130   -1.2637390  
H     7.7197530    2.1788200   -1.4234830  
H     7.4395900    5.6330530   -0.6489330  
H     4.9770550    5.9434520    1.0919210  
H     3.9077730    3.8519460    1.3937790  
C     0.6176610   -2.2424230   -0.0032010  
C     1.6408090   -1.2896460   -0.0015940  
C     2.8644990   -1.9782840    0.1560650  
C     2.5520690   -3.3749950    0.2363930  
N     1.1948040   -3.4955150    0.1445380  
C     3.5330660   -4.3644030    0.3641040  
C     4.8506600   -3.9404120    0.4128880  
O     5.8485550   -4.8487980    0.5520160  
C     5.1911480   -2.5565460    0.3352600  
O     6.5459800   -2.3270270    0.4233600  
C     4.2293250   -1.5576640    0.2117620  
H     1.5047840   -0.2245270   -0.1175830  
H     0.6348640   -4.3366390    0.1708040  
H     3.3015380   -5.4218720    0.4276140  
H     6.6854220   -4.3528850    0.6060370  
H     6.7005950   -1.3683290    0.5248080  
C    -0.7949690   -2.1315880   -0.1250850  
C    -1.6039310   -1.0233420   -0.2855750  
C    -2.9407150   -1.5193160   -0.3348230  
C    -2.7891860   -3.0038790   -0.1828210  
N    -1.5386680   -3.3557000   -0.0682490  
C    -3.9226500   -3.8871300   -0.1588210  
C    -5.1454910   -3.3208320   -0.2682250  
O    -6.2953820   -4.0027490   -0.2491520  
C    -5.3412470   -1.8243120   -0.4377050  
O    -6.5138840   -1.4536410   -0.5591280  
C    -4.1809980   -0.9278900   -0.4688690  
H    -1.2901870    0.0092950   -0.3288060  
H    -3.7853410   -4.9564960   -0.0455100  
H    -6.9953370   -3.3178130   -0.3661280  
C    -3.5918230    1.2452370   -1.5700520  
C    -4.3663980    0.5026030   -0.7210100  
C    -5.3324100    1.4384030   -0.1324520  
C    -5.0361400    2.7689410   -0.7214490  
N    -3.9701730    2.5770710   -1.5791320  
C    -5.7052750    3.9148590   -0.4363520  
C    -6.7897040    3.8597300    0.5369020  
O    -7.4489870    4.8357500    0.8618950  
C    -7.1053360    2.4705260    1.1990590  
O    -7.9933120    2.4010210    2.0335110  
C    -6.3174430    1.3001110    0.7903260  
H    -5.4661220    4.8725340   -0.8887270  
H    -6.5757230    0.3475690    1.2363340  
H    -2.7817390    0.9077790   -2.2024100  
H    -3.5798640    3.2872440   -2.1788590  
