66


C    -5.6068590    0.8526590    2.5217630  
C    -4.8397960    0.2600730    1.5465870  
C    -5.6958820   -0.6258680    0.8001500  
C    -6.9852500   -0.5218120    1.3797540  
N    -6.8975410    0.3736540    2.4285720  
C    -8.0835860   -1.2513830    0.9059150  
C    -7.8719020   -2.0988230   -0.1696800  
O    -8.9079140   -2.8288730   -0.6751890  
C    -6.5825930   -2.2175900   -0.7571870  
O    -6.5333810   -3.1065030   -1.8140780  
C    -5.4999880   -1.4991860   -0.2880110  
H    -7.6626630    0.6508640    3.0228350  
H    -9.0745170   -1.1741950    1.3416630  
H    -8.5589070   -3.3397950   -1.4259320  
H    -5.6531910   -3.0790160   -2.2176950  
H    -4.5212090   -1.6014270   -0.7500560  
H    -5.3270020    1.5797790    3.2700320  
C    -2.4701590    0.2206710    2.3108920  
C    -1.2379890    0.5352800    1.8052710  
C    -1.4409540    0.9909220    0.4594080  
C    -2.8368520    0.9365940    0.2081170  
N    -3.4553370    0.4573010    1.3574270  
C    -3.4079270    1.3456910   -1.0042670  
C    -2.5462950    1.7978290   -1.9906480  
O    -3.0406100    2.1913810   -3.2029750  
C    -1.1468960    1.8551550   -1.7633580  
O    -0.4213550    2.3116540   -2.8451720  
C    -0.5681470    1.4675130   -0.5530040  
H    -0.2925210    0.4421390    2.3199130  
H    -4.4759860    1.3157860   -1.1875270  
H    -2.2774540    2.4490290   -3.7488100  
H     0.5256840    2.2178760   -2.6416190  
H    -2.7541530   -0.1767570    3.2749160  
C     2.6268590   -1.6354430    0.1679460  
C     1.4348760   -0.9997270   -0.0518030  
C     1.7154510    0.4056560   -0.1338720  
C     3.1142380    0.5624550    0.0419250  
N     3.6606630   -0.7024560    0.2288460  
C     3.7526270    1.8070740   -0.0117540  
C     2.9560990    2.9183510   -0.2310950  
O     3.5159770    4.1636640   -0.2740440  
C     1.5537850    2.7855700   -0.4066290  
O     0.8955880    3.9840600   -0.5991870  
C     0.9079510    1.5487980   -0.3685230  
H     0.4640240   -1.4689240   -0.1214850  
H     4.8201670    1.9234670    0.1314240  
H     2.7859080    4.7981940   -0.3803040  
H    -0.0620320    3.8221010   -0.5355630  
H     2.8458230   -2.6820540    0.3274760  
C     6.1771450   -3.0945270   -2.3921040  
C     7.3325480   -3.0057310   -1.6595900  
C     7.0422640   -2.2014270   -0.5054970  
C     5.6765410   -1.8322970   -0.6003300  
N     5.1723640   -2.3894010   -1.7545070  
C     5.0352400   -1.0290790    0.3607670  
C     5.7988170   -0.5910120    1.4408740  
O     5.2314820    0.1787200    2.4106690  
C     7.1718320   -0.9422820    1.5347100  
O     7.7917050   -0.4236830    2.6568830  
C     7.7956210   -1.7366020    0.5914180  
H     8.2810700   -3.4594250   -1.9120020  
H     4.2262890   -2.2706040   -2.0830740  
H     5.9295800    0.3818520    3.0575420  
H     8.7147860   -0.7155660    2.6800710  
H     8.8489380   -1.9890750    0.6950250  
H     5.9794690   -3.6063430   -3.3233160  
