62


C    -4.0197610    3.2059290    0.8638260  
C    -3.1852080    2.1151200    0.7797560  
C    -3.9883850    0.9689540    0.4479290  
C    -5.3224370    1.4306390    0.3481710  
N    -5.3090920    2.7928290    0.5981900  
C    -6.3869720    0.5733600    0.0361860  
C    -6.0841370   -0.7631410   -0.1742200  
O    -7.0751330   -1.6507620   -0.4764620  
C    -4.7439860   -1.2390880   -0.0845110  
O    -4.6145720   -2.5830060   -0.3300510  
C    -3.6969240   -0.3914350    0.2209920  
H    -6.1154160    3.3967360    0.5758910  
H    -7.4149720    0.9122130   -0.0437140  
H    -6.6422780   -2.5172850   -0.5811390  
H    -3.6845110   -2.8610820   -0.2204470  
H    -2.6799930   -0.7700530    0.2639410  
H    -3.7941540    4.2349950    1.1022990  
C    -1.1486670    1.2567800    1.8782170  
C     0.2086640    1.2891790    1.6730900  
C     0.4503270    2.1773290    0.5729310  
C    -0.8150470    2.6783840    0.1700460  
N    -1.7863260    2.0924650    0.9807610  
C    -0.9657140    3.6175980   -0.8517910  
C     0.1961130    4.0814780   -1.4529570  
O     0.1298150    5.0245380   -2.4308280  
C     1.4775970    3.5836890   -1.0876440  
O     2.5078890    4.1188610   -1.8188530  
C     1.6298520    2.5890630   -0.1174980  
H     0.9450920    0.7652820    2.2652030  
H    -1.9332080    3.9963940   -1.1608650  
H     1.0561240    5.2127750   -2.6768670  
H     3.2804870    4.2124560   -1.2104030  
H    -1.7328490    0.7106300    2.6046530  
C     2.4989350   -1.6929670    0.0619100  
C     3.8307610   -1.6396990    0.4330640  
C     4.2159510   -0.2601510    0.5051460  
C     3.0054250    0.5260130    0.1697160  
N     2.0252800   -0.3901270   -0.1021330  
C     2.9165280    1.9013300    0.1411810  
C     4.1863810    2.6007570    0.3191150  
O     4.3422190    3.8042260    0.1004180  
C     5.4602480    1.8041780    0.7881420  
O     6.4607470    2.4372610    1.0888950  
C     5.3956970    0.3490260    0.8197610  
H     4.4640170   -2.4744590    0.6862700  
H     6.2886580   -0.1960690    1.1087250  
H     1.0409250   -0.1874830   -0.2350890  
C     3.2621880   -6.0463920   -0.6030320  
C     3.4010400   -4.6938740   -0.4817020  
C     2.0884690   -4.1359880   -0.2937240  
C     1.1570690   -5.2813330   -0.3300880  
N     1.9329700   -6.4108560   -0.4903170  
C    -0.1994720   -5.2021640   -0.2221280  
C    -0.7909210   -3.8916420   -0.1094170  
O    -2.0034870   -3.7086370   -0.0237330  
C     0.1551860   -2.6478280   -0.1203650  
O    -0.3804140   -1.5432670   -0.1480030  
C     1.6240330   -2.8381200   -0.1178420  
H     4.3292830   -4.1535920   -0.5675870  
H    -0.8512590   -6.0697640   -0.2316350  
H     4.0200780   -6.7997920   -0.7705630  
H     1.5706590   -7.3456670   -0.5988080  
