62


C     4.2205160   -0.4072030    0.1363860  
C     4.4778340   -1.6287010    0.7234490  
C     5.8942020   -1.8353700    0.6974400  
C     6.4680740   -0.6933460    0.0784020  
N     5.4351560    0.1720550   -0.2273240  
C     7.8458470   -0.5558620   -0.1268370  
C     8.6626910   -1.5889030    0.3063840  
O    10.0132260   -1.5087430    0.1280910  
C     8.1082630   -2.7341170    0.9395500  
O     9.0517160   -3.6707920    1.3189680  
C     6.7475150   -2.8668140    1.1406700  
H     3.7344310   -2.2787810    1.1649680  
H     5.5174980    0.9684870   -0.8409900  
H     8.2880960    0.3141760   -0.6013010  
H    10.4011380   -2.3192980    0.5004830  
H     8.6096120   -4.4206680    1.7434660  
H     6.3467030   -3.7543950    1.6264510  
C     1.7721990   -0.3426510   -0.4279030  
C     2.9547450    0.2607070   -0.1160820  
C     2.6800780    1.6939400   -0.0578060  
C     1.2398570    1.8579420   -0.3782580  
N     0.7276110    0.5807960   -0.5617800  
C     0.6074820    3.0593400   -0.4618230  
C     1.3733430    4.2724030   -0.1921550  
O     0.8881910    5.3927200   -0.2480190  
C     2.8865070    4.1177860    0.1984470  
O     3.5386380    5.1163130    0.4586840  
C     3.4599940    2.7680910    0.2317640  
H    -0.4360550    3.1624700   -0.7379640  
H     4.5062420    2.6774600    0.5054930  
H     1.5687930   -1.3913430   -0.5877490  
C    -3.0198030    1.4880910    1.5190300  
C    -3.8698700    0.8462610    0.6459230  
C    -3.0350050    0.2842220   -0.3942560  
C    -1.6968740    0.6296510   -0.0809710  
N    -1.7158520    1.3544240    1.0905620  
C    -0.6119150    0.2482740   -0.8944920  
C    -0.8962260   -0.5000380   -2.0359680  
O     0.1187020   -0.9050230   -2.8485060  
C    -2.2336520   -0.8528050   -2.3503140  
O    -2.3414790   -1.5896520   -3.5106910  
C    -3.2974580   -0.4657730   -1.5577090  
H    -0.9114590    1.7846060    1.5205520  
H    -0.2823630   -1.4095170   -3.5786340  
H    -3.2661820   -1.8371800   -3.6603720  
H    -4.3130510   -0.7440220   -1.8257500  
H    -3.2469540    2.0132560    2.4358600  
C    -6.1669650    1.8401620    0.9900690  
C    -5.3281150    0.7896200    0.7565790  
C    -6.1770420   -0.3972520    0.6788890  
C    -7.5733940    0.0663530    0.8809730  
N    -7.4928820    1.4282150    1.0870690  
C    -8.6630700   -0.7432770    0.8603500  
C    -8.4632870   -2.1717610    0.6375610  
O    -9.3814000   -2.9765790    0.5954490  
C    -6.9902570   -2.6898770    0.4472060  
O    -6.8009930   -3.8815960    0.2593120  
C    -5.8967930   -1.7140400    0.4931850  
H    -9.6767910   -0.3837010    1.0085900  
H    -4.8841760   -2.0843300    0.3705570  
H    -5.9179510    2.8881600    1.0936620  
H    -8.2851010    2.0426630    1.1905670  
