62


C    -3.0280860   -1.0280660   -2.0280100  
C    -4.3425420   -1.3957870   -2.0962570  
C    -4.6095730   -2.2361880   -0.9624580  
C    -3.4007680   -2.3479270   -0.2307040  
N    -2.4329580   -1.6010990   -0.9013250  
C    -3.3050470   -3.0745660    0.9613540  
C    -4.4485530   -3.7136720    1.4139490  
O    -4.4080310   -4.4418460    2.5690800  
C    -5.6660600   -3.6217980    0.6894850  
O    -6.7142940   -4.3141570    1.2675170  
C    -5.7586530   -2.8948090   -0.4826270  
H    -5.0398670   -1.1102370   -2.8721470  
H    -2.3832940   -3.1610860    1.5239390  
H    -5.2988670   -4.8060530    2.7094120  
H    -7.5072250   -4.2136450    0.7206200  
H    -6.7037890   -2.8306160   -1.0184990  
H    -2.4301770   -0.4308180   -2.7019440  
C    -0.4512620    2.1619500    0.0267790  
C     0.8008400    1.6107910    0.3177730  
C     0.7057370    0.2061210    0.1748120  
C    -0.6339210   -0.0708590   -0.2258370  
N    -1.3049070    1.1154910   -0.3017430  
C    -1.1001800   -1.3707390   -0.4933190  
C    -0.1766930   -2.4059310   -0.3445020  
O    -0.5547190   -3.6848150   -0.5770570  
C     1.1597550   -2.1425170    0.0688580  
O     1.9168470   -3.2931920    0.1851960  
C     1.6422280   -0.8626160    0.3213610  
H     1.6929480    2.1706590    0.5479170  
H    -2.2571690    1.2588450   -0.6130590  
H     0.2054950   -4.2547090   -0.3602160  
H     2.6772710   -3.1233980    0.7635250  
C     1.2102490    6.0391290    1.5830380  
C     1.0324240    4.7064970    1.3877490  
C    -0.1698200    4.5909620    0.5726930  
C    -0.5966000    5.9956100    0.3818990  
N     0.2161840    6.8415900    0.9605440  
C    -1.7836350    6.3488870   -0.3552120  
C    -2.5373460    5.3461340   -0.8566540  
O    -3.6892930    5.5335060   -1.5326520  
C    -2.1519750    3.9138540   -0.6771860  
O    -2.9387890    3.0733020   -1.1261520  
C    -0.8661840    3.5450990    0.0150260  
H     1.6279110    3.9041410    1.7957180  
H    -2.0583110    7.3914110   -0.4718450  
H    -4.0194800    4.6359990   -1.7471800  
H     1.9926260    6.5282380    2.1509960  
C     3.4766730    0.2186930    1.7207900  
C     3.0256370   -0.6196680    0.7412820  
C     4.2697070   -1.1504600    0.1353600  
C     5.3648820   -0.5053650    0.9200830  
N     4.8888810    0.2853840    1.8425560  
C     6.7513150   -0.7618510    0.6357140  
C     7.0458170   -1.5912710   -0.3948170  
O     8.2931090   -1.9110810   -0.7728250  
C     5.9671290   -2.2350900   -1.2202520  
O     6.3096630   -2.9751800   -2.1395730  
C     4.5464220   -1.9687310   -0.8990310  
H     7.5221680   -0.2849640    1.2308210  
H     8.1906730   -2.5174320   -1.5386510  
H     3.8000010   -2.4598700   -1.5148660  
H     2.8712470    0.8067970    2.4001210  
