62


C    -2.8641020   -1.0093280   -1.3051110  
C    -1.9667890   -1.8215690   -0.6269510  
C    -2.7553540   -2.8950320   -0.0508100  
C    -4.1058580   -2.6595880   -0.4107850  
N    -4.1374830   -1.5090110   -1.1766080  
C    -5.1623620   -3.4852980   -0.0057240  
C    -4.8467830   -4.5805080    0.7809330  
O    -5.8287620   -5.4284230    1.1980450  
C    -3.4991970   -4.8332670    1.1551870  
O    -3.3424770   -5.9620640    1.9364990  
C    -2.4633040   -4.0118720    0.7581090  
H    -4.9570990   -1.1317650   -1.6267050  
H    -6.1941980   -3.3024550   -0.2875490  
H    -5.3963460   -6.1398750    1.7020720  
H    -2.3985160   -6.1608920    2.0278120  
H    -1.4399300   -4.2459590    1.0305250  
H    -2.6690480   -0.1543000   -1.9372650  
C     0.2046700    1.9085620    0.0619060  
C     1.4959060    1.4141160    0.0140770  
C     1.4401120    0.0127520   -0.2363120  
C     0.0088770   -0.3196580   -0.3608630  
N    -0.6905000    0.8746900   -0.2244470  
C    -0.5266360   -1.5666770   -0.5359200  
C     0.4732320   -2.6432840   -0.6485180  
O     0.1890070   -3.8279110   -0.7071670  
C     2.0000070   -2.2705140   -0.7454750  
O     2.7439550   -3.1832780   -1.1181640  
C     2.4511780   -0.9317030   -0.3900640  
H     2.3955210    2.0021150    0.1069000  
H    -1.6548050    0.8669390    0.0829680  
C     4.6543750    1.1656850    2.9280360  
C     3.6937450    0.5635850    2.1544780  
C     4.3310920    0.1095440    0.9494820  
C     5.7037020    0.4584630    1.0653250  
N     5.8654250    1.1167140    2.2686760  
C     6.6635630    0.1188950    0.1080940  
C     6.2255540   -0.6204970   -0.9805950  
O     7.1046230   -1.0064980   -1.9427450  
C     4.8634140   -0.9955120   -1.1255700  
O     4.6108990   -1.7042080   -2.2753810  
C     3.8815240   -0.6110160   -0.2029130  
H     2.6529830    0.4546140    2.4209800  
H     6.7460300    1.4381660    2.6386550  
H     7.7127620    0.3801390    0.2013820  
H     6.5803040   -1.5420580   -2.5702520  
H     3.9940390   -2.4355860   -2.0270120  
H     4.5750970    1.6291500    3.9013160  
C     0.4548080    4.2651040    0.9231890  
C    -0.2433220    3.2439810    0.3197490  
C    -1.5560200    3.8449530    0.0073250  
C    -1.4414540    5.2406860    0.5126230  
N    -0.2579980    5.4647050    1.0382170  
C    -2.5177600    6.1786850    0.3941400  
C    -3.6599890    5.7635190   -0.2122870  
O    -4.7410440    6.5372410   -0.3874770  
C    -3.8014280    4.3716240   -0.7536360  
O    -4.8635630    4.0643870   -1.2946490  
C    -2.6737220    3.4257500   -0.6193180  
H    -2.4029500    7.1867350    0.7766240  
H    -5.3975360    5.9744460   -0.8536690  
H    -2.8152190    2.4404840   -1.0509770  
H     1.4616410    4.2129440    1.3208290  
