60


C    -7.5974940    2.5677200   -1.3599480  
C    -6.3211800    2.2431770   -0.9743380  
C    -6.3828200    0.9566080   -0.3436130  
C    -7.7429380    0.5435740   -0.3847980  
N    -8.4570210    1.5484850   -1.0038680  
C    -8.1845970   -0.6823150    0.1188970  
C    -7.2298990   -1.5161420    0.6864710  
O    -7.6095560   -2.7095700    1.2206500  
C    -5.8689170   -1.1328530    0.7328100  
O    -5.0463950   -2.0737530    1.3388620  
C    -5.4091280    0.0843450    0.2207710  
H    -5.4422460    2.8502110   -1.1340830  
H    -9.4496980    1.5334650   -1.1786560  
H    -9.2242360   -0.9922930    0.0965570  
H    -6.8130230   -3.1109940    1.6117080  
H    -4.3199990   -1.6200770    1.7945220  
H    -7.9689550    3.4500670   -1.8614970  
C    -3.4518030    1.6727390    0.5834210  
C    -3.9931500    0.4605640    0.2741060  
C    -2.8205810   -0.3583870   -0.1184130  
C    -1.6538660    0.5539540    0.0442550  
N    -2.0392170    1.7269330    0.4569880  
C    -0.2831070    0.1248050   -0.2422690  
C    -0.1594290   -1.1566550   -0.7200320  
O     1.0123820   -1.7306930   -1.0506030  
C    -1.3235350   -2.0723030   -0.9250780  
O    -1.0824270   -3.2002340   -1.3572370  
C    -2.6812460   -1.6092370   -0.5968340  
H     0.7822570   -2.6488630   -1.3305740  
H    -3.4989020   -2.3074200   -0.7377490  
H    -3.9755020    2.5605140    0.9138920  
C     0.8466490    1.0117300   -0.0250270  
C     0.8737980    2.2930520    0.4699120  
C     2.2436210    2.7255530    0.5121310  
C     3.0484000    1.5891580    0.0039440  
N     2.1611840    0.6002320   -0.3195390  
C     4.4163580    1.6027460   -0.0841300  
C     5.1159530    2.8417010    0.2819120  
O     6.3261550    2.9713430    0.1780910  
C     4.2633660    4.0560590    0.8068260  
O     4.8526550    5.0819210    1.1098070  
C     2.8167460    3.9027140    0.8934790  
H     0.0059070    2.8607250    0.7624790  
H     2.2371730    4.7430910    1.2615560  
H     2.3972430   -0.3329440   -0.6261090  
C     6.2049700    0.5782880   -1.4859490  
C     6.7548560   -0.6358680   -1.7254290  
C     6.0872320   -1.5927820   -0.8723050  
C     5.0884430   -0.8193890   -0.0899910  
N     5.1781810    0.4993790   -0.5274500  
C     4.2960300   -1.3615890    0.8735150  
C     4.3828510   -2.7988480    1.1221850  
O     3.6911710   -3.3694980    1.9524640  
C     5.4041340   -3.6395170    0.2746610  
O     5.4705440   -4.8457430    0.4538200  
C     6.2390890   -2.9317380   -0.6977700  
H     7.5525060   -0.8494440   -2.4220360  
H     3.6130440   -0.7835400    1.4847940  
H     6.9695470   -3.5133680   -1.2520480  
H     6.4438990    1.5403110   -1.9127370  
