64


C     0.5029950   -2.8880860   -0.1974170  
C     1.4275910   -3.9008310   -0.3599090  
C     2.7175610   -3.2936460   -0.4620400  
C     2.5290090   -1.8899910   -0.3422840  
N     1.1821340   -1.6700640   -0.1475930  
C     3.5784030   -0.9396790   -0.3666490  
C     4.8486080   -1.4930160   -0.5685190  
O     5.9591750   -0.6858160   -0.6196940  
C     5.0559250   -2.8916750   -0.6951230  
O     6.3865110   -3.2372800   -0.8691510  
C     4.0197330   -3.7997440   -0.6337600  
H     1.2072350   -4.9593130   -0.3881130  
H     0.7920360   -0.7747910   -0.4175430  
H     6.7065170   -1.2577990   -0.8723420  
H     6.4447410   -4.1651900   -1.1401850  
H     4.2081620   -4.8680370   -0.7140080  
C    -0.9322000   -2.9420560   -0.0290500  
C    -1.8005350   -3.9918020    0.1985790  
C    -3.1215240   -3.4479330    0.3210920  
C    -3.0093180   -2.0436920    0.1740510  
N    -1.6721310   -1.7588740   -0.0191140  
C    -4.1135290   -1.1562300    0.2334860  
C    -5.3739420   -1.7546820    0.3967770  
O    -6.4922810   -0.9821990    0.4380010  
C    -5.4974180   -3.1564660    0.5519000  
O    -6.8019030   -3.5728240    0.7319460  
C    -4.4005090   -4.0013160    0.5295120  
H    -1.5194190   -5.0306860    0.2997980  
H    -1.3631940   -0.8982100   -0.4463270  
H    -7.2460030   -1.5764220    0.6047760  
H    -6.8252130   -4.5312660    0.8692770  
H    -4.5326910   -5.0738870    0.6548110  
C     5.6318240    1.8876060    2.3726880  
C     4.8576860    2.9898960    2.1317990  
C     3.8963830    2.6152420    1.1326350  
C     4.1374400    1.2511130    0.8128200  
N     5.1798600    0.8234510    1.6123680  
C     3.3637050    0.5161800   -0.1222560  
C     2.3460600    1.2552560   -0.7367260  
O     1.4806630    0.6596100   -1.6354690  
C     2.1179550    2.6301760   -0.4614900  
O     1.1168300    3.1848710   -1.2306680  
C     2.8679720    3.3140540    0.4752990  
H     4.9491650    3.9554880    2.6100790  
H     5.7488360    0.0269370    1.3630180  
H     0.9324580    1.3927450   -1.9788980  
H     0.7224830    3.9823520   -0.8131700  
H     2.6724880    4.3638550    0.6772730  
H     6.4718090    1.7590890    3.0414180  
C    -3.9246040    0.2809520    0.1366030  
C    -4.7166290    1.3011100   -0.3250870  
C    -3.9406740    2.5159720   -0.3203900  
C    -2.6150880    2.1522400    0.2338690  
N    -2.6450970    0.7955050    0.4686090  
C    -1.5726150    3.0043220    0.4013750  
C    -1.7102000    4.3406750   -0.1370010  
O    -0.7503540    5.0952210   -0.3032780  
C    -3.1336960    4.8069850   -0.6091880  
O    -3.3018100    5.9847780   -0.8880570  
C    -4.1877910    3.7971520   -0.7175690  
H    -5.7221300    1.1867910   -0.6989070  
H    -0.6088820    2.6830240    0.7819530  
H    -5.1493760    4.1186230   -1.1051920  
H    -2.0685180    0.3571620    1.1751760  
