60


C    -5.8328060   -2.3599220   -2.5545720  
C    -5.0553480   -1.8651680   -1.5393370  
C    -5.5984570   -0.5872090   -1.1661470  
C    -6.7292950   -0.3697390   -1.9988640  
N    -6.8356620   -1.4555710   -2.8444750  
C    -7.5534920    0.7543320   -1.8911640  
C    -7.2414670    1.6670090   -0.8958310  
O    -8.0102880    2.7748530   -0.7169780  
C    -6.1246580    1.4771670   -0.0387660  
O    -5.9535690    2.4918980    0.8753900  
C    -5.2625840    0.3828400   -0.1727760  
H    -4.2012530   -2.3631330   -1.1045560  
H    -7.5764020   -1.5987160   -3.5125980  
H    -8.4205490    0.9157630   -2.5236410  
H    -7.6285570    3.2321220    0.0574710  
H    -5.7452110    2.0632090    1.7378030  
H    -5.7556230   -3.2898360   -3.1000940  
C    -1.0487660   -0.4133890   -1.2469200  
C    -2.3710220   -0.1184570   -1.2513100  
C    -2.8165450   -0.0759430    0.1227090  
C    -1.6245170   -0.3784960    0.9475930  
N    -0.5655550   -0.5933550    0.0577880  
C    -1.6073500   -0.3904470    2.3028130  
C    -2.8483050   -0.0749820    2.9913290  
O    -2.9674720   -0.0832100    4.2058480  
C    -4.0934980    0.3465780    2.1289290  
O    -5.0506320    0.8144160    2.7428330  
C    -4.0518970    0.2108240    0.6620280  
H    -2.9870720    0.0438720   -2.1215680  
H    -0.7413910   -0.6529260    2.8976110  
H    -0.3679490   -0.5416130   -2.0774500  
C     3.1708960    1.3721990   -1.0428700  
C     1.8649720    1.0618570   -0.8545110  
C     1.8167920   -0.1658180   -0.0958220  
C     3.2192640   -0.5646480    0.1478230  
N     4.0174420    0.4054870   -0.4835330  
C     3.5945560   -1.6136010    0.9182270  
C     2.5513210   -2.4545350    1.4981700  
O     2.7879970   -3.3939530    2.2386090  
C     1.0525340   -2.1340380    1.1579630  
O     0.1821440   -2.9011260    1.5240000  
C     0.7671670   -0.9039760    0.3824460  
H     1.0196600    1.6359930   -1.2036220  
H     4.6247330   -1.8768100    1.1219730  
H     3.6109720    2.2125010   -1.5614930  
C     6.9081600    3.6330220    0.3786560  
C     5.7332050    2.9634640    0.2758700  
C     6.0990780    1.6361390   -0.2041580  
C     7.5835900    1.6951880   -0.3454610  
N     8.0488160    2.8630570   -0.0020920  
C     8.3575560    0.5636910   -0.7888290  
C     7.6977630   -0.5784020   -1.0871990  
O     8.2961380   -1.7066270   -1.5023050  
C     6.2018890   -0.6787390   -0.9911460  
O     5.6697670   -1.7193580   -1.3606210  
C     5.4180390    0.4971670   -0.4904090  
H     4.7436860    3.3164060    0.5289610  
H     9.4355590    0.6449150   -0.8699690  
H     7.5772700   -2.3481460   -1.6854480  
H     7.0635260    4.6501140    0.7178140  
