62


C    -4.3220330   -0.3309670   -0.1276240  
C    -3.6666200    0.8134070   -0.5609830  
C    -4.5643880    1.9133120   -0.4069220  
C    -5.7713460    1.3891430    0.1292750  
N    -5.5927540    0.0363360    0.2972840  
C    -6.8868220    2.1914480    0.4037390  
C    -6.7815590    3.5459590    0.1323340  
O    -7.8373300    4.3745440    0.3800420  
C    -5.5804950    4.0885770   -0.4032100  
O    -5.6349930    5.4539460   -0.6155410  
C    -4.4819270    3.2966220   -0.6728170  
H    -2.6832280    0.8599570   -1.0069610  
H    -6.3030530   -0.6339560    0.5493240  
H    -7.8105270    1.7960710    0.8134660  
H    -7.5629210    5.2727290    0.1267100  
H    -4.7891170    5.7582520   -0.9758950  
H    -3.5735680    3.7346390   -1.0819960  
C    -0.2262330   -1.9628170    0.1438090  
C    -0.5830810   -3.3146950    0.0792910  
C    -1.9915570   -3.3878120   -0.0027630  
C    -2.4810240   -2.0468240   -0.0045410  
N    -1.3979730   -1.2186400    0.0775070  
C    -3.8585410   -1.7154800   -0.0722060  
C    -4.7218180   -2.8165850   -0.0800660  
O    -6.0755950   -2.6264780   -0.1051670  
C    -4.2465590   -4.1613840   -0.0771340  
O    -5.2657660   -5.0904420   -0.1081400  
C    -2.9063350   -4.4654900   -0.0547850  
H     0.1031140   -4.1465900    0.0446850  
H    -1.4122230   -0.2107300    0.1371830  
H    -6.4917840   -3.5067950   -0.1359190  
H    -4.8955370   -5.9850700   -0.1385750  
H    -2.5635090   -5.4970880   -0.0562280  
C     3.9195790   -3.3965490    1.1074430  
C     2.5665990   -3.3634910    0.9906250  
C     2.2466840   -2.0140510    0.5455680  
C     3.5643220   -1.3546210    0.4584860  
N     4.5407820   -2.1654320    0.7758830  
C     3.7220040    0.0444660    0.0859720  
C     2.5769480    0.7332380   -0.1670680  
O     2.5572930    2.0268320   -0.5369690  
C     1.2266560    0.1065400   -0.0702440  
O     0.2639610    0.8600960   -0.2549030  
C     1.0787790   -1.3590500    0.2280270  
H     1.8709590   -4.1514420    1.2361420  
H     1.6088580    2.2692240   -0.5983030  
H     4.5416640   -4.2232310    1.4285250  
C     7.5417670   -0.6543560   -2.1558760  
C     6.2850770   -0.8179220   -1.6838060  
C     6.0919950    0.2679040   -0.7277980  
C     7.3920620    1.0111190   -0.7615240  
N     8.2305630    0.4735780   -1.5991630  
C     7.6180060    2.1854740    0.0407470  
C     6.6091330    2.6024780    0.8377790  
O     6.6803870    3.6691900    1.6520700  
C     5.2905510    1.8772730    0.9027890  
O     4.4645100    2.2938610    1.7094940  
C     5.0491060    0.6868400    0.0313530  
H     5.5730080   -1.5924010   -1.9246620  
H     8.5721100    2.6987370   -0.0034220  
H     5.8138110    3.6984630    2.1143140  
H     8.0643040   -1.2642850   -2.8832660  
