62


C    -2.9628630   -1.3851860   -0.1102520  
C    -3.8469940   -0.5281120   -0.7279820  
C    -5.1784260   -0.9637100   -0.4237250  
C    -5.0610750   -2.1088860    0.4015390  
N    -3.7052880   -2.3986900    0.5346850  
C    -6.1684830   -2.7828710    0.9223250  
C    -7.4259270   -2.2978470    0.5900970  
O    -8.5396830   -2.9163490    1.0721220  
C    -7.5643470   -1.1648630   -0.2563900  
O    -8.8763810   -0.8143240   -0.5029250  
C    -6.4644570   -0.4993720   -0.7654960  
H    -3.5671500    0.2840490   -1.3844210  
H    -3.3418810   -2.8563140    1.3624100  
H    -6.0829540   -3.6575120    1.5588640  
H    -9.3120250   -2.4388550    0.7227550  
H    -8.9036680   -0.0470160   -1.0934040  
H    -6.5946200    0.3686170   -1.4086220  
C     0.1448130    1.8728560   -0.0647160  
C    -1.0491990    1.1467790   -0.0550570  
C    -0.7214700   -0.2284780   -0.1539350  
C     0.6973510   -0.3161450   -0.2147570  
N     1.1856150    0.9587080   -0.1687870  
C     1.4133300   -1.5414400   -0.2420290  
C     0.6125310   -2.7003220   -0.2181260  
O     1.1688060   -3.9238110   -0.3344950  
C    -0.8055380   -2.6256400   -0.1538180  
O    -1.4108520   -3.8676470   -0.1651030  
C    -1.5052360   -1.4200100   -0.1270150  
H    -2.0373850    1.5504400    0.0921440  
H     2.1524260    1.2426250   -0.0592150  
H     0.4369710   -4.5684060   -0.3394200  
H    -2.3571320   -3.7598600   -0.3733060  
C     2.8638280   -1.5816330   -0.2827480  
C     3.7228820   -0.6671440   -0.8426400  
C     5.0519990   -1.1483170   -0.5632790  
C     4.8260120   -2.4073870    0.2190900  
N     3.5619450   -2.6615550    0.3753550  
C     5.9286260   -3.1944840    0.7128490  
C     7.1799480   -2.7675360    0.4264620  
O     8.3020750   -3.3956370    0.8082130  
C     7.4375670   -1.5088760   -0.3745660  
O     8.6172420   -1.2135190   -0.5795890  
C     6.3045540   -0.7174200   -0.8527720  
H     3.4763640    0.2008810   -1.4374510  
H     5.7400270   -4.0968200    1.2836950  
H     9.0330580   -2.8420470    0.4490750  
H     6.5262770    0.1866630   -1.4112790  
C    -2.4519570    5.4837200   -0.5186170  
C    -1.9597040    4.2156630   -0.5452430  
C    -0.5795230    4.2700040   -0.1186870  
C    -0.2982300    5.6933750    0.1483180  
N    -1.4783810    6.3712140   -0.0826600  
C     0.8984090    6.2118460    0.5483090  
C     2.0077260    5.3016540    0.6946620  
O     3.1311870    5.6283830    1.0520200  
C     1.7642230    3.7817100    0.3573220  
O     2.7505530    3.0562890    0.3514430  
C     0.3902860    3.2934290    0.0483960  
H    -2.4995650    3.3432960   -0.8744050  
H     1.0524260    7.2650030    0.7598210  
H    -3.4364370    5.8455680   -0.7828720  
H    -1.5794670    7.3727270   -0.0331430  
