60


C     3.0829600   -3.5110730   -2.7307460  
C     4.1476230   -4.1595340   -2.1644150  
C     4.5986760   -3.3517630   -1.0663360  
C     3.7517730   -2.2150430   -1.0113070  
N     2.8273370   -2.3457420   -2.0279050  
C     3.9116640   -1.1758120   -0.0666960  
C     4.9669350   -1.3232650    0.8378580  
O     5.1709130   -0.3794960    1.8018730  
C     5.8176800   -2.4573250    0.7961690  
O     6.7968390   -2.4430930    1.7706000  
C     5.6460670   -3.4662830   -0.1318470  
H     4.5640880   -5.1030220   -2.4890240  
H     2.1806280   -1.6260230   -2.3118660  
H     5.9470520   -0.6593840    2.3189490  
H     7.3627960   -3.2235630    1.6776550  
H     6.3122300   -4.3264710   -0.1405220  
H     2.4686090   -3.7835940   -3.5771540  
C     1.6413070   -0.0898690   -0.0234640  
C     2.9983980   -0.0229280   -0.0275930  
C     3.3421540    1.3991270   -0.0431080  
C     2.0680080    2.1518520   -0.0428650  
N     1.0366610    1.1798490   -0.0274060  
C     1.9926710    3.5030550   -0.0602820  
C     3.2455510    4.2695200   -0.0867750  
O     3.2623980    5.4893140   -0.0964510  
C     4.6010160    3.4870900   -0.1088770  
O     5.6511370    4.1071480   -0.1446490  
C     4.5443370    2.0214910   -0.0846940  
H     1.0524110    4.0358550   -0.0630340  
H     5.4806140    1.4761940   -0.0806620  
H     1.0182620   -0.9713680    0.0037090  
C    -0.3240790    1.3588150   -0.0093470  
C    -1.3006200    0.3737800    0.0433640  
C    -2.5382880    1.0838650   -0.0002550  
C    -2.1348760    2.5280400   -0.0712930  
N    -0.8316850    2.6684170   -0.0669500  
C    -3.0897230    3.5892740   -0.1562800  
C    -4.3978840    3.2340470   -0.1678220  
O    -5.4067750    4.0979320   -0.2438660  
C    -4.8552090    1.7849970   -0.0507290  
O    -6.0695960    1.6224150    0.0531310  
C    -3.8604820    0.7024980   -0.0028400  
H    -1.1744210   -0.6976950    0.0335390  
H    -2.7649220    4.6216650   -0.2166620  
H    -6.2221870    3.5434670   -0.1895140  
C    -2.9429810   -2.5435450    2.8429580  
C    -3.7529500   -3.5136260    2.3472270  
C    -4.4277710   -2.9612370    1.1908110  
C    -3.9346280   -1.5694520    1.0520700  
N    -3.0490370   -1.3760680    2.0929140  
C    -4.3397970   -0.6818910    0.0908220  
C    -5.2898640   -1.1973860   -0.9213970  
O    -5.6045530   -0.5601490   -1.9108740  
C    -5.8700030   -2.6475380   -0.7483490  
O    -6.7225360   -3.0330920   -1.5325850  
C    -5.3552860   -3.4766120    0.3393260  
H    -3.8816150   -4.5097540    2.7446170  
H    -5.7486710   -4.4836100    0.4389360  
H    -2.2817170   -2.5711200    3.6990440  
H    -2.4729800   -0.5542230    2.2002570  
