62


C     4.4327550    0.4572360    0.0453760  
C     3.9893060   -0.7929960   -0.3988860  
C     5.0667490   -1.7080350   -0.2753740  
C     6.1710530   -0.9758630    0.2549800  
N     5.7574600    0.3154920    0.4394710  
C     7.4158430   -1.5673230    0.5055110  
C     7.5527250   -2.9149670    0.2157150  
O     8.7417680   -3.5417310    0.4373900  
C     6.4608300   -3.6627860   -0.3157910  
O     6.7632470   -4.9914820   -0.5470270  
C     5.2344880   -3.0825510   -0.5613900  
H     3.0209300   -1.0065890   -0.8237580  
H     6.3070860    1.1210220    0.7151040  
H     8.2584450   -1.0145040    0.9069880  
H     8.6358110   -4.4695650    0.1646250  
H     5.9945640   -5.4351430   -0.9345910  
H     4.4162880   -3.6746410   -0.9673050  
C     0.1152560    1.6867670   -0.1454790  
C     1.2994740    0.9751040   -0.0558650  
C     2.3874940    1.9054250   -0.0049360  
C     1.7705820    3.2444080   -0.0650650  
N     0.4148120    3.0456290   -0.1841960  
C     2.4394110    4.4311310   -0.0139310  
C     3.8724430    4.3883770    0.1503540  
O     4.5926960    5.3763260    0.2005580  
C     4.5596300    2.9778090    0.2916510  
O     5.7543250    2.9774140    0.5702110  
C     3.7638420    1.7388870    0.0996970  
H     1.3783320   -0.0868920    0.1088590  
H     1.9476930    5.3954840   -0.0881840  
H    -0.2953650    3.7599040   -0.1069080  
C    -1.5075260   -2.1829560   -1.4813970  
C    -2.8202480   -1.9562060   -1.1591710  
C    -2.8991290   -0.6348960   -0.5917140  
C    -1.5811570   -0.1142580   -0.5956470  
N    -0.7548180   -1.0852570   -1.1181340  
C    -1.2534010    1.2048710   -0.1903720  
C    -2.3612000    2.0018020    0.1370550  
O    -2.1979110    3.3095790    0.4864030  
C    -3.6872230    1.5001040    0.1644440  
O    -4.6025650    2.4310050    0.5825230  
C    -3.9902180    0.1702740   -0.1419610  
H    -3.6401810   -2.6337170   -1.3476460  
H     0.1998770   -0.9140790   -1.3968110  
H    -3.1033730    3.6471100    0.6515280  
H    -5.4129150    2.3136800    0.0234210  
H    -1.0406510   -3.0403880   -1.9446950  
C    -5.3414300   -3.5638840    1.7317940  
C    -6.6677580   -3.5147240    1.4534120  
C    -6.9076870   -2.2797590    0.7358640  
C    -5.5886150   -1.6083570    0.6106460  
N    -4.6920850   -2.4304390    1.2453520  
C    -5.3517670   -0.3958780   -0.0058730  
C    -6.5494120    0.2961880   -0.4770200  
O    -6.5555120    1.4596960   -0.8868930  
C    -7.9406250   -0.4391710   -0.4573900  
O    -8.8892200    0.1111120   -0.9905990  
C    -8.0363190   -1.7293310    0.2170620  
H    -7.4127760   -4.2476650    1.7258220  
H    -9.0077560   -2.2108220    0.2627720  
H    -4.7741130   -4.3196420    2.2583720  
H    -3.6930960   -2.2835360    1.2366370  
