62


C    -0.8074300    3.9936610    0.9485410  
C    -1.0993060    2.7205950    0.4882420  
C    -2.5123690    2.7178240    0.1568510  
C    -3.0106100    4.0076840    0.4497340  
N    -1.9443990    4.7577570    0.9262860  
C    -4.3487620    4.3669280    0.2432400  
C    -5.1997500    3.3994970   -0.2729400  
O    -6.5127440    3.6915300   -0.4861120  
C    -4.7118640    2.1036770   -0.5949100  
O    -5.6527630    1.2501350   -1.1202670  
C    -3.3878330    1.7624500   -0.3955640  
H    -2.0013480    5.7154010    1.2379530  
H    -4.7352170    5.3559930    0.4666350  
H    -6.9293000    2.8902500   -0.8494280  
H    -5.2537980    0.3718710   -1.2686250  
H    -3.0432310    0.7826490   -0.7056000  
H     0.1255380    4.3943450    1.3182170  
C    -0.2014200    1.5982820    0.3757360  
C     1.1634720    1.4994900    0.2184890  
C     1.5077470    0.1063680    0.1095280  
C     0.2328930   -0.6351080    0.2122140  
N    -0.7563720    0.3145030    0.3546700  
C     0.0568510   -1.9867830    0.1387290  
C     1.2733550   -2.7864230   -0.0802130  
O     1.2601130   -3.9927670   -0.2488460  
C     2.6570020   -2.0381410   -0.1335200  
O     3.6704370   -2.7166810   -0.1579500  
C     2.6930530   -0.5597310   -0.0981430  
H     1.8463490    2.3291950    0.1123840  
H    -1.6722770    0.0972040    0.7188950  
C    -3.5398070   -1.4007390   -2.3854630  
C    -4.4049770   -2.1896920   -1.6634580  
C    -3.6508240   -2.7631310   -0.5806980  
C    -2.3285130   -2.2616240   -0.6842610  
N    -2.2928140   -1.4303770   -1.7891300  
C    -1.2907920   -2.5961340    0.2168430  
C    -1.6284070   -3.5055370    1.2208570  
O    -0.7029450   -3.8493790    2.1534360  
C    -2.9429160   -4.0376100    1.3221180  
O    -3.1019580   -4.9111870    2.3802330  
C    -3.9522320   -3.6725280    0.4527250  
H    -5.4390300   -2.3899510   -1.9114990  
H    -1.4575570   -0.9983080   -2.1545880  
H    -1.0940850   -4.5442820    2.7110900  
H    -3.9718640   -5.3334630    2.3253820  
H    -4.9534150   -4.0831910    0.5653940  
H    -3.6988450   -0.8395090   -3.2958540  
C     5.0712240    2.2009430    2.4808270  
C     4.1057470    1.3915540    1.9766570  
C     4.5525060    0.9441850    0.6710590  
C     5.8817880    1.5648650    0.4593750  
N     6.1249910    2.3362240    1.5801000  
C     6.6779380    1.3602490   -0.6231570  
C     6.1948510    0.4752350   -1.6704610  
O     6.8423390    0.1952410   -2.6686510  
C     4.7549320   -0.1348090   -1.5141210  
O     4.2717520   -0.7305850   -2.4592300  
C     3.9974240    0.0993870   -0.2521100  
H     3.1775240    1.1233170    2.4573370  
H     7.6616600    1.8060610   -0.7342300  
H     5.1085150    2.7166080    3.4314040  
H     6.9988450    2.7992920    1.7742860  
