60


C    -2.1959990    4.7747610   -1.4052030  
C    -1.3691530    5.8255310   -1.1018770  
C    -0.2437450    5.2801440   -0.3988430  
C    -0.4547820    3.8831030   -0.2932560  
N    -1.6545910    3.6039100   -0.9102960  
C     0.4826240    2.9930750    0.2963550  
C     1.6654350    3.5778400    0.7831640  
O     2.5998230    2.8221640    1.4070030  
C     1.8739120    4.9793390    0.6933270  
O     3.0747670    5.3921060    1.2426620  
C     0.9464430    5.8276590    0.1207540  
H    -1.5369330    6.8635750   -1.3541410  
H    -2.0077270    2.6700230   -1.0792360  
H     3.3266390    3.4181520    1.6612330  
H     3.1638060    6.3512000    1.1437010  
H     1.1395270    6.8975320    0.0675440  
H    -3.1409960    4.7604850   -1.9296950  
C     0.2078190    1.5700220    0.3479400  
C    -1.0218110    0.9772080    0.4829090  
C    -0.8202330   -0.4213660    0.2437330  
C     0.6619890   -0.5411280    0.0339420  
N     1.2567290    0.6096000    0.1031470  
C     1.2957380   -1.8160140   -0.2438150  
C     0.4622120   -2.8804890   -0.3750180  
O     0.8786150   -4.1221100   -0.6543710  
C    -1.0382650   -2.7801650   -0.2189040  
O    -1.6744100   -3.8126050   -0.4346070  
C    -1.6604810   -1.4912830    0.1450150  
H    -1.9615210    1.4546080    0.7111540  
H     0.0522510   -4.6554000   -0.7097190  
C    -4.8087130    0.9672490   -1.8028490  
C    -5.9360680    0.4334840   -1.2837290  
C    -5.4756350   -0.5906060   -0.3536790  
C    -3.9758320   -0.5365360   -0.4520240  
N    -3.6011220    0.3876200   -1.2918250  
C    -3.1267110   -1.4422460    0.3122130  
C    -3.7739260   -2.2901590    1.1655400  
O    -3.1400120   -3.1386340    1.9819040  
C    -5.2723560   -2.3422280    1.2954090  
O    -5.7460410   -3.1447140    2.0972180  
C    -6.1031640   -1.4455390    0.4747310  
H    -6.9635890    0.6914550   -1.4986770  
H    -3.8479400   -3.6264340    2.4589340  
H    -7.1804920   -1.5174260    0.5882400  
H    -4.7243350    1.7558830   -2.5413850  
C     4.5071680   -1.1378640    2.6611120  
C     5.6226850   -1.3149940    1.9172130  
C     5.1358700   -1.6625680    0.5851450  
C     3.6433010   -1.6216350    0.7216490  
N     3.2851500   -1.3340810    1.9366080  
C     2.7619290   -1.9154430   -0.3963570  
C     3.3600760   -2.2842440   -1.5607210  
O     2.6885660   -2.5920790   -2.6813340  
C     4.8547680   -2.3492340   -1.7166010  
O     5.2976010   -2.6788640   -2.8165540  
C     5.7236080   -2.0152260   -0.5735710  
H     6.6561500   -1.2360700    2.2248390  
H     3.3815820   -2.8034570   -3.3454620  
H     6.7962010   -2.0826180   -0.7288610  
H     4.4407380   -0.8756490    3.7104610  
