62


C    -1.9516110    6.2513670    0.2444440  
C    -1.6494460    4.9099900    0.2230470  
C    -0.2263550    4.7893050    0.0904450  
C     0.2826500    6.1100720    0.0457990  
N    -0.7878910    6.9763910    0.1293800  
C     1.6491920    6.4110610   -0.0399050  
C     2.5317310    5.3477410   -0.0684640  
O     3.8725590    5.5714960   -0.1405520  
C     2.0696990    4.0034120   -0.0290710  
O     3.0758720    3.0959530   -0.0802750  
C     0.6886270    3.6848420    0.0288770  
H    -2.3737010    4.1188100    0.3348750  
H    -0.7204540    7.9820740    0.1383760  
H     2.0270590    7.4280430   -0.0728230  
H     4.2973080    4.6936730   -0.1424920  
H     2.6670880    2.1863150    0.0121310  
H    -2.9068480    6.7481470    0.3372090  
C     0.2537590    2.3087210    0.0043370  
C    -0.9895410    1.7382570   -0.1591740  
C    -0.8108860    0.3193210   -0.0941790  
C     0.6424960    0.1341290    0.1409880  
N     1.2513960    1.2855040    0.1707010  
C     1.2776770   -1.1746490    0.3026560  
C     0.4074830   -2.2246830    0.2276020  
O     0.7687690   -3.5084230    0.4015150  
C    -1.0704490   -2.0776190   -0.0203090  
O    -1.7062440   -3.1395660   -0.0400280  
C    -1.6756670   -0.7490200   -0.2254280  
H    -1.9258040    2.2444860   -0.3170530  
H    -0.0749490   -4.0106920    0.2935670  
C     3.4987040   -0.4036560    1.2474280  
C     2.7063370   -1.2909160    0.5682180  
C     3.6494070   -2.3538850    0.1475470  
C     4.9643890   -1.9105450    0.6975920  
N     4.8593800   -0.7802820    1.3424800  
C     6.1704380   -2.6694730    0.5019760  
C     6.0924230   -3.8050230   -0.2319750  
O     7.1348800   -4.6069980   -0.5039090  
C     4.7910200   -4.2642480   -0.8248270  
O     4.7985280   -5.3013620   -1.4870410  
C     3.5633150   -3.4731970   -0.5965990  
H     7.1036380   -2.3170710    0.9271600  
H     6.7651090   -5.3345470   -1.0512760  
H     2.6452640   -3.8568900   -1.0231470  
H     3.1865840    0.5208280    1.7126760  
C    -3.5088310    0.3364260   -1.5306890  
C    -3.0702070   -0.6199870   -0.6219090  
C    -4.2568440   -1.3594430   -0.2182230  
C    -5.3547250   -0.7864820   -0.9064900  
N    -4.8600710    0.2352480   -1.7014790  
C    -6.6764820   -1.2145250   -0.7432940  
C    -6.9032760   -2.2527370    0.1460680  
O    -8.1683570   -2.7186620    0.3436570  
C    -5.8208490   -2.8365540    0.8548370  
O    -6.1999200   -3.8578640    1.7038520  
C    -4.5182820   -2.4063230    0.6877970  
H    -5.4052440    0.7838300   -2.3489140  
H    -7.5099570   -0.7688150   -1.2763670  
H    -8.1097380   -3.4448950    0.9886230  
H    -5.4117690   -4.2523910    2.1059600  
H    -3.7094410   -2.8912350    1.2230260  
H    -2.9279160    1.0456190   -2.1015660  
