62


C     2.3135780   -3.7219300   -1.2320930  
C     2.9670870   -4.4917760   -0.3052980  
C     3.8911430   -3.6326460    0.3782850  
C     3.7415430   -2.3336200   -0.1773510  
N     2.7749590   -2.4223290   -1.1573590  
C     4.5108460   -1.2158960    0.2234460  
C     5.4689600   -1.4852410    1.1993260  
O     6.3066360   -0.4732560    1.6320510  
C     5.6349210   -2.7694520    1.7702490  
O     6.6318870   -2.8217560    2.7275020  
C     4.8558610   -3.8415830    1.3829070  
H     2.8177540   -5.5491240   -0.1358270  
H     2.4729760   -1.6499130   -1.7303560  
H     6.8819070   -0.8541430    2.3207970  
H     6.6839590   -3.7153590    3.0972570  
H     5.0000350   -4.8226980    1.8300610  
H     1.5526900   -3.9923580   -1.9508420  
C     0.8496280    1.3052050   -0.4000140  
C     1.7274870    0.3212280   -0.0140980  
C     3.0244420    0.7065920   -0.4982570  
C     2.8664160    1.9537790   -1.1584310  
N     1.5278410    2.2976470   -1.0884740  
C     3.9330040    2.6671620   -1.7132020  
C     5.1931040    2.1103680   -1.5661070  
O     6.2840380    2.7498650   -2.0583270  
C     5.3843350    0.8650010   -0.9011710  
O     6.6980010    0.4570940   -0.8611200  
C     4.3207780    0.1256660   -0.3841620  
H     1.4848330   -0.5363260    0.5960960  
H     1.0928520    3.0703360   -1.5693300  
H     3.8129990    3.6229820   -2.2118920  
H     7.0490770    2.1953660   -1.8101430  
H     6.8800710    0.1216680    0.0443390  
C    -1.3983940    0.3088600   -0.3688890  
C    -2.6988460    0.6343630   -0.0667320  
C    -2.6833530    2.0503410    0.3178730  
C    -1.2723850    2.4886700    0.2327260  
N    -0.5372480    1.3785230   -0.2118990  
C    -0.8228240    3.7263020    0.5549060  
C    -1.8014750    4.7241610    0.9901290  
O    -1.4899680    5.8633290    1.2983050  
C    -3.3086260    4.2940730    1.0546090  
O    -4.1434080    5.1159170    1.3945940  
C    -3.6583340    2.9089340    0.7081130  
H     0.2225530    4.0123920    0.5282080  
H    -4.6937580    2.5982760    0.7741900  
H    -0.9946730   -0.6326640   -0.7149430  
C    -3.8265600   -0.2537510   -0.1415330  
C    -3.8558660   -1.5965730   -0.4452020  
C    -5.2334810   -1.9837780   -0.3812800  
C    -5.9568210   -0.7172240   -0.0107330  
N    -5.1337280    0.2812890    0.1271300  
C    -7.3849520   -0.6829020    0.1552550  
C    -8.0606890   -1.8408870   -0.0339510  
O    -9.3859780   -1.9700500    0.0835420  
C    -7.3605480   -3.1370710   -0.4075240  
O    -8.0825450   -4.1265830   -0.5535660  
C    -5.9133110   -3.1465000   -0.5706070  
H    -3.0212490   -2.2443590   -0.6757340  
H    -7.8831360    0.2424130    0.4220840  
H    -9.5654950   -2.9193160   -0.1129210  
H    -5.4454760   -4.0888070   -0.8378050  
