64


C    -5.4500600   -1.0898000    2.9012270  
C    -6.3630140   -1.7203970    2.0957590  
C    -5.8906760   -1.5916560    0.7472270  
C    -4.6676820   -0.8688170    0.8014490  
N    -4.4372790   -0.5637580    2.1262260  
C    -3.9087410   -0.5226230   -0.3419120  
C    -4.4610530   -0.9344100   -1.5540170  
O    -3.8167730   -0.6284560   -2.7420160  
C    -5.6762020   -1.6538500   -1.6335360  
O    -6.0505690   -1.9678350   -2.9301910  
C    -6.3955420   -1.9921510   -0.5047430  
H    -7.2702850   -2.2103120    2.4214070  
H    -3.5924650   -0.1313910    2.4692880  
H    -4.3507510   -1.0164210   -3.4591040  
H    -6.8531230   -2.5093250   -2.9121640  
H    -7.3314320   -2.5410160   -0.5863670  
H    -5.4373200   -0.9643920    3.9748600  
C    -0.2413270   -1.0363460    2.2178140  
C    -1.4342690   -1.2245220    1.5701560  
C    -1.6225560   -0.1076320    0.6789770  
C    -0.4816250    0.7238060    0.8222240  
N     0.3399760    0.1355120    1.7658980  
C    -0.2659330    1.9044040    0.0796010  
C    -1.2611580    2.2098930   -0.8489930  
O    -1.1312560    3.2880830   -1.6649730  
C    -2.4224400    1.4031200   -1.0002860  
O    -3.3049700    1.8845020   -1.9465060  
C    -2.6475530    0.2551460   -0.2400230  
H    -2.0836780   -2.0805110    1.6824660  
H     1.1794510    0.5581680    2.1316090  
H    -1.9318030    3.2799170   -2.2251670  
H    -3.6000500    1.1232750   -2.4923090  
H     0.2696040   -1.6658440    2.9326780  
C     3.9577490    0.7538780   -0.4867490  
C     4.5200510    1.9880770   -0.2311380  
C     3.4562520    2.8957060    0.0782340  
C     2.2467880    2.1588920   -0.0025470  
N     2.5789610    0.8575030   -0.3254030  
C     0.9686980    2.7151430    0.2177740  
C     0.9491410    4.0690940    0.5584340  
O    -0.2324450    4.6837610    0.8333480  
C     2.1522910    4.8209820    0.6532710  
O     1.9491710    6.1427050    1.0075550  
C     3.3933270    4.2614070    0.4209310  
H     5.5808070    2.1995250   -0.2096630  
H     1.9097950    0.1616770   -0.6209810  
H    -0.0369690    5.6227640    0.9957040  
H     2.7954300    6.6132700    0.9935820  
H     4.2957100    4.8643110    0.5009400  
C     5.6701040   -0.7114450   -1.6221250  
C     4.5837080   -0.5156660   -0.8189490  
C     4.2160600   -1.8334320   -0.2996200  
C     5.1852010   -2.7991860   -0.8755220  
N     6.0463450   -2.0515930   -1.6513920  
C     5.1693360   -4.1362730   -0.6376920  
C     4.1535150   -4.6716440    0.2632510  
O     4.0562720   -5.8597720    0.5311930  
C     3.1490640   -3.6586780    0.9249220  
O     2.3258720   -4.0730740    1.7262450  
C     3.2474390   -2.2418970    0.5599780  
H     5.8815770   -4.8286160   -1.0761290  
H     2.5345170   -1.5599600    1.0106560  
H     6.2245520    0.0200840   -2.1943730  
H     6.7846360   -2.4328890   -2.2217420  
