60


C     0.6667380    4.0892800   -1.2255710  
C    -0.0214440    3.0660650   -0.5900140  
C    -1.3204510    3.6052780   -0.2282760  
C    -1.3446230    4.9460810   -0.6822790  
N    -0.1193400    5.2037930   -1.2783260  
C    -2.4414110    5.7954850   -0.5051450  
C    -3.5480540    5.2805010    0.1513580  
O    -4.6440700    6.0598380    0.3448990  
C    -3.5404340    3.9439060    0.6361140  
O    -4.6983660    3.5898090    1.2879500  
C    -2.4477630    3.1122670    0.4627020  
H     0.1354000    6.0701610   -1.7286360  
H    -2.4547700    6.8219300   -0.8562920  
H    -5.3095330    5.5240430    0.8111530  
H    -4.6738970    2.6541720    1.5391980  
H    -2.4668960    2.1137240    0.8929050  
H     1.6488770    4.0754100   -1.6756930  
C     0.4948260    1.7380320   -0.3878560  
C     1.7830960    1.2673870   -0.3111790  
C     1.7351590   -0.1522760   -0.1091190  
C     0.3017950   -0.5187240   -0.0991600  
N    -0.3847490    0.6492730   -0.2548410  
C    -0.2097890   -1.7970930    0.0301680  
C     0.7743100   -2.8421650    0.3403900  
O     0.4723770   -3.9875800    0.6569170  
C     2.3027090   -2.4918470    0.2995310  
O     3.0925470   -3.3840030    0.5512500  
C     2.7207540   -1.1001890    0.0388600  
H     2.6765600    1.8716840   -0.3408500  
H    -1.3885720    0.7127920   -0.3106120  
C    -1.6255900   -2.0997480   -0.0608480  
C    -2.6608130   -1.3923320   -0.6493270  
C    -3.8732750   -2.1374670   -0.4596960  
C    -3.4880520   -3.3594130    0.2912640  
N    -2.1314670   -3.2650280    0.5100610  
C    -4.3577700   -4.3339210    0.6606300  
C    -5.7666220   -4.1785490    0.3087500  
O    -6.6208100   -5.0012190    0.6040860  
C    -6.1981630   -2.8877370   -0.4810060  
O    -7.3775400   -2.7391210   -0.7706980  
C    -5.1675010   -1.9144850   -0.8293240  
H    -2.5731090   -0.5155810   -1.2746320  
H    -4.0584830   -5.2232930    1.2062890  
H    -5.4752670   -1.0322550   -1.3832700  
H    -1.5068010   -3.9886490    0.8480690  
C     5.4501260    1.5438560    2.3868300  
C     4.3625510    0.8937400    1.8958600  
C     4.8132030    0.0641690    0.7974600  
C     6.2767750    0.2841800    0.6940890  
N     6.5931430    1.2105850    1.6707520  
C     7.1010720   -0.3438700   -0.1831170  
C     6.5162100   -1.3061070   -1.1068030  
O     7.1722070   -1.9440610   -1.9150260  
C     4.9602650   -1.5160380   -1.0681070  
O     4.4434870   -2.2010800   -1.9311520  
C     4.1609670   -0.8161600   -0.0252160  
H     3.3506660    0.9753580    2.2619330  
H     8.1738800   -0.1810030   -0.2174610  
H     5.5164610    2.2418290    3.2110380  
H     7.5309200    1.4960030    1.9057770  
