60


C     3.3902860   -1.3159930   -0.9451760  
C     4.3731860   -0.4734750   -0.4238040  
C     5.4676790   -1.3420960   -0.0155850  
C     5.0770820   -2.6699500   -0.3228340  
N     3.8169540   -2.6076920   -0.8975580  
C     5.8606110   -3.7915790   -0.0410820  
C     7.0815040   -3.5766520    0.5819890  
O     7.8916310   -4.6324950    0.8808130  
C     7.4885060   -2.2609880    0.9140990  
O     8.7217720   -2.1985500    1.5374950  
C     6.7052300   -1.1560790    0.6328960  
H     3.2775390   -3.4007610   -1.2104250  
H     5.5486970   -4.8025650   -0.2825480  
H     8.6905560   -4.2690630    1.3006370  
H     8.9597220   -1.2706940    1.6812480  
H     7.0531220   -0.1611000    0.8854150  
H     2.4163300   -1.0637470   -1.3346220  
C     0.7091920    1.8891890   -0.1834070  
C     1.2059390    3.1690380   -0.1736760  
C     2.6426970    3.0335710   -0.2416320  
C     2.8799200    1.5610720   -0.2744980  
N     1.7598620    0.9089250   -0.2152070  
C     4.2260640    0.9725320   -0.3471410  
C     5.2469130    1.8916100   -0.3776450  
O     6.5544330    1.5593400   -0.5047530  
C     5.0387740    3.3557990   -0.3290500  
O     6.0370710    4.0898910   -0.3793140  
C     3.6746060    3.9032300   -0.2510640  
H     0.6523610    4.0970580   -0.1926840  
H     7.0182680    2.4279350   -0.5256100  
H     3.5727540    4.9835220   -0.2059740  
C    -2.9503030    3.5073810    1.7317250  
C    -1.6738620    3.2929770    1.3128750  
C    -1.6871610    2.1253180    0.4635930  
C    -3.0840540    1.6685180    0.4233330  
N    -3.8056590    2.5677770    1.1743870  
C    -3.5531830    0.5172500   -0.1802520  
C    -2.5410500   -0.2908810   -0.8932640  
O    -2.7989320   -1.2956060   -1.5261590  
C    -1.0464450    0.2105610   -0.9214450  
O    -0.2699980   -0.4177320   -1.6157400  
C    -0.6685480    1.4452850   -0.1797780  
H    -0.8073470    3.8692240    1.5952200  
H    -3.3407590    4.2692800    2.3927790  
H    -4.7615300    2.3986070    1.4565440  
C    -4.9404960    0.1128770   -0.1152950  
C    -6.0618160    0.9161030   -0.0824880  
C    -7.1856500    0.0180680    0.0083220  
C    -6.5594470   -1.3431120    0.0549100  
N    -5.2625260   -1.2859050   -0.0244050  
C    -7.3593270   -2.5347050    0.1775540  
C    -8.7042340   -2.3858450    0.2196610  
O    -9.5737860   -3.4002810    0.3218280  
C    -9.3652580   -1.0267800    0.1532280  
O   -10.5963530   -0.9998620    0.2021100  
C    -8.5318960    0.1728430    0.0470270  
H    -6.1144910    1.9854140   -0.2393010  
H    -6.8819220   -3.5072370    0.2182100  
H   -10.4622080   -2.9769720    0.3255350  
H    -9.0409680    1.1312210    0.0122420  
