62


C     2.2992160   -0.6002230    0.1215640  
C     3.2027800    0.3849960    0.4489420  
C     2.4484140    1.6192800    0.4667390  
C     1.0987040    1.3054080    0.1683510  
N     1.0342610   -0.0551940   -0.0238150  
C     0.0795900    2.2878910    0.0654130  
C     0.5041240    3.6182380    0.2209960  
O    -0.3915970    4.6482740    0.1073140  
C     1.8494400    3.9391210    0.5135570  
O     2.0723040    5.2965230    0.6513290  
C     2.8184460    2.9628340    0.6479010  
H     0.2411560   -0.5341200   -0.4229640  
H     0.1082350    5.4757880    0.2312360  
H     3.0231470    5.4688300    0.7166520  
H     3.8515130    3.2291060    0.8579220  
H     2.4483990   -1.6657300    0.0225150  
C    -1.3078860    1.9299930   -0.1931180  
C    -1.9611350    0.7362200    0.0399020  
C    -3.3201490    0.8694840   -0.4102340  
C    -3.4372010    2.2490310   -0.9393060  
N    -2.1970370    2.8277460   -0.7810740  
C    -4.5627940    2.7780140   -1.4844680  
C    -5.7505020    1.9387940   -1.5613680  
O    -6.8027770    2.3127750   -2.0569200  
C    -5.6749930    0.4885650   -0.9608660  
O    -6.6989890   -0.1696990   -0.9013830  
C    -4.3811350   -0.0035720   -0.4300720  
H    -1.5490390   -0.1269240    0.5384250  
H    -4.6149720    3.7861900   -1.8835880  
H    -1.9697920    3.7988740   -0.9371810  
C    -3.4131130   -1.6267530    3.5550050  
C    -3.5763460   -2.9524110    3.3069750  
C    -3.9444120   -3.0881780    1.9129910  
C    -3.9783710   -1.7125380    1.3608740  
N    -3.6314880   -0.8756460    2.4068320  
C    -4.3181050   -1.3828760    0.0797000  
C    -4.6146120   -2.5117650   -0.8322340  
O    -4.7962440   -2.3592990   -2.0268610  
C    -4.6219240   -3.9744800   -0.2530430  
O    -4.9259200   -4.8953060   -0.9958740  
C    -4.2500990   -4.1698590    1.1456950  
H    -3.4599400   -3.7579360    4.0172430  
H    -4.2491960   -5.1839750    1.5334830  
H    -3.1469000   -1.1291710    4.4783780  
H    -3.6338840    0.1308900    2.3513470  
C     5.3628880    0.8524510    1.6974750  
C     4.6300650    0.2191350    0.7153650  
C     5.5566290   -0.6425070    0.0140480  
C     6.8260580   -0.4852360    0.6245420  
N     6.6785260    0.4364800    1.6421890  
C     7.9662500   -1.1724310    0.1889000  
C     7.8217010   -2.0324620   -0.8881310  
O     8.8991930   -2.7294520   -1.3516280  
C     6.5601280   -2.1919580   -1.5223630  
O     6.5814480   -3.0725670   -2.5876020  
C     5.4377530   -1.5120440   -1.0883770  
H     7.4061120    0.7240970    2.2772590  
H     8.9396340   -1.0551170    0.6543010  
H     8.5950410   -3.2599970   -2.1081650  
H     5.7032710   -3.1113890   -2.9942170  
H     4.4852950   -1.6370430   -1.5989410  
H     5.0362830    1.5429580    2.4622370  
