66


C    -5.3716950    0.0881030    2.7735260  
C    -4.6357120   -0.1718260    1.6415830  
C    -5.4783440   -0.9087760    0.7351610  
C    -6.7278660   -1.0646870    1.3861740  
N    -6.6287950   -0.4604760    2.6249960  
C    -7.8044600   -1.7395140    0.7957760  
C    -7.6122500   -2.2634990   -0.4724080  
O    -8.6292160   -2.9239730   -1.0972570  
C    -6.3627320   -2.1191030   -1.1355140  
O    -6.3281720   -2.7011420   -2.3881790  
C    -5.3009390   -1.4563390   -0.5510220  
H    -7.3701150   -0.4021850    3.3050710  
H    -8.7653800   -1.8584450    1.2859060  
H    -8.3027800   -3.1881690   -1.9748950  
H    -5.4981080   -2.4682270   -2.8300180  
H    -4.3540050   -1.3524230   -1.0747540  
H    -5.0917910    0.6250860    3.6680630  
C    -2.2310450   -0.1804730    2.2741260  
C    -1.0594410    0.3526660    1.8062710  
C    -1.3736150    1.0890160    0.6090900  
C    -2.7758570    0.9730920    0.4192570  
N    -3.2832880    0.1809630    1.4438310  
C    -3.4621610    1.6176260   -0.6170250  
C    -2.7051970    2.3981340   -1.4744700  
O    -3.3011600    3.0690360   -2.4997010  
C    -1.2974540    2.5217150   -1.3189880  
O    -0.6997640    3.3077680   -2.2829650  
C    -0.6002080    1.8626690   -0.3038400  
H    -0.0908270    0.2536600    2.2748100  
H    -4.5360170    1.5441390   -0.7439880  
H    -2.5810020    3.5629740   -2.9367110  
H    -0.0642210    3.9027390   -1.8294020  
H    -2.4246710   -0.8055250    3.1341480  
C     2.3583790   -1.3917390    0.0364020  
C     3.5126940   -0.6367790    0.0710930  
C     3.0822080    0.7451790   -0.0089040  
C     1.6642320    0.7458900   -0.0795440  
N     1.2592330   -0.5719800   -0.0690770  
C     0.8810480    1.9181520   -0.2061540  
C     1.6156300    3.1012210   -0.2766860  
O     0.9593140    4.3099990   -0.4232490  
C     3.0299010    3.1257960   -0.2213030  
O     3.5642890    4.3984790   -0.3133970  
C     3.7746230    1.9715650   -0.0869560  
H     0.2951920   -0.8650300   -0.0055040  
H     1.6443720    5.0031780   -0.4441170  
H     4.5306710    4.3484700   -0.2697610  
H     4.8603050    2.0071280   -0.0582040  
H     2.2449250   -2.4651290    0.0904240  
C     5.7405500   -3.7947020   -2.2373320  
C     4.7856990   -2.9253230   -1.7789030  
C     5.3684770   -2.1861290   -0.6928730  
C     6.7002000   -2.6558920   -0.5432250  
N     6.8968800   -3.6376560   -1.4939700  
C     7.5862440   -2.1447120    0.4132300  
C     7.1098120   -1.1385820    1.2378120  
O     7.9186130   -0.6071650    2.2040100  
C     5.7835580   -0.6554360    1.1064090  
O     5.4601930    0.3328460    2.0215360  
C     4.8922310   -1.1523740    0.1565140  
H     3.7872520   -2.8117600   -2.1760800  
H     7.7524330   -4.1523670   -1.6290300  
H     8.6034360   -2.5041040    0.5314760  
H     7.3780490    0.0332330    2.6984810  
H     4.5038300    0.4990260    1.9726130  
H     5.6984120   -4.5186320   -3.0390120  
