60


C     3.1978550   -1.1218480   -1.5127260  
C     3.8206240   -0.1680530   -0.7174230  
C     5.0429960   -0.7894540   -0.2327030  
C     5.0772490   -2.1031230   -0.7622670  
N     3.9433160   -2.2671070   -1.5415740  
C     6.0961370   -3.0204530   -0.4837690  
C     7.1137650   -2.6038970    0.3594730  
O     8.1375560   -3.4497030    0.6634890  
C     7.0962530   -1.2955920    0.9106610  
O     8.1730320   -1.0255920    1.7320200  
C     6.0851240   -0.3964350    0.6304420  
H     3.7308900   -3.0842170   -2.0932680  
H     6.1139110   -4.0241730   -0.8957750  
H     8.7447580   -2.9671300    1.2511400  
H     8.1380530   -0.1005880    2.0178000  
H     6.1140560    0.6043870    1.0473460  
H     2.2941280   -1.0311880   -2.0972450  
C    -0.3186630    1.4288060   -0.1709210  
C     0.7428480    0.5595770   -0.2947090  
C     1.9031390    1.4010240   -0.3619120  
C     1.3601450    2.7826000   -0.2571890  
N     0.0556700    2.7885610   -0.1526440  
C     2.2007440    3.9492290   -0.2579210  
C     3.5326810    3.7394130   -0.3313220  
O     4.4521910    4.7124700   -0.3157870  
C     4.1302830    2.3465740   -0.4332890  
O     5.3608700    2.3056540   -0.4919550  
C     3.2552480    1.1535400   -0.4778300  
H     0.7328150   -0.5186800   -0.2791520  
H     1.7679970    4.9404200   -0.1845650  
H     5.3158750    4.2466040   -0.3970490  
C    -2.1323910   -0.1966790   -0.1562490  
C    -3.4916960   -0.2788460   -0.0417410  
C    -3.9660930    1.0869680    0.1896010  
C    -2.7679740    1.9614520    0.1549700  
N    -1.6623980    1.1088380   -0.0681410  
C    -2.8016210    3.3025170    0.3376850  
C    -4.0948750    3.9395250    0.6049600  
O    -4.2100250    5.1437920    0.7688490  
C    -5.3620420    3.0299480    0.6974820  
O    -6.4453730    3.5332120    0.9513480  
C    -5.1939670    1.5917890    0.4710850  
H    -1.9117880    3.9148590    0.3044400  
H    -6.0822680    0.9765150    0.5165600  
H    -1.4376060   -1.0089980   -0.2868500  
C    -2.3122110   -4.2994960    1.2226770  
C    -3.4312910   -5.0199550    0.9890320  
C    -4.3833160   -4.0709630    0.4219380  
C    -3.6405870   -2.7707520    0.3984150  
N    -2.4343540   -2.9172600    0.8637070  
C    -4.2470340   -1.5299850   -0.0905330  
C    -5.5131070   -1.6600040   -0.5965420  
O    -6.1974630   -0.6552310   -1.1708920  
C    -6.2700130   -2.9511300   -0.5880210  
O    -7.4049630   -2.9495160   -1.0678360  
C    -5.6436960   -4.1667110   -0.0382020  
H    -3.6046200   -6.0709300    1.1736440  
H    -7.0631540   -1.0480480   -1.4274450  
H    -6.2311880   -5.0796980   -0.0502870  
H    -1.3711590   -4.6385590    1.6384790  
