62


C    -4.1442250    0.3196560   -0.0266840  
C    -4.1379770   -0.7375210    0.8735560  
C    -5.3241020   -1.5045750    0.6531140  
C    -6.0327020   -0.8711180   -0.4040210  
N    -5.2909880    0.2171720   -0.8013330  
C    -7.2590250   -1.3491540   -0.8831980  
C    -7.7808950   -2.4857880   -0.2859690  
O    -8.9746370   -2.9944580   -0.7137790  
C    -7.0860830   -3.1328550    0.7713000  
O    -7.7339660   -4.2539310    1.2605740  
C    -5.8756590   -2.6611380    1.2424170  
H    -3.4171210   -0.8925750    1.6645490  
H    -5.5834580    0.9442580   -1.4375270  
H    -7.8035400   -0.8680800   -1.6891900  
H    -9.1633230   -3.7772020   -0.1682380  
H    -7.2226410   -4.6244530    1.9947690  
H    -5.3638130   -3.1749850    2.0542220  
C     0.1706560    0.3525950    0.7025490  
C     0.4396210    1.6826790    0.4032160  
C    -0.8350620    2.2637650    0.0015650  
C    -1.8108180    1.2433590    0.1174630  
N    -1.1641150    0.1051950    0.5630660  
C    -3.1739050    1.3945610   -0.2256110  
C    -3.5114110    2.6380180   -0.7749170  
O    -4.7991480    2.8895950   -1.1828100  
C    -2.5509970    3.6626920   -0.9179280  
O    -3.0622170    4.8256370   -1.4690750  
C    -1.2321630    3.5031000   -0.5356840  
H    -1.5977060   -0.8053980    0.5993070  
H    -4.8203920    3.8129450   -1.4912750  
H    -2.3845370    5.5169860   -1.4413790  
H    -0.5258340    4.3175740   -0.6419950  
H     0.8589120   -0.4279160    0.9836940  
C     4.3821690   -0.2337660    0.0882810  
C     5.2165300    0.8479220    0.1843640  
C     4.3552020    1.9933610    0.3636360  
C     2.9676450    1.4356300    0.3359560  
N     2.9929080    0.1501500    0.1706690  
C     1.7694700    2.2794530    0.4734060  
C     2.0370770    3.6072450    0.6899470  
O     1.0846170    4.5425000    0.9188100  
C     3.4077670    4.1832180    0.7236930  
O     3.5153730    5.3993940    0.9310970  
C     4.5763150    3.3124940    0.5369630  
H     6.2929940    0.8419950    0.1308260  
H     1.5976260    5.3729480    1.0542210  
H     5.5580200    3.7754760    0.5624670  
C     8.2655400   -2.0972980   -0.7546950  
C     7.9467380   -3.4079450   -0.8300730  
C     6.5130260   -3.4627080   -0.5773100  
C     6.1128630   -2.0314580   -0.3642750  
N     7.1464000   -1.2494410   -0.4712080  
C     4.7278070   -1.6326490   -0.0843380  
C     3.8268570   -2.6732810   -0.0022130  
O     2.5261350   -2.5581770    0.2832830  
C     4.2229010   -4.1120550   -0.2125970  
O     3.3334000   -4.9594840   -0.1162080  
C     5.6168570   -4.4630620   -0.5123240  
H     8.5958870   -4.2485340   -1.0313390  
H     2.1871700   -3.4848680    0.2554980  
H     5.8487130   -5.5135740   -0.6585680  
H     9.2370450   -1.6349980   -0.8810660  
