60


C    -3.5920790    0.3202910   -0.1483670  
C    -4.0844120    1.6044280   -0.0129260  
C    -5.5119630    1.5292560   -0.0277530  
C    -5.8532750    0.1572960   -0.1745100  
N    -4.6718930   -0.5575270   -0.2178620  
C    -7.1769750   -0.2902780   -0.2396240  
C    -8.1792760    0.6640990   -0.1482830  
O    -9.4873190    0.2835530   -0.2090820  
C    -7.8584680    2.0400040    0.0120930  
O    -8.9664590    2.8620060    0.0935910  
C    -6.5500020    2.4788370    0.0753990  
H    -3.4827490    2.4917000    0.1315310  
H    -4.5954310   -1.5222420   -0.5024210  
H    -7.4419250   -1.3364430   -0.3532110  
H   -10.0263530    1.0882610   -0.1180530  
H    -8.6804550    3.7792880    0.2153810  
H    -6.3293310    3.5375440    0.1968070  
C    -1.1578240    0.5273950   -0.7597040  
C    -2.2215620   -0.1498540   -0.2244810  
C    -1.6797930   -1.4083310    0.2797630  
C    -0.2292340   -1.4038820   -0.0570600  
N     0.0082680   -0.2086300   -0.6925240  
C     0.6383430   -2.4415340    0.2028830  
C     0.1021020   -3.5051290    1.0926370  
O     0.8151100   -4.3116280    1.6626020  
C    -1.4371470   -3.5643620    1.3757100  
O    -1.8905540   -4.5430170    1.9478790  
C    -2.2606190   -2.4369600    0.9532340  
H    -3.3140460   -2.4568050    1.2119960  
H    -1.1435330    1.5071980   -1.2169840  
H     0.9509960    0.1887450   -0.7373920  
C     3.9525280    0.5275710   -0.1829130  
C     5.0043010   -0.3059070   -0.4507320  
C     4.4421830   -1.6345970   -0.5453910  
C     2.9842170   -1.4486150   -0.2605580  
N     2.7145180   -0.1877780   -0.0719900  
C     2.0399200   -2.5553570   -0.2356260  
C     2.5580020   -3.7590970   -0.6526850  
O     1.8177790   -4.8537780   -0.8382810  
C     4.0086950   -3.9704590   -0.9695100  
O     4.3596740   -5.1001430   -1.3154080  
C     4.9451260   -2.8412520   -0.8806800  
H     6.0324780   -0.0311910   -0.6370930  
H     2.4512660   -5.5621530   -1.0937100  
H     5.9870740   -3.0313540   -1.1186250  
C     6.8876750    3.4397370    1.4823510  
C     6.2845510    2.2734200    1.1363660  
C     5.0277390    2.6629040    0.5181150  
C     5.0400980    4.1565880    0.5957090  
N     6.1314140    4.6038530    1.1507010  
C     3.9455000    4.9496860    0.1076540  
C     2.8812260    4.2987390   -0.4151340  
O     1.7929810    4.9180890   -0.9006640  
C     2.8272180    2.7967990   -0.5151570  
O     1.8212910    2.3219990   -1.0417710  
C     3.9799450    1.9733630   -0.0265890  
H     6.6383250    1.2683260    1.3104870  
H     3.9865130    6.0313970    0.1697210  
H     1.2071190    4.2024890   -1.2289650  
H     7.8434390    3.5703810    1.9759540  
