62


C     4.4069520   -0.4228580    0.0977640  
C     3.8133440    0.8056280    0.4025350  
C     4.8226390    1.8024280    0.3242770  
C     6.0346470    1.1407700   -0.0315280  
N     5.7500480   -0.1930470   -0.1664160  
C     7.2462180    1.8247900   -0.1914470  
C     7.2361560    3.1955090    0.0114580  
O     8.3857550    3.9129220   -0.1296230  
C     6.0333510    3.8735750    0.3675660  
O     6.1959070    5.2362040    0.5304170  
C     4.8401410    3.2011210    0.5247080  
H     2.7955730    0.9728160    0.7245420  
H     6.3915500   -0.9622240   -0.3179260  
H     8.1715880    1.3270260   -0.4611300  
H     8.1697990    4.8434210    0.0554380  
H     5.3478580    5.6352440    0.7749960  
H     3.9332360    3.7378340    0.7957580  
C     0.2415320   -1.8414620   -0.1312520  
C     0.4914780   -3.2006770   -0.0218580  
C     1.9114380   -3.3882500    0.0488100  
C     2.5043420   -2.0412310   -0.0043990  
N     1.4523380   -1.1608620   -0.1035500  
C     3.8541170   -1.7607980    0.0497430  
C     4.7383650   -2.9497650    0.0333940  
O     5.9561640   -2.8783980   -0.0874600  
C     4.1164930   -4.3928530    0.1663080  
O     4.8927130   -5.3360430    0.2594250  
C     2.6779240   -4.5199670    0.1539060  
H    -0.2382070   -3.9858000    0.1091870  
H     2.2493630   -5.5145230    0.2247360  
H     1.5057610   -0.1579060   -0.2127220  
C    -3.7671630   -3.1844230   -1.3216620  
C    -4.4682830   -2.0519910   -1.0657490  
C    -3.5287980   -1.0534940   -0.6065470  
C    -2.2097300   -1.7094390   -0.6009870  
N    -2.4195950   -3.0023790   -1.0036720  
C    -1.0068640   -1.1182330   -0.2512730  
C    -1.0756940    0.3276950   -0.0494760  
O    -0.1005020    1.0531550    0.1075910  
C    -2.4790540    1.0489320   -0.0767210  
O    -2.4455720    2.2708370    0.0374100  
C    -3.7159020    0.2718880   -0.2570110  
H    -5.5290990   -1.9078550   -1.1941180  
H    -4.1040090   -4.1370090   -1.7070800  
H    -1.6682840   -3.6156270   -1.2871310  
C    -7.2903630   -1.1256480    2.0628880  
C    -6.0389760   -0.9989440    1.5132470  
C    -6.0428950    0.1872250    0.7044730  
C    -7.3431870    0.7492490    0.8203400  
N    -8.0830400   -0.0805790    1.6380840  
C    -7.7134540    1.9515050    0.2139860  
C    -6.7344040    2.6217320   -0.5050850  
O    -7.0245570    3.8036020   -1.1081430  
C    -5.4187600    2.1035890   -0.6281300  
O    -4.5958470    2.8874160   -1.3995650  
C    -5.0501410    0.8688000   -0.0709110  
H    -5.2149590   -1.6776320    1.6747780  
H    -9.0322060    0.0904120    1.9311860  
H    -8.7061030    2.3803030    0.3062000  
H    -6.1888290    4.1047020   -1.5145260  
H    -3.7219480    2.9236410   -0.9477370  
H    -7.6846600   -1.8827140    2.7258190  
