62


C     4.6184320   -0.0733680   -0.0136030  
C     4.6572940   -1.4625020   -0.1690090  
C     6.0156970   -1.8406970   -0.2604170  
C     6.7959820   -0.6415860   -0.1557230  
N     5.9245420    0.3992480   -0.0078850  
C     8.1955830   -0.6496080   -0.2079160  
C     8.8191440   -1.8754260   -0.3670250  
O    10.1731310   -1.9446730   -0.4244680  
C     8.0574360   -3.0832570   -0.4731590  
O     8.8408100   -4.2063870   -0.6266200  
C     6.6831050   -3.0796550   -0.4222120  
H     3.7940680   -2.1124640   -0.2091410  
H     6.1291510    1.3842250    0.0904290  
H     8.7931240    0.2521440   -0.1297410  
H    10.4157000   -2.8806750   -0.5379410  
H     8.2786940   -4.9925350   -0.6958280  
H     6.1217280   -4.0076050   -0.5047770  
C     3.5427810    0.8451590    0.1255850  
C     2.1751910    0.6360610    0.1448200  
C     1.5851200    1.9218610    0.2998770  
C     2.7539150    2.8574530    0.3585970  
N     3.8917160    2.2261010    0.2635130  
C     2.5893980    4.2787350    0.4903310  
C     1.3228620    4.7481390    0.5354130  
O     1.0050210    6.0433480    0.6406420  
C     0.1102160    3.8369950    0.4721950  
O    -0.9808530    4.4157150    0.5349870  
C     0.2771110    2.3805490    0.3672550  
H     1.6629640   -0.3076570    0.0335710  
H     3.4534130    4.9318890    0.5364030  
H     0.0194220    6.0590980    0.6575290  
C    -0.9075110    0.2505660    0.9905510  
C    -0.8732620    1.4920540    0.4116620  
C    -2.2290280    1.6398890   -0.1729530  
C    -2.9126580    0.3465460    0.1358070  
N    -2.1294160   -0.4290150    0.8474020  
C    -4.2655250    0.0368830   -0.2925880  
C    -4.9274660    1.0647770   -0.9135980  
O    -6.2091790    1.0076800   -1.2952160  
C    -4.2743720    2.3711020   -1.2337770  
O    -4.9481140    3.2244280   -1.8138660  
C    -2.8735500    2.6144980   -0.8375220  
H    -6.3881810    1.8763950   -1.7201110  
H    -2.4565720    3.5883980   -1.0577180  
H    -0.1162410   -0.2201560    1.5602430  
C    -4.6534280   -2.6086810    3.2886540  
C    -5.4752970   -3.5485450    2.7268660  
C    -5.6580360   -3.1746060    1.3520930  
C    -4.9275960   -1.9743740    1.1486420  
N    -4.3520930   -1.6312180    2.3559630  
C    -4.8931410   -1.2900990   -0.0899250  
C    -5.5506010   -1.9273930   -1.1521130  
O    -5.4852180   -1.4083200   -2.4104190  
C    -6.2768010   -3.1297420   -0.9586400  
O    -6.8804230   -3.6032700   -2.1124490  
C    -6.3592320   -3.7454130    0.2736100  
H    -5.9067330   -4.4044750    3.2279600  
H    -3.5156740   -1.0596080    2.3802310  
H    -6.0430840   -1.9693460   -2.9768490  
H    -7.3645060   -4.4168290   -1.9093680  
H    -6.9340170   -4.6613700    0.3977800  
H    -4.2584940   -2.5413290    4.2929710  
