62


C     4.5640950   -0.6450840   -0.4652900  
C     5.2536680   -1.4011010   -1.4005040  
C     6.6125190   -1.4866640   -0.9792380  
C     6.7166080   -0.7603680    0.2401010  
N     5.4711760   -0.2282190    0.5114060  
C     7.9136040   -0.6508800    0.9543410  
C     9.0324920   -1.2760490    0.4238830  
O    10.2240220   -1.2028170    1.0780910  
C     8.9529250   -1.9926310   -0.8042130  
O    10.1541920   -2.5475120   -1.1970850  
C     7.7694450   -2.1011260   -1.5059790  
H     4.8290130   -1.7968360   -2.3129640  
H     5.1930520    0.1211490    1.4161260  
H     7.9982830   -0.1013320    1.8861240  
H    10.8775240   -1.6907050    0.5472050  
H    10.0388690   -3.0112760   -2.0396740  
H     7.7304270   -2.6559550   -2.4410340  
C     2.1002130   -0.9507180   -0.9412660  
C     3.1710730   -0.2824110   -0.4205450  
C     2.5780500    0.9327980    0.1849900  
C     1.1179830    0.8217530   -0.0983830  
N     0.8674510   -0.2932980   -0.7411370  
C     0.1594260    1.8348860    0.3120570  
C     0.6745600    2.8393210    1.0960240  
O    -0.0732040    3.7917340    1.6729230  
C     2.1290880    2.9813580    1.3842910  
O     2.4987700    3.9299950    2.0815360  
C     3.0800970    1.9814010    0.8591370  
H     0.5673430    4.3761550    2.1352800  
H     4.1326180    2.1432720    1.0689110  
H     2.1068500   -1.9052070   -1.4526200  
C    -2.8998700   -1.3909500    0.3454480  
C    -4.0111340   -0.6298680    0.0130730  
C    -3.5038160    0.7092680   -0.2420430  
C    -2.1087040    0.6780060    0.0006110  
N    -1.7745330   -0.6141220    0.3697100  
C    -1.2673820    1.8136130   -0.0843160  
C    -1.8894590    2.9826980   -0.5500380  
O    -1.1587950    4.0992940   -0.8054240  
C    -3.2847200    3.0246330   -0.7959650  
O    -3.7341570    4.2626120   -1.2216160  
C    -4.0987560    1.9260260   -0.6222770  
H    -0.8312170   -0.9578370    0.2072490  
H    -1.7838160    4.7758800   -1.1221000  
H    -4.6315150    4.1717740   -1.5754920  
H    -5.1596540    1.9859480   -0.8362480  
H    -2.8365530   -2.4562700    0.5156160  
C    -6.1533710   -3.5559180    2.5679060  
C    -5.2599410   -2.6688540    2.0623820  
C    -5.8397380   -2.0956560    0.8614730  
C    -7.1705770   -2.7219550    0.7177140  
N    -7.2878350   -3.6170790    1.7599770  
C    -8.0802530   -2.4371160   -0.2574760  
C    -7.7302570   -1.4270560   -1.2278160  
O    -8.4691040   -1.0518730   -2.1294490  
C    -6.3089480   -0.7479130   -1.1164740  
O    -6.0282590    0.0983520   -1.9485560  
C    -5.3701510   -1.1567470   -0.0322780  
H    -4.3043620   -2.4123730    2.4924570  
H    -9.0501030   -2.9193900   -0.3287060  
H    -6.0912920   -4.1679280    3.4576660  
H    -8.1196120   -4.1484940    1.9631790  
