62


C     4.8824790    0.2974460    0.1422250  
C     5.2808550   -1.0193580   -0.0993580  
C     6.7015560   -1.0302620   -0.1914150  
C     7.1384020    0.3124030   -0.0002810  
N     6.0217910    1.0857430    0.1911350  
C     8.4912130    0.6750500   -0.0220390  
C     9.4188020   -0.3311460   -0.2372250  
O    10.7488850   -0.0358370   -0.2673070  
C     9.0005900   -1.6796960   -0.4288470  
O    10.0470660   -2.5592080   -0.6314450  
C     7.6681250   -2.0370590   -0.4089460  
H     4.6407150   -1.8902020   -0.1024920  
H     5.9715960    2.0627400    0.4537620  
H     8.8281080    1.6959200    0.1233610  
H    11.2268580   -0.8684440   -0.4245050  
H     9.6991400   -3.4564080   -0.7409770  
H     7.3735120   -3.0742070   -0.5576890  
C     0.8893700   -1.1930160   -0.9087710  
C     0.1123260   -0.2103370   -0.3663890  
C     1.0347180    0.7632170    0.2163200  
C     2.3918380    0.2471280   -0.0213130  
N     2.2416830   -0.9663050   -0.6689880  
C     3.5655190    0.8709990    0.3398400  
C     3.3995360    2.2143620    0.9340170  
O     4.3350480    2.9742140    1.1569040  
C     1.9544480    2.7227380    1.3050990  
O     1.8644000    3.7719240    1.9251000  
C     0.8116650    1.9318770    0.8793700  
H    -0.1827710    2.3124690    1.0795990  
H     0.5810020   -2.0650460   -1.4711670  
H     2.9889780   -1.3758730   -1.2130160  
C    -2.8122920   -3.2079260    0.9816470  
C    -3.9553650   -2.5163770    0.6748360  
C    -3.5571340   -1.2433630    0.1379360  
C    -2.1382540   -1.2361230    0.1276190  
N    -1.7134940   -2.4421800    0.6466120  
C    -1.3596130   -0.1657860   -0.3565460  
C    -2.0825800    0.9145360   -0.8648200  
O    -1.4276130    1.9851240   -1.3881820  
C    -3.5021440    0.9324420   -0.8812850  
O    -4.0239190    2.0876720   -1.4147090  
C    -4.2716760   -0.1119580   -0.3588210  
H    -4.9638240   -2.8781420    0.8093440  
H    -0.7502110   -2.6733850    0.8329560  
H    -2.1295630    2.5818500   -1.7162930  
H    -4.7658980    1.8178810   -2.0056650  
H    -2.6871140   -4.1946360    1.4047370  
C    -7.1530580   -0.8084010    2.9465870  
C    -6.0372160   -0.6002400    2.1995080  
C    -6.4624670   -0.3552890    0.8399920  
C    -7.9449340   -0.4356080    0.8586380  
N    -8.2968110   -0.7370840    2.1586240  
C    -8.7508560   -0.2602870   -0.2207580  
C    -8.1140060    0.0684610   -1.4818830  
O    -8.7165150    0.2085670   -2.5346310  
C    -6.5550500    0.2913720   -1.4875010  
O    -6.0813080    0.7946790   -2.5050940  
C    -5.7509090   -0.0690460   -0.3062770  
H    -5.0186900   -0.6095450    2.5532610  
H    -9.8298610   -0.3723590   -0.1938010  
H    -7.2415380   -1.0068450    4.0064970  
H    -9.2443010   -0.7886010    2.4983600  
