62


C    -5.3828690   -0.3532520    2.2667130  
C    -6.5423230   -1.0636790    2.2329110  
C    -6.6680330   -1.6232910    0.9123530  
C    -5.5471710   -1.1947700    0.1617100  
N    -4.7553790   -0.3986450    1.0110130  
C    -5.3245940   -1.6252590   -1.1499090  
C    -6.2692550   -2.4645260   -1.7225530  
O    -6.0962670   -2.8969650   -3.0047060  
C    -7.4108200   -2.8792900   -0.9914690  
O    -8.2576130   -3.7105290   -1.6953920  
C    -7.6157980   -2.4719750    0.3149170  
H    -7.2452130   -1.1649790    3.0487090  
H    -4.4725400   -1.3159790   -1.7403760  
H    -6.8591930   -3.4576400   -3.2271700  
H    -9.0266650   -3.9299590   -1.1488770  
H    -8.4857190   -2.8150420    0.8711560  
H    -4.9465340    0.2456260    3.0516220  
C    -0.9750470   -0.1428750    3.2625400  
C    -2.2307350   -0.5089240    2.9063050  
C    -2.4723630    0.1591440    1.6320770  
C    -1.2155750    0.9045970    1.3676180  
N    -0.3468970    0.7245870    2.3249800  
C    -1.0188330    1.7172150    0.1732630  
C    -2.0568940    1.7435060   -0.7085910  
O    -2.0153080    2.4006710   -1.8804310  
C    -3.3457500    1.0232190   -0.4750340  
O    -4.2383650    1.1730900   -1.3052280  
C    -3.5153030    0.1863970    0.7585770  
H    -2.9075580   -1.1699960    3.4277650  
H    -2.9095910    2.3001380   -2.2721790  
H    -0.4203130   -0.4378420    4.1451700  
C     3.3758990    0.7730990   -0.1259840  
C     2.0157490    0.6482080    0.0524700  
C     1.4828970    1.9639630   -0.0797450  
C     2.6863500    2.8268170   -0.3568510  
N     3.7844290    2.1282340   -0.3845200  
C     2.5748960    4.2420640   -0.5727990  
C     1.3333290    4.7760220   -0.5216280  
O     1.0635870    6.0742650   -0.6911180  
C     0.0940540    3.9424690   -0.2454810  
O    -0.9652520    4.5716400   -0.1792380  
C     0.2146530    2.4934400   -0.0504070  
H     1.4627360   -0.2498530    0.2805400  
H     3.4578960    4.8405770   -0.7664750  
H     0.0849220    6.1378320   -0.5790670  
C     4.4120440   -0.2029900   -0.0993410  
C     4.4020610   -1.5824590    0.1161450  
C     5.7393850   -2.0351380    0.0250130  
C     6.5547080   -0.8890820   -0.2515730  
N     5.7249570    0.1933300   -0.3197250  
C     7.9447460   -0.9757510   -0.4061830  
C     8.5225250   -2.2273440   -0.2818100  
O     9.8662720   -2.3720790   -0.4219770  
C     7.7252650   -3.3826660   -0.0060080  
O     8.4631910   -4.5443350    0.0850650  
C     6.3602460   -3.3019170    0.1466460  
H     3.5222650   -2.1784480    0.3159050  
H     5.9606370    1.1600170   -0.4977250  
H     8.5683920   -0.1133650   -0.6155600  
H    10.0733180   -3.3154260   -0.3010830  
H     7.8749110   -5.2914900    0.2701250  
H     5.7718550   -4.1926060    0.3561360  
