62


C    -6.5451090    0.4672260    3.0464430  
C    -7.6694690    0.0249030    2.3980660  
C    -7.2623030   -0.3801210    1.0833830  
C    -5.8603020   -0.1620840    0.9960850  
N    -5.4581020    0.3693350    2.2028520  
C    -5.0960010   -0.4212810   -0.1668670  
C    -5.8288370   -0.9052700   -1.2500550  
O    -5.1884210   -1.1760720   -2.4482940  
C    -7.2236420   -1.1316100   -1.1866660  
O    -7.7598440   -1.6179000   -2.3679000  
C    -7.9492360   -0.8814900   -0.0389650  
H    -8.6716170    0.0001430    2.8033950  
H    -4.4961480    0.5450830    2.4521330  
H    -5.8686830   -1.5079610   -3.0623040  
H    -8.7111560   -1.7602310   -2.2565530  
H    -9.0226330   -1.0572150   -0.0113150  
H    -6.4253200    0.8540130    4.0487490  
C    -1.7140890   -1.6020800    2.5434030  
C    -2.9357550   -1.4813100    1.9347960  
C    -2.7584410   -0.6097380    0.8019470  
C    -1.3898330   -0.2308730    0.7924980  
N    -0.7868370   -0.8164820    1.8865670  
C    -0.8209090    0.6185310   -0.1861980  
C    -1.6840760    0.9613560   -1.2363800  
O    -1.2265890    1.6643360   -2.3037200  
C    -3.0553860    0.5901110   -1.2456070  
O    -3.7484220    1.0804950   -2.3341470  
C    -3.6378240   -0.1499250   -0.2185610  
H    -3.8492860   -1.9729490    2.2366200  
H     0.2131680   -0.9889960    1.8844430  
H    -2.0055620    1.7794050   -2.8834590  
H    -4.3231150    0.3584670   -2.6710670  
H    -1.4214210   -2.1890870    3.4029440  
C     3.0904570   -1.3178650    0.5251810  
C     3.9879790   -0.3218190    0.2513920  
C     3.1290010    0.8543600   -0.0221360  
C     1.7318720    0.3360990    0.0926360  
N     1.7388390   -0.9261400    0.4478350  
C     0.5564270    1.1587690   -0.1447940  
C     0.8148320    2.4899650   -0.3533950  
O    -0.1368120    3.4203940   -0.4907830  
C     2.2000320    3.0427880   -0.4527480  
O     2.3259250    4.2493850   -0.6649860  
C     3.3664060    2.1519410   -0.2793430  
H     0.3460330    4.2627250   -0.6462820  
H     4.3503710    2.6018260   -0.3144300  
H     3.3136230   -2.3332010    0.8334650  
C     6.5003920   -3.5580640   -1.2821840  
C     7.7296310   -3.0653550   -0.9825790  
C     7.5345340   -1.7805940   -0.3456550  
C     6.0712040   -1.5647990   -0.2910840  
N     5.5014170   -2.6953240   -0.8428960  
C     5.4417330   -0.4424090    0.1946480  
C     6.3373020    0.6206760    0.6986740  
O     5.9295340    1.6822240    1.1425230  
C     7.8972260    0.3887990    0.6853380  
O     8.6121360    1.2756310    1.1251460  
C     8.4124500   -0.8582730    0.1368300  
H     8.6795650   -3.5398450   -1.1808270  
H     9.4882120   -1.0011300    0.1160960  
H     6.2304430   -4.4843490   -1.7719230  
H     4.5246330   -2.7577350   -1.0915120  
