60


C     3.5862620    1.9033970   -2.3487900  
C     4.2946840    2.8534320   -1.6644740  
C     3.4625560    3.3088880   -0.5852740  
C     2.2469380    2.5822620   -0.6620790  
N     2.3572680    1.7114800   -1.7316270  
C     1.1646300    2.7859430    0.2234800  
C     1.3531420    3.7580660    1.2109670  
O     0.3791040    3.9730260    2.1338330  
C     2.5658370    4.4886350    1.3015330  
O     2.5873850    5.3946340    2.3445500  
C     3.6146290    4.2758440    0.4271750  
H     5.2949820    3.1909750   -1.8982530  
H     1.5821960    1.2052840   -2.1325650  
H     0.6464380    4.7431920    2.6655060  
H     3.3623980    5.9693280    2.2595260  
H     4.5353620    4.8478960    0.5212510  
H     3.8534130    1.3283970   -3.2241500  
C     0.3967490   -1.5234110    0.3434050  
C    -0.9747400   -1.5060510    0.2082610  
C    -1.4008510   -0.1429750    0.0922200  
C    -0.1720440    0.6745380    0.1600170  
N     0.8889750   -0.2171400    0.2614660  
C    -0.1042020    2.0363140    0.1312270  
C    -1.3894840    2.7426050   -0.0747240  
O    -1.4622580    3.9418280   -0.2645620  
C    -2.7163780    1.9062460   -0.0998800  
O    -3.7763660    2.5106540   -0.0904690  
C    -2.6409470    0.4331920   -0.0779090  
H    -1.6090080   -2.3777900    0.1497990  
H     1.7852820    0.0685280    0.6311480  
C     0.9904470   -3.8774020    1.0279750  
C     1.2837450   -2.6431700    0.5075560  
C     2.7125300   -2.7343530    0.1457550  
C     3.0934640   -4.1229570    0.5447550  
N     2.0756310   -4.7727390    1.0518920  
C     4.4210470   -4.6304800    0.3505680  
C     5.3319570   -3.8128640   -0.2339610  
O     6.6027700   -4.1563550   -0.4772300  
C     4.9714640   -2.4203260   -0.6795760  
O     5.8441060   -1.7475300   -1.2205680  
C     3.5958580   -1.9171020   -0.4594210  
H     4.6654220   -5.6407740    0.6588410  
H     7.0134130   -3.3774160   -0.9131340  
H     3.3798940   -0.9148620   -0.8184750  
H     0.0369760   -4.2022640    1.4279990  
C    -4.7801640   -2.6523290    2.4036180  
C    -3.8377610   -1.7733400    1.9828310  
C    -4.3420850   -1.2507300    0.7173620  
C    -5.6512780   -1.9494440    0.5397730  
N    -5.8996680   -2.7671730    1.5252460  
C    -6.5086830   -1.6871100   -0.5869430  
C    -6.0903780   -0.7780020   -1.4964860  
O    -6.7792190   -0.4415560   -2.5990980  
C    -4.7595080   -0.0848440   -1.3739430  
O    -4.4058200    0.6153420   -2.3164910  
C    -3.8946580   -0.3244640   -0.1719860  
H    -2.9166060   -1.4958480    2.4743150  
H    -7.4543690   -2.2089280   -0.6825880  
H    -6.2093500    0.2007360   -3.0765370  
H    -4.7761580   -3.2458500    3.3105530  
