66


C    -1.0102160   -0.7615810   -0.0344450  
C     0.1933130   -1.4272050    0.0934400  
C     1.2438910   -0.4472210    0.0714100  
C     0.6155720    0.8182500   -0.0529940  
N    -0.7507400    0.6060600   -0.0921240  
C     1.3018370    2.0460310   -0.0955960  
C     2.6883640    1.9531930    0.0296370  
O     3.4509750    3.0752670    0.0529280  
C     3.3468010    0.6988920    0.1625020  
O     4.7191050    0.8075650    0.2547000  
C     2.6633740   -0.5185560    0.1623540  
H     0.3010980   -2.4891810    0.2605020  
H    -1.4024810    1.2959390   -0.4384900  
H     4.3683760    2.7594260    0.1673810  
H     5.0178560    0.2065430    0.9715110  
C    -2.3661670   -1.2597100   -0.0541090  
C    -2.8659870   -2.4941540   -0.4153020  
C    -4.2860860   -2.4565090   -0.2400710  
C    -4.6130260   -1.1571490    0.2325640  
N    -3.4351220   -0.4349850    0.3042340  
C    -5.9231630   -0.7684860    0.5307560  
C    -6.9282680   -1.7057360    0.3409440  
O    -8.2248660   -1.3794470    0.6201580  
C    -6.6235300   -3.0042070   -0.1458200  
O    -7.7315480   -3.8200570   -0.2900280  
C    -5.3273510   -3.3859840   -0.4388850  
H    -2.2791590   -3.3161820   -0.8017460  
H    -3.3244070    0.4123980    0.8420540  
H    -6.1761850    0.2219760    0.8952400  
H    -8.7660440   -2.1625630    0.4204100  
H    -7.4505800   -4.6893100   -0.6114860  
H    -5.1191380   -4.3882470   -0.8086090  
C    -1.6871070    3.8772130    2.5796450  
C    -1.9321090    5.0129760    1.8519560  
C    -1.1000570    4.9540160    0.6823910  
C    -0.3683570    3.7407960    0.7553920  
N    -0.7558490    3.0986420    1.9154550  
C     0.5772900    3.3356040   -0.2118730  
C     0.7655290    4.2088280   -1.2837750  
O     1.6329150    3.8828880   -2.2822650  
C     0.0423430    5.4284570   -1.3714830  
O     0.3444750    6.1700770   -2.5010350  
C    -0.8807660    5.8082830   -0.4164590  
H    -2.6226180    5.8016790    2.1181690  
H    -0.3321860    2.2533430    2.2660430  
H     1.6532380    4.6350890   -2.8987070  
H    -0.1253600    7.0159990   -2.4638660  
H    -1.4208520    6.7481610   -0.5142970  
H    -2.1025580    3.5492230    3.5223220  
C     2.3027480   -4.0510730   -2.4683240  
C     3.2406330   -4.8465260   -1.8617640  
C     3.7711180   -4.1004180   -0.7571230  
C     3.1011920   -2.8466490   -0.7412820  
N     2.2246010   -2.8438030   -1.8055890  
C     3.3738580   -1.8220910    0.1964140  
C     4.3794970   -2.1246930    1.1134430  
O     4.7514930   -1.1835970    2.0596760  
C     5.0597950   -3.3649130    1.1182670  
O     6.0186070   -3.4667260    2.1129460  
C     4.7681510   -4.3571670    0.2036250  
H     3.5293640   -5.8416750   -2.1708850  
H     1.5628880   -2.1056770   -1.9939790  
H     5.4538200   -1.5897310    2.5997330  
H     6.4412400   -4.3367230    2.0666720  
H     5.3056420   -5.3030270    0.2200040  
H     1.6798660   -4.2416880   -3.3310560  
