64


C     4.0668810   -0.3200320    0.1418050  
C     4.4364290   -1.5033240    0.7475270  
C     5.8105330   -1.7458750    0.4286720  
C     6.2442870   -0.6650960   -0.3840830  
N     5.1770390    0.2020370   -0.5204290  
C     7.5443770   -0.5763750   -0.8948730  
C     8.4275250   -1.5959700   -0.5746420  
O     9.7063570   -1.5619440   -1.0488640  
C     8.0159050   -2.6795400    0.2480250  
O     9.0116960   -3.6096450    0.4808580  
C     6.7315470   -2.7640840    0.7507140  
H     3.8024560   -2.1018620    1.3877990  
H     5.1301630    0.9497530   -1.1959560  
H     7.8791440    0.2467090   -1.5178450  
H    10.1599450   -2.3533030   -0.7109210  
H     8.6675830   -4.3166850    1.0462390  
H     6.4395640   -3.6047780    1.3770980  
C     1.5540000   -0.2344740    0.1272270  
C     2.7823920    0.3576550    0.1234760  
C     2.5378800    1.7997440    0.1168070  
C     1.0634900    1.9730940    0.1219970  
N     0.5145120    0.7077450    0.1383200  
C     0.4328710    3.1841860    0.1239600  
C     1.2454010    4.3964760    0.1313350  
O     0.7698480    5.5215080    0.1531190  
C     2.8069150    4.2329140    0.1254840  
O     3.5113420    5.2286750    0.1104110  
C     3.3668120    2.8740040    0.1427770  
H    -0.6444380    3.2885060    0.2161290  
H     4.4472640    2.7825480    0.1910820  
H     1.3038890   -1.2857420    0.1003020  
C    -2.0948590   -1.7651860    2.7388060  
C    -1.0272750   -1.0669850    2.2347840  
C    -1.4769650   -0.4350760    1.0264070  
C    -2.8410590   -0.7838190    0.8517050  
N    -3.1881940   -1.5934000    1.9130110  
C    -3.6410940   -0.3448290   -0.2232580  
C    -3.0073840    0.4840100   -1.1507630  
O    -3.7020400    0.9860350   -2.2029700  
C    -1.6344390    0.8292130   -1.0240710  
O    -1.1404320    1.5860100   -2.0675580  
C    -0.8677100    0.3796580    0.0480060  
H    -0.0436830   -1.0024770    2.6779970  
H    -4.0970580   -2.0143540    2.0334550  
H    -3.0743410    1.5282650   -2.7152510  
H    -0.5007960    2.2442120   -1.7392420  
H    -2.1707630   -2.3703960    3.6310200  
C    -7.0340260    0.4942390    2.4736770  
C    -8.0062350   -0.1710100    1.7738440  
C    -7.3804510   -0.7330830    0.6093920  
C    -6.0090620   -0.3736320    0.6619360  
N    -5.8226940    0.3614660    1.8172260  
C    -5.0704190   -0.7286990   -0.3307900  
C    -5.5621970   -1.4783150   -1.3999650  
O    -4.7180560   -1.8906960   -2.3859300  
C    -6.9320550   -1.8471720   -1.4666040  
O    -7.2476420   -2.5963530   -2.5864900  
C    -7.8378230   -1.4923800   -0.4856010  
H    -9.0477380   -0.2520980    2.0534740  
H    -4.9675990    0.8372410    2.0609210  
H    -5.2592800   -2.3517150   -3.0501270  
H    -8.2051460   -2.7373880   -2.6202530  
H    -8.8810450   -1.7923000   -0.5638930  
H    -7.0964980    1.0507910    3.3982050  
