60


C    -5.7379040    0.8528810    1.9803880  
C    -7.0097280    0.3722520    1.8717950  
C    -6.9721870   -0.7818560    1.0103130  
C    -5.6293180   -0.9700450    0.6086690  
N    -4.8883640    0.0420960    1.2189620  
C    -5.2154450   -2.0029140   -0.2360790  
C    -6.1940080   -2.8751660   -0.6904250  
O    -5.8531760   -3.9016290   -1.5169490  
C    -7.5511040   -2.7087520   -0.3013890  
O    -8.3984890   -3.6569820   -0.8350710  
C    -7.9467880   -1.6819430    0.5359520  
H    -7.8838680    0.7909960    2.3513310  
H    -4.1848820   -2.1391070   -0.5446600  
H    -6.6692750   -4.3852150   -1.7338220  
H    -9.3106470   -3.4713550   -0.5669260  
H    -8.9911640   -1.5739310    0.8208980  
H    -5.3315360    1.6954650    2.5205420  
C    -2.5636300   -0.3424620    1.8897390  
C    -1.3237150    0.0448600    1.4918770  
C    -1.4884110    0.9289790    0.3593330  
C    -2.9413220    1.0344490    0.1103810  
N    -3.5431780    0.2297340    1.0776670  
C    -3.5272850    1.7875870   -0.8505130  
C    -2.6584090    2.5644500   -1.7295640  
O    -3.0752920    3.3127450   -2.5966060  
C    -1.1004790    2.4337060   -1.5486050  
O    -0.3621730    2.9856840   -2.3424890  
C    -0.5957090    1.6098070   -0.4256230  
H    -0.3905860   -0.2386000    1.9554290  
H    -4.6012490    1.8435180   -0.9889010  
H    -2.8701750   -0.9865800    2.7026650  
C     1.4566610    0.2356890   -0.2964160  
C     2.8116760    0.3679550   -0.1101490  
C     3.0600260    1.8036850    0.0604320  
C     1.7432400    2.4686870   -0.0502270  
N     0.7986770    1.4498670   -0.2726000  
C     1.5324740    3.7961590    0.0982660  
C     2.6902140    4.6544080    0.3598720  
O     2.5942910    5.8602780    0.5195260  
C     4.1021120    3.9770870    0.4473510  
O     5.0812130    4.6749040    0.6540160  
C     4.1893010    2.5185480    0.2920680  
H     0.5585320    4.2641670    0.0189270  
H     5.1570450    2.0401230    0.3772060  
H     0.8842900   -0.6648740   -0.4737420  
C     3.7639790   -0.7099140   -0.1042000  
C     3.5495310   -2.0577350   -0.2845690  
C     4.8376390   -2.6780630   -0.1807290  
C     5.7795710   -1.5330490    0.0764180  
N     5.1494360   -0.3957570    0.1193000  
C     7.1929110   -1.7396560    0.2457570  
C     7.6498280   -3.0114890    0.1634360  
O     8.9323980   -3.3634170    0.2982930  
C     6.7256440   -4.1893630   -0.0957060  
O     7.2554300   -5.3013650   -0.1484340  
C     5.2963710   -3.9547280   -0.2635860  
H     2.6127550   -2.5631880   -0.4753580  
H     7.8508250   -0.8977550    0.4298710  
H     8.9402790   -4.3426630    0.1873010  
H     4.6656000   -4.8186540   -0.4479660  
