64


C     4.2791590   -0.5400420    0.2412400  
C     4.7556170   -1.6985020    0.8039970  
C     6.0850910   -1.8909440    0.2970500  
C     6.3678580   -0.8005800   -0.5675140  
N     5.2521870    0.0195620   -0.5749640  
C     7.5885910   -0.6602140   -1.2352610  
C     8.5472760   -1.6419300   -1.0300920  
O     9.7542140   -1.5574100   -1.6649980  
C     8.2869340   -2.7348530   -0.1641200  
O     9.3397910   -3.6260650   -0.0562540  
C     7.0790900   -2.8684120    0.4974840  
H     4.2295510   -2.3111010    1.5223000  
H     5.0812960    0.7779580   -1.2176060  
H     7.8069010    0.1722910   -1.8962910  
H    10.2771770   -2.3293330   -1.3884040  
H     9.0932950   -4.3429590    0.5463340  
H     6.9045880   -3.7160910    1.1574200  
C     1.8120850   -0.6258010    0.3340930  
C     0.7608760    0.2430100    0.4886570  
C     1.3444440    1.5617380    0.6208760  
C     2.7511550    1.4185620    0.5418610  
N     3.0246940    0.0620530    0.3593130  
C     3.6279380    2.5020210    0.6864220  
C     3.0697230    3.7547690    0.8966360  
O     3.8811760    4.8438210    1.0404790  
C     1.6627440    3.9160340    0.9746260  
O     1.2572850    5.2212500    1.1907750  
C     0.8019420    2.8409090    0.8479120  
H     4.7065320    2.3947180    0.6684720  
H     3.3054000    5.6063110    1.2232240  
H     0.3063450    5.2344050    1.3749550  
H    -0.2734460    2.9786270    0.9327680  
H     1.8086200   -1.6912000    0.1565380  
C    -1.2354520   -1.1024910    1.2843890  
C    -0.6589150   -0.1111860    0.5243190  
C    -1.7382600    0.4833210   -0.2347620  
C    -2.9265700   -0.2107270    0.1059940  
N    -2.5855260   -1.1993930    1.0080580  
C    -4.1851770    0.0774130   -0.4746500  
C    -4.2093750    1.1733210   -1.3512820  
O    -5.3886940    1.6085950   -1.8745520  
C    -3.0234130    1.8656980   -1.7030750  
O    -3.2311500    2.8991650   -2.6024780  
C    -1.7924750    1.5228690   -1.1816670  
H    -3.2772360   -1.5437800    1.6664010  
H    -5.1729460    2.3175070   -2.5056680  
H    -2.3750780    3.2438220   -2.8961310  
H    -0.8926790    2.0557610   -1.4799410  
H    -0.7771310   -1.7474780    2.0213650  
C    -6.0991360   -1.4876330    3.2233820  
C    -7.2703740   -1.9668010    2.7496070  
C    -7.2003420   -1.7814290    1.3051970  
C    -5.8732360   -1.1136890    1.0761500  
N    -5.2339430   -0.9738000    2.2058500  
C    -5.4119790   -0.7211650   -0.2487300  
C    -6.2015020   -1.1500150   -1.2840570  
O    -5.8902300   -0.9892000   -2.5755940  
C    -7.5160610   -1.8486550   -1.0841570  
O    -8.1493040   -2.1747430   -2.0886700  
C    -7.9950250   -2.1340940    0.2790950  
H    -8.0870610   -2.4108680    3.3013480  
H    -6.6444940   -1.3778980   -3.0729020  
H    -8.9491420   -2.6421680    0.3799000  
H    -5.7564660   -1.4538040    4.2507220  
