60


C    -1.9149100   -2.1927270    0.0410140  
C    -2.9287820   -1.3381860    0.4931490  
C    -4.1565680   -2.0436320    0.4060180  
C    -3.8552250   -3.3403880   -0.1097720  
N    -2.5021910   -3.3952990   -0.3196550  
C    -4.8391740   -4.3115430   -0.3263410  
C    -6.1470180   -3.9736430   -0.0154420  
O    -7.1444530   -4.8779490   -0.2041600  
C    -6.4673930   -2.6828250    0.5040600  
O    -7.8129890   -2.5132030    0.7586810  
C    -5.4990730   -1.7256640    0.7160090  
H    -2.7957430   -0.3565780    0.9251100  
H    -1.9393980   -4.1858880   -0.6120740  
H    -4.6162960   -5.2980420   -0.7183020  
H    -7.9774400   -4.4561350    0.0704540  
H    -7.9690940   -1.6237420    1.1091720  
H    -5.7649470   -0.7477910    1.1121090  
C     0.5158130    1.4672000   -0.0657680  
C     1.7676240    0.8879360   -0.0737370  
C     1.5924030   -0.5361110   -0.0568460  
C     0.1375820   -0.7672470   -0.0248200  
N    -0.4530850    0.4731640    0.0057910  
C    -0.4862570   -2.0009070   -0.0553410  
C     0.4237070   -3.1454160   -0.2555410  
O     0.0374240   -4.2793410   -0.5143910  
C     1.9744830   -2.9368670   -0.1168690  
O     2.6592180   -3.9360750    0.0220290  
C     2.5143130   -1.5692150   -0.0954040  
H     2.7091310    1.4137770   -0.1261640  
H    -1.4302430    0.6715320   -0.1601150  
C     0.0949540    2.8382710   -0.1327550  
C     0.8370690    3.9868760   -0.2110830  
C    -0.1236620    5.0609660   -0.2653830  
C    -1.4575950    4.3730270   -0.2086950  
N    -1.3235050    3.0807130   -0.1304310  
C    -2.6905940    5.1133470   -0.2412340  
C    -2.6086420    6.4626400   -0.3247960  
O    -3.6662840    7.2795200   -0.3631580  
C    -1.2785080    7.1864850   -0.3829350  
O    -1.3145240    8.4141470   -0.4562700  
C    -0.0351260    6.4107460   -0.3495150  
H     1.9135170    4.0819320   -0.2360270  
H    -3.6415950    4.5943480   -0.2011930  
H    -3.2928230    8.1882660   -0.4243770  
H     0.8989210    6.9618310   -0.3953400  
C     5.1904820    0.5812960    2.6893080  
C     6.3851700    0.3077440    2.1040480  
C     6.1154680   -0.4915880    0.9269230  
C     4.6451340   -0.6572710    0.8689050  
N     4.1439920    0.0307390    1.9588280  
C     3.9672620   -1.3881880   -0.0703390  
C     4.7930290   -1.9976380   -1.1443110  
O     4.3034970   -2.5369650   -2.1193660  
C     6.3582020   -1.8743500   -1.0644860  
O     7.0329640   -2.4510920   -1.9034360  
C     6.9364080   -1.0669830    0.0052870  
H     7.3587170    0.6191170    2.4535320  
H     8.0175000   -0.9752070    0.0443710  
H     4.9787630    1.1411090    3.5908510  
H     3.1723010    0.0370290    2.2269920  
