62


C    -3.3822550   -1.9120580    0.1858660  
C    -2.0964620   -1.4696070    0.0249240  
C    -2.1678200   -0.0841790   -0.3425090  
C    -3.5451410    0.2614180   -0.3742350  
N    -4.2771760   -0.8781920   -0.0566220  
C    -3.9977900    1.5583420   -0.6546390  
C    -3.0374780    2.5211290   -0.9285040  
O    -3.4234000    3.7932050   -1.2253580  
C    -1.6573570    2.1963800   -0.9146950  
O    -0.8378250    3.2651720   -1.2251920  
C    -1.1960370    0.9142940   -0.6148460  
H    -1.2043590   -2.0636150    0.1639570  
H    -5.0473690    1.8311480   -0.6411950  
H    -2.6177260    4.3067490   -1.4095750  
H     0.0572300    2.9474420   -1.4189700  
H    -3.7603380   -2.8904680    0.4444700  
C     0.8632380   -0.4275280   -1.2428480  
C     0.2457090    0.6010090   -0.5959260  
C     1.2962760    1.2822470    0.1658840  
C     2.5549500    0.5493530   -0.0947990  
N     2.2215320   -0.4865190   -0.9266200  
C     3.7959230    0.8836790    0.4105220  
C     3.8511780    2.1350330    1.1878940  
O     4.8948310    2.6667800    1.5462130  
C     2.5077110    2.8454680    1.5837150  
O     2.5574880    3.7863830    2.3561740  
C     1.2598100    2.3619700    0.9920560  
H     0.3431880    2.8898040    1.2321210  
H     0.4349890   -1.1586640   -1.9150050  
H     2.9067380   -1.0361350   -1.4262860  
C     4.9916640    0.0938890    0.1756790  
C     5.1229620   -1.2309520   -0.1992500  
C     6.5262260   -1.5351260   -0.2682060  
C     7.2347710   -0.2827530    0.0960240  
N     6.2554740    0.6572760    0.3345790  
C     8.5847550   -0.1594840    0.1601550  
C     9.4045960   -1.3276920   -0.1506850  
O    10.6257750   -1.3110620   -0.1213010  
C     8.6742250   -2.6651690   -0.5420170  
O     9.3461280   -3.6510840   -0.8076580  
C     7.2121410   -2.6727710   -0.5731380  
H     4.3293800   -1.9569310   -0.2969240  
H     9.0865650    0.7641430    0.4309120  
H     6.7190710   -3.6027110   -0.8405500  
H     6.3717140    1.5768300    0.7431470  
C    -7.0272420   -2.0176740    3.2437920  
C    -5.9077010   -1.7045910    2.5174070  
C    -6.3486480   -1.3829410    1.1898190  
C    -7.7621580   -1.5171540    1.1713110  
N    -8.1452920   -1.9084670    2.4378350  
C    -8.5387010   -1.2558570    0.0358450  
C    -7.8748750   -0.8570760   -1.1133850  
O    -8.5799740   -0.5904240   -2.2497570  
C    -6.4605580   -0.7348790   -1.1356560  
O    -5.9440610   -0.3740550   -2.3603620  
C    -5.6968900   -0.9902830   -0.0004340  
H    -4.8915460   -1.6964290    2.8845310  
H    -9.0950070   -2.0719970    2.7328030  
H    -9.6200200   -1.3452190    0.0268010  
H    -7.9389520   -0.3068210   -2.9249450  
H    -5.0162970   -0.1032720   -2.2619080  
H    -7.1248530   -2.3104950    4.2795890  
