62


C    -3.1533640    1.4057500   -1.3820090  
C    -3.0868530    0.3244500   -0.4995280  
C    -4.4443590    0.1334610   -0.0034530  
C    -5.2450170    1.1341500   -0.6054620  
N    -4.4251440    1.8778470   -1.4454050  
C    -6.6067140    1.3016540   -0.3403390  
C    -7.1871780    0.4310610    0.5695740  
O    -8.5105590    0.5378260    0.8652170  
C    -6.4041690   -0.5736290    1.1954220  
O    -7.1157950   -1.3623940    2.0744700  
C    -5.0571190   -0.7294640    0.9258910  
H    -4.7408830    2.6113170   -2.0627640  
H    -7.2081960    2.0736040   -0.8088380  
H    -8.7207070   -0.1598650    1.5104720  
H    -6.5404930   -2.0587500    2.4253590  
H    -4.4912420   -1.5253420    1.3953160  
H    -2.3742070    1.8099680   -2.0110620  
C     1.1684130    1.6320420   -0.1359840  
C    -0.2040380    1.6389010   -0.2393720  
C    -0.6097580    0.2557780   -0.2467430  
C     0.6571070   -0.4992000   -0.1640810  
N     1.6845780    0.3080200   -0.0975320  
C     0.7137610   -1.9584310   -0.1376230  
C    -0.5038440   -2.5656410    0.0322870  
O    -0.6503590   -3.8837040    0.2511200  
C    -1.8010120   -1.8359210    0.0079270  
O    -2.8233520   -2.5081350    0.1836540  
C    -1.8411620   -0.3594820   -0.2379900  
H    -0.8521090    2.5014570   -0.1880160  
H    -1.6204970   -4.0244580    0.3094690  
C     1.1818350    5.7621080   -1.8327600  
C     0.8376550    4.4713080   -1.5869360  
C     1.8329870    3.9819680   -0.6444470  
C     2.7341990    5.1468250   -0.4455170  
N     2.3475740    6.1873980   -1.1356360  
C     3.8960470    5.0739130    0.4012830  
C     4.1553400    3.8975070    1.0150740  
O     5.2070780    3.6913740    1.8283540  
C     3.2553980    2.7015640    0.8636790  
O     3.5436500    1.7137210    1.5373880  
C     2.0483520    2.7794110   -0.0266900  
H     0.0228060    3.9077250   -2.0165700  
H     4.5334340    5.9422940    0.5262510  
H     5.1105720    2.7682970    2.1480140  
H     0.6869450    6.4679950   -2.4896690  
C     4.7456450   -1.5664250    1.8016370  
C     5.2752360   -2.7400560    1.3304480  
C     4.2876750   -3.3193590    0.4674240  
C     3.1622720   -2.4485200    0.4759850  
N     3.4643110   -1.4013590    1.3196230  
C     1.9682890   -2.7302230   -0.2401640  
C     2.0154130   -3.8674720   -1.0683390  
O     0.9786290   -4.1508000   -1.9034590  
C     3.1409050   -4.7274200   -1.0902920  
O     2.9957130   -5.8092280   -1.9448470  
C     4.2583940   -4.4861350   -0.3189420  
H     6.2497420   -3.1464980    1.5647040  
H     3.0011880   -0.4985720    1.2408230  
H     1.2005520   -4.9841040   -2.3548660  
H     3.8186280   -6.3191470   -1.9579550  
H     5.1051840   -5.1697760   -0.3407500  
H     5.1779860   -0.8155840    2.4478080  
