62


C    -3.6497130    0.2042030   -0.2275090  
C    -4.3534010    1.3941570   -0.3599570  
C    -3.4008980    2.4464870   -0.5349280  
C    -2.1153290    1.8444420   -0.5135980  
N    -2.2978190    0.4977370   -0.3203500  
C    -0.9140230    2.5701690   -0.6655920  
C    -1.0469290    3.9507440   -0.8220720  
O     0.0662060    4.7262590   -0.9898200  
C    -2.3239920    4.5690070   -0.8332030  
O    -2.2683770    5.9409570   -1.0003840  
C    -3.4924460    3.8429940   -0.7008960  
H    -5.4275110    1.4966240   -0.4198620  
H    -1.5823640   -0.2134910   -0.2947180  
H    -0.2397620    5.6436810   -1.1007320  
H    -3.1668230    6.2961380   -1.0675380  
H    -4.4576700    4.3451430   -0.7197370  
C     0.7060570    0.8053040   -1.4602920  
C     0.3889770    1.8826830   -0.6892000  
C     1.5684960    2.1569630    0.1330070  
C     2.5740310    1.1294520   -0.2279570  
N     2.0131320    0.3707240   -1.2244760  
C     3.7983070    1.0056460    0.3755490  
C     4.1715970    2.0067340    1.3810730  
O     5.2639650    2.0213340    1.9278860  
C     3.1186110    3.1173070    1.7464990  
O     3.4304340    3.9495430    2.5817710  
C     1.8224670    3.1065580    1.0687190  
H     1.1053210    3.8761210    1.3274190  
H     0.1024010    0.3033680   -2.2049830  
H     2.3912650   -0.5074890   -1.5491660  
C     6.0818390    0.1761020   -0.1980430  
C     6.7079480   -0.9898900   -0.4825170  
C     5.7253480   -2.0468890   -0.3879320  
C     4.4493300   -1.3883470   -0.0063170  
N     4.7130040   -0.0256240    0.0657930  
C     3.2905090   -2.0626070    0.2355910  
C     3.2754810   -3.5128680    0.0645150  
O     2.2723600   -4.1895440    0.2389440  
C     4.6069780   -4.2213840   -0.3735850  
O     4.6071110   -5.4307010   -0.5408200  
C     5.8010170   -3.3923390   -0.5594430  
H     7.7531730   -1.1106490   -0.7274190  
H     2.3838270   -1.5869250    0.5915770  
H     6.7254430   -3.8957560   -0.8260310  
H     6.4769660    1.1792010   -0.1484610  
C    -7.4305310   -1.2967660    1.4834550  
C    -7.1919340   -2.6345140    1.3191840  
C    -5.8923390   -2.7604180    0.7209290  
C    -5.3937700   -1.4461990    0.5280230  
N    -6.3619590   -0.5732150    0.9831720  
C    -4.1171970   -1.1645920   -0.0171720  
C    -3.3380020   -2.2916280   -0.3148280  
O    -2.0562030   -2.1494950   -0.7966470  
C    -3.8286640   -3.6075930   -0.1409950  
O    -2.9285390   -4.5839510   -0.5310840  
C    -5.0926000   -3.8596780    0.3560320  
H    -7.8596990   -3.4401770    1.5915580  
H    -6.1931580    0.4062040    1.1544410  
H    -1.6846400   -3.0491500   -0.8604120  
H    -3.1858490   -5.4377600   -0.1533990  
H    -5.4479420   -4.8807390    0.4742880  
H    -8.2844930   -0.7863420    1.9061530  
