62


C    -3.5458530    0.2755210   -0.3860970  
C    -4.0118890    1.5637370   -0.2978650  
C    -5.4407570    1.4818310   -0.1867740  
C    -5.7865560    0.1044100   -0.2016720  
N    -4.6087630   -0.6147970   -0.3106170  
C    -7.1071930   -0.3457630   -0.1038390  
C    -8.1035750    0.6129360    0.0093050  
O    -9.4116600    0.2278180    0.0994650  
C    -7.7776760    1.9934600    0.0340120  
O    -8.8765340    2.8254740    0.1577880  
C    -6.4699510    2.4348890   -0.0594590  
H    -3.3982370    2.4531690   -0.2771550  
H    -4.5351620   -1.5994720   -0.5164930  
H    -7.3741020   -1.3975920   -0.1150180  
H    -9.9431450    1.0389770    0.1730800  
H    -8.5811960    3.7477560    0.1630980  
H    -6.2455880    3.4996040   -0.0372840  
C    -1.3279030    0.3434090   -1.4742110  
C    -0.1416540   -0.3248580   -1.3893040  
C    -0.2839970   -1.3323150   -0.3757170  
C    -1.6096190   -1.2243100    0.1234080  
N    -2.2415150   -0.1914500   -0.5677060  
C    -2.1162800   -2.0377770    1.1412370  
C    -1.2754650   -3.0224820    1.6359800  
O    -1.7081900   -3.8593540    2.6200550  
C     0.0394350   -3.1858600    1.1352390  
O     0.7506910   -4.1906350    1.7614330  
C     0.5752670   -2.3400800    0.1495190  
H     0.7438630   -0.0864580   -1.9551930  
H    -3.1146480   -1.9227220    1.5475820  
H    -0.9595280   -4.4607990    2.7952300  
H     1.1469070   -4.7593670    1.0676960  
H    -1.6270410    1.1649650   -2.1078820  
C     3.8844760    0.5739380   -0.3443490  
C     4.9240320   -0.2571290   -0.6712770  
C     4.3576040   -1.5855740   -0.7409670  
C     2.9131980   -1.3915530   -0.3867540  
N     2.6493470   -0.1428130   -0.1585800  
C     1.9726500   -2.5159230   -0.2997910  
C     2.5201590   -3.7285560   -0.6037740  
O     1.8132790   -4.8941970   -0.5804790  
C     3.9412580   -3.9461940   -0.9948180  
O     4.2887750   -5.1039420   -1.2569260  
C     4.8558720   -2.8030510   -1.0468980  
H     5.9348030    0.0180110   -0.9427940  
H     2.4675620   -5.5789230   -0.8606140  
H     5.8888740   -2.9970510   -1.3186310  
C     6.8274110    3.1706350    1.6022960  
C     6.1991530    4.3663080    1.4733060  
C     4.9599050    4.1257800    0.7625680  
C     4.9248370    2.6738810    0.4767140  
N     6.0933080    2.1577550    0.9866160  
C     3.8898460    2.0101060   -0.1372610  
C     2.7722540    2.8490500   -0.6290500  
O     1.8945270    2.4280570   -1.3597280  
C     2.7629760    4.3777190   -0.2659320  
O     1.7845440    5.0443330   -0.5613520  
C     3.9358390    4.9450080    0.4009040  
H     6.5511220    5.3211280    1.8354700  
H     3.9302820    6.0092350    0.6158930  
H     7.7685830    2.9344930    2.0806460  
H     6.2697270    1.1665770    1.0702740  
