60


C     4.3581150   -1.6927050   -1.3092170  
C     4.9896920   -0.6506570   -0.6337020  
C     6.1737640   -1.2368470   -0.0231290  
C     6.1724850   -2.6143430   -0.3524880  
N     5.0579650   -2.8527960   -1.1426450  
C     7.1436430   -3.5162860    0.0933040  
C     8.1535140   -3.0138440    0.8996890  
O     9.1351630   -3.8386520    1.3573630  
C     8.1724760   -1.6382140    1.2496030  
O     9.2367920   -1.2847860    2.0546240  
C     7.2054120   -0.7560820    0.8074850  
H     4.8389290   -3.7316990   -1.5866130  
H     7.1339310   -4.5697380   -0.1666700  
H     9.7509220   -3.2913070    1.8757670  
H     9.2669110   -0.3203350    2.1445660  
H     7.2646150    0.2955990    1.0627020  
H     3.4880570   -1.6586860   -1.9481860  
C     0.8396750    0.9765320   -0.5020690  
C     1.9630620    0.1769330   -0.4668740  
C     3.1240240    1.0062220   -0.5956930  
C     2.6220940    2.3906890   -0.7034350  
N     1.2426880    2.3163420   -0.6108780  
C     3.3918150    3.5001080   -0.8578080  
C     4.8299800    3.3278770   -0.8597270  
O     5.6271950    4.2485640   -0.9645830  
C     5.4077400    1.8713140   -0.6851930  
O     6.6214090    1.7561580   -0.6380690  
C     4.4794190    0.7111090   -0.6089130  
H     1.9584880   -0.8836920   -0.2662510  
H     2.9858360    4.5024750   -0.9504700  
H     0.6351890    3.0519530   -0.9409330  
C    -1.1195460   -0.5989590   -0.7145830  
C    -0.5422900    0.6072070   -0.4080680  
C    -1.6724650    1.4326950    0.0631980  
C    -2.8600850    0.5413900   -0.0470300  
N    -2.5015050   -0.6387310   -0.4967480  
C    -4.2069670    0.9675980    0.3225270  
C    -4.2984890    2.2559480    0.8225310  
O    -5.4174600    2.8517110    1.2278740  
C    -3.0987140    3.1477580    0.9773020  
O    -3.2827340    4.2765010    1.4378440  
C    -1.7668720    2.6719700    0.5795110  
H    -5.1327270    3.7476660    1.5269900  
H    -0.9330180    3.3474750    0.7406920  
H    -0.6271050   -1.4758690   -1.1171590  
C    -5.3425160    0.0740680    0.1671660  
C    -5.3504100   -1.2238060   -0.2779590  
C    -6.7317140   -1.6437510   -0.2414210  
C    -7.4702420   -0.4439600    0.2655130  
N    -6.6688920    0.5478960    0.5015220  
C    -8.9012880   -0.4589250    0.4450800  
C    -9.5597370   -1.6009430    0.1397080  
O   -10.8863250   -1.7642090    0.2556720  
C    -8.8408320   -2.8277800   -0.3730990  
O    -9.5286370   -3.8181690   -0.6232470  
C    -7.3837650   -2.7891870   -0.5489080  
H    -4.4983950   -1.8056350   -0.5884970  
H    -9.4126590    0.4233760    0.8134280  
H   -11.0574150   -2.6873570   -0.0378840  
H    -6.9024560   -3.6889260   -0.9198750  
