66


C    -0.2343820   -3.1094190   -0.1230830  
C    -0.9560450   -4.2819630   -0.0263270  
C    -2.3447270   -3.9344320   -0.0007770  
C    -2.4207630   -2.5191170   -0.0627660  
N    -1.1273420   -2.0389730   -0.1120880  
C    -3.6336860   -1.7930590   -0.0698870  
C    -4.7936670   -2.5802230   -0.0663440  
O    -6.0325980   -1.9847880   -0.1115380  
C    -4.7360940   -3.9926090    0.0001520  
O    -5.9834440   -4.5936140    0.0181750  
C    -3.5383320   -4.6807930    0.0503160  
H    -0.5354670   -5.2750900    0.0517830  
H    -0.9025800   -1.1205660   -0.4694610  
H    -6.6917510   -2.6998980   -0.0717380  
H    -5.8775920   -5.5531000    0.0938100  
H    -3.5240560   -5.7671680    0.1047350  
C     1.1870850   -2.8592250   -0.1737660  
C     2.2517010   -3.7006610   -0.4152580  
C     3.4470720   -2.9229670   -0.2881350  
C     3.0504230   -1.5913640    0.0132750  
N     1.6677000   -1.5657830    0.0368980  
C     3.9565090   -0.5196750    0.1973740  
C     5.3081800   -0.8818160    0.1111780  
O     6.2984240    0.0586080    0.2922510  
C     5.7187390   -2.2024450   -0.1912930  
O     7.0960340   -2.3531050   -0.2577650  
C     4.8149960   -3.2236840   -0.4076050  
H     2.1854200   -4.7460770   -0.6839790  
H     1.2017750   -0.9168390    0.6638040  
H     7.1413440   -0.4306550    0.2979110  
H     7.3149160   -3.2964550   -0.2558680  
H     5.1563190   -4.2262230   -0.6563320  
C    -3.6502650   -0.3317020   -0.0683100  
C    -2.6760790    0.5689960    0.3410740  
C    -3.1876910    1.8867880    0.1387060  
C    -4.4944230    1.7433260   -0.4018470  
N    -4.7415510    0.3956330   -0.5251960  
C    -5.3009110    2.8432220   -0.7217100  
C    -4.7778510    4.1067990   -0.4947310  
O    -5.5183910    5.2159180   -0.7949770  
C    -3.4732730    4.2661350    0.0453710  
O    -3.0972360    5.5894800    0.2177890  
C    -2.6785080    3.1820790    0.3647770  
H    -1.7350950    0.3217990    0.8105140  
H    -5.6200240   -0.0369020   -0.7695540  
H    -6.2976130    2.7417030   -1.1387420  
H    -4.9647050    5.9894530   -0.5922160  
H    -2.1534540    5.6235410    0.4308200  
H    -1.6838530    3.3216440    0.7855520  
C     5.2600310    3.2408750   -1.7738760  
C     4.3497650    4.0888070   -1.2041090  
C     3.5643830    3.3036280   -0.2943920  
C     4.0503750    1.9669970   -0.3654360  
N     5.0614880    1.9556320   -1.3044440  
C     3.5065130    0.8893430    0.3788300  
C     2.4567230    1.2497680    1.2348380  
O     1.8487500    0.3098030    2.0394400  
C     1.9579760    2.5717570    1.3064530  
O     0.8735240    2.7248760    2.1738730  
C     2.4836970    3.5998870    0.5514310  
H     4.2367260    5.1438030   -1.4128970  
H     5.7686430    1.2331160   -1.3121750  
H     1.2243360    0.8068820    2.6016830  
H     0.9447870    3.5820400    2.6199530  
H     2.0654250    4.6020230    0.6101190  
H     6.0391150    3.4404540   -2.4966460  
