60


C    -4.5854060    1.0279100   -0.0804480  
C    -4.6067750   -0.3714050   -0.1097300  
C    -5.9061200   -0.7679400   -0.5000490  
C    -6.6700440    0.4225920   -0.7074650  
N    -5.8483670    1.4875150   -0.4480330  
C    -8.0115410    0.3944670   -1.1026880  
C    -8.5923950   -0.8511280   -1.2898940  
O    -9.8926410   -0.9410060   -1.6719340  
C    -7.8450590   -2.0527480   -1.0862080  
O    -8.5802130   -3.1976990   -1.3168570  
C    -6.5253370   -2.0254750   -0.6987780  
H    -3.7675890   -1.0012250    0.1422960  
H    -6.0946610    2.4664860   -0.4708690  
H    -8.6007760    1.2912500   -1.2619010  
H   -10.1102540   -1.8874190   -1.7427700  
H    -8.0310510   -3.9770600   -1.1442640  
H    -5.9689720   -2.9474720   -0.5460460  
C    -0.3829280    0.1952220    0.9102860  
C     0.0533090    1.4676340    1.2147800  
C    -1.0762900    2.3353490    1.0254040  
C    -2.1745160    1.4246600    0.5884390  
N    -1.7690960    0.1967660    0.5161680  
C    -3.5205310    1.9281290    0.2769720  
C    -3.6642920    3.2943410    0.3787960  
O    -4.8310550    3.9391060    0.1202690  
C    -2.5925000    4.2131910    0.8053650  
O    -2.8631330    5.4246280    0.8684580  
C    -1.2712290    3.6719890    1.1328970  
H     1.0197500    1.7611490    1.5977570  
H    -4.6191050    4.8877980    0.2947690  
H    -0.5026980    4.3786920    1.4317990  
C     3.9256470   -0.7838380    0.2712920  
C     2.6994860   -0.1464760    0.3853680  
C     1.7203720   -1.1275760    0.7090860  
C     2.4393790   -2.4221930    0.7585040  
N     3.7630170   -2.1380170    0.5165900  
C     1.8571500   -3.6338000    0.9645700  
C     0.4166900   -3.6815110    1.1388730  
O    -0.2147290   -4.7229540    1.2419730  
C    -0.3706240   -2.3240300    1.2173660  
O    -1.5313210   -2.3718550    1.5800080  
C     0.3446440   -1.0469530    0.9211740  
H     2.5278010    0.9044260    0.2154480  
H     2.4121450   -4.5666180    0.9646560  
H     4.5301170   -2.7915620    0.4406190  
C     5.2263180   -0.2792680   -0.0515170  
C     5.6320290    1.0046360   -0.3232750  
C     7.0449330    0.9112660   -0.5807230  
C     7.3598480   -0.5465860   -0.4205580  
N     6.2955850   -1.2335810   -0.1119340  
C     8.6931870   -1.0529610   -0.6004260  
C     9.6630300   -0.1626320   -0.9215910  
O    10.9450320   -0.4869000   -1.1189310  
C     9.3781960    1.3151140   -1.0904640  
O    10.3328610    2.0371920   -1.3830010  
C     8.0132620    1.8074250   -0.9025310  
H     5.0297220    1.9020600   -0.3425140  
H     8.8985660   -2.1106560   -0.4798700  
H    11.3966590    0.3612110   -1.3342670  
H     7.8426230    2.8716390   -1.0312320  
