62


C    -1.7219450   -0.3571470   -3.0209640  
C    -2.9131290   -0.0273610   -2.4336560  
C    -2.7256220   -0.1217990   -1.0116550  
C    -1.3789840   -0.5076620   -0.7958710  
N    -0.7760060   -0.6134320   -2.0383570  
C    -0.8194690   -0.7225430    0.4822660  
C    -1.6825610   -0.5300600    1.5626850  
O    -1.2182490   -0.6776470    2.8317320  
C    -3.0316030   -0.1383410    1.3659990  
O    -3.7440040    0.0043070    2.5390170  
C    -3.5810820    0.0795210    0.1017210  
H    -3.8247120    0.2467090   -2.9444060  
H     0.1017140   -1.0862440   -2.1980130  
H    -1.9874590   -0.6297280    3.4267550  
H    -4.6911950    0.0562970    2.3205150  
H    -1.4520220   -0.4177590   -4.0658910  
C     2.9082190    1.2157550   -0.7364430  
C     3.8340110    0.3191960   -0.2768350  
C     3.0737310   -0.7622280    0.3574100  
C     1.6450660   -0.4043500    0.2177350  
N     1.6171620    0.8114920   -0.4452660  
C     0.5862740   -1.1352650    0.6763510  
C     0.9159700   -2.4062710    1.3577300  
O     0.0706660   -3.2028870    1.7232150  
C     2.4307790   -2.7600460    1.5913100  
O     2.7039630   -3.7542910    2.2441750  
C     3.4559460   -1.8857470    1.0159070  
H     4.4932560   -2.1758590    1.1364850  
H     3.0753780    2.1320620   -1.2884870  
H     0.7714490    1.2578040   -0.7669860  
C     6.5479140    3.6045390    0.7789540  
C     7.7251720    3.0793880    0.3534430  
C     7.4420660    1.7668280   -0.1891360  
C     5.9801140    1.5714150   -0.0476660  
N     5.4900610    2.7397810    0.5098220  
C     5.2916540    0.4427120   -0.3989390  
C     6.0914410   -0.6548120   -0.9806920  
O     5.5958570   -1.7044790   -1.3562520  
C     7.6459530   -0.4608760   -1.1471760  
O     8.2964520   -1.3812510   -1.6167380  
C     8.2398900    0.8044670   -0.7264720  
H     8.6958830    3.5503400    0.4072270  
H     9.3122390    0.9260400   -0.8431430  
H     6.3528340    4.5578620    1.2523690  
H     4.5634660    2.8157590    0.9029290  
C    -7.1522860   -1.9168760   -1.8047380  
C    -5.8938710   -1.6295950   -1.3440610  
C    -5.9605990   -0.3422750   -0.7114890  
C    -7.3048330    0.1044200   -0.8186150  
N    -8.0065010   -0.8747720   -1.4912130  
C    -7.7463810    1.3255380   -0.2938200  
C    -6.8099230    2.1155690    0.3523350  
O    -7.1787310    3.3221540    0.8749410  
C    -5.4620290    1.6886290    0.4760280  
O    -4.6494330    2.5914500    1.1316320  
C    -5.0106000    0.4725630   -0.0407990  
H    -5.0195030   -2.2561110   -1.4438030  
H    -8.9895980   -0.8400060   -1.7098890  
H    -8.7727940    1.6682070   -0.3773200  
H    -6.3785430    3.7248750    1.2544510  
H    -3.7327280    2.2700180    1.0889600  
H    -7.5185450   -2.7843270   -2.3355010  
