62


C     6.8106230   -2.4928860   -1.5584180  
C     6.2720720   -3.7518020   -1.5169980  
C     4.9807290   -3.6347010   -0.9020830  
C     4.7946600   -2.2677120   -0.5778930  
N     5.9291140   -1.5984630   -0.9785260  
C     3.6059310   -1.7536810    0.0016790  
C     2.5954180   -2.6979740    0.2561570  
O     1.4336220   -2.3375230    0.8688760  
C     2.7813720   -4.0701620   -0.0496640  
O     1.7000830   -4.8598040    0.2964000  
C     3.9475600   -4.5474310   -0.6157190  
H     6.7366590   -4.6567090   -1.8833620  
H     6.0187760   -0.5934430   -0.9849200  
H     0.8822250   -3.1400930    0.9109130  
H     1.8189580   -5.7530760   -0.0581970  
H     4.0594210   -5.6072720   -0.8348890  
H     7.7603900   -2.1512030   -1.9446350  
C     3.4604330   -0.3382870    0.2960400  
C     4.4244080    0.5511430    0.6994670  
C     3.7573730    1.8196980    0.8503970  
C     2.3420390    1.5514720    0.4201850  
N     2.1810770    0.2925790    0.1276700  
C     1.3217120    2.5871080    0.3783630  
C     1.6987690    3.7758010    0.9481350  
O     0.8734790    4.8082260    1.1373310  
C     3.1012820    4.0627420    1.4265250  
O     3.3134480    5.1839800    1.8955580  
C     4.1288620    3.0283510    1.3291370  
H     5.4440590    0.3327470    0.9861820  
H     1.4354940    5.5108090    1.5389890  
H     5.1276170    3.2733220    1.6763540  
C    -1.6856320   -0.6712480    0.7968870  
C    -2.7394210   -0.0709280    0.1203370  
C    -2.2023630    1.1762260   -0.4005050  
C    -0.8584620    1.2673140    0.0431830  
N    -0.5784060    0.1248990    0.7752310  
C    -0.0245490    2.3852300   -0.2076330  
C    -0.5752650    3.3654300   -1.0472890  
O     0.1791000    4.4162010   -1.4693170  
C    -1.9151100    3.2797290   -1.4987000  
O    -2.3025020    4.3458170   -2.2929280  
C    -2.7394880    2.2262630   -1.1661740  
H     0.3767730   -0.2259620    0.8545480  
H    -0.3955360    4.9617350   -2.0354100  
H    -3.1403360    4.1292580   -2.7285620  
H    -3.7560120    2.1812640   -1.5397940  
H    -1.6468220   -1.6523720    1.2480910  
C    -5.2121960   -2.3342230    3.0239430  
C    -4.2622150   -1.5654220    2.4352380  
C    -4.6611830   -1.3509010    1.0557390  
C    -5.9479610   -2.0564530    0.8935750  
N    -6.2102950   -2.6598730    2.1053470  
C    -6.7059850   -2.0764360   -0.2410250  
C    -6.2270410   -1.3340290   -1.3812820  
O    -6.8254810   -1.2405510   -2.4462090  
C    -4.8465690   -0.5773310   -1.2504460  
O    -4.4567870    0.0435060   -2.2249100  
C    -4.0720300   -0.6509330    0.0233090  
H    -3.3850970   -1.1585610    2.9139780  
H    -7.6487980   -2.6087330   -0.3192170  
H    -5.2797340   -2.6908860    4.0429010  
H    -7.0647840   -3.1474420    2.3237750  
