64


C     4.9510480   -2.0523400   -2.0709240  
C     4.5060060   -1.2686300   -1.0325390  
C     5.6474310   -0.9234610   -0.2253030  
C     6.7692160   -1.5362690   -0.8373780  
N     6.3134590   -2.2219770   -1.9479030  
C     8.0661350   -1.4165690   -0.3210480  
C     8.2277600   -0.6657880    0.8321460  
O     9.4691920   -0.5118460    1.3747430  
C     7.1100700   -0.0499240    1.4603290  
O     7.4352200    0.6558940    2.6016910  
C     5.8315660   -0.1702650    0.9512670  
H     6.8915810   -2.7455490   -2.5861650  
H     8.9305880   -1.8792780   -0.7860670  
H     9.3722180    0.0552090    2.1593740  
H     6.6498580    1.1156470    2.9338880  
H     4.9890040    0.3077720    1.4448890  
H     4.3969850   -2.4944810   -2.8860560  
C     2.1314880   -1.8021430   -0.5329430  
C     0.9555520   -1.1151190   -0.3488330  
C     1.2470580    0.2797460   -0.4932480  
C     2.6335600    0.3704930   -0.7628960  
N     3.1592920   -0.9159720   -0.7899850  
C     3.3048830    1.5857900   -0.9566200  
C     2.5646310    2.7478790   -0.8414670  
O     3.1638140    3.9616100   -0.9986040  
C     1.1722920    2.7128520   -0.5597120  
O     0.6129740    3.9411420   -0.4801160  
C     0.4696170    1.4853420   -0.4061360  
H     0.0136560   -1.5765890   -0.0983930  
H     4.3651730    1.6345410   -1.1779900  
H     2.4607330    4.6279720   -0.8869920  
H    -0.3598780    3.8133760   -0.2476250  
H     2.3383590   -2.8615380   -0.4855460  
C    -0.9540610    1.4853110   -0.1987170  
C    -1.8792530    0.4566730   -0.1861620  
C    -3.1553180    1.0503570    0.0608380  
C    -2.8728860    2.5127140    0.1813800  
N    -1.6000510    2.7526160    0.0250600  
C    -3.9018230    3.4820150    0.4187850  
C    -5.1633510    3.0066280    0.5396030  
O    -6.2346580    3.7676410    0.7664740  
C    -5.4939900    1.5204780    0.4620720  
O    -6.6679760    1.2346700    0.7004370  
C    -4.4320520    0.5467200    0.1698090  
H    -1.7090260   -0.5823680   -0.4106330  
H    -3.6669900    4.5377590    0.4939750  
H    -6.9804260    3.1241090    0.8449960  
C    -2.8197630   -2.9364130    2.3894630  
C    -3.6258750   -3.8958800    1.8355950  
C    -4.4675000   -3.2366560    0.8771210  
C    -4.1206850   -1.8602960    0.8952560  
N    -3.1239190   -1.7056050    1.8361170  
C    -4.7675580   -0.8868940    0.0977080  
C    -5.7651280   -1.3623470   -0.7601550  
O    -6.3829490   -0.5053210   -1.6195670  
C    -6.1169800   -2.7353110   -0.7904880  
O    -7.1198260   -3.0292070   -1.6972550  
C    -5.4928370   -3.6690830    0.0141370  
H    -3.6273290   -4.9482440    2.0843850  
H    -2.6158730   -0.8489620    1.9964630  
H    -7.0744990   -1.0104870   -2.0812730  
H    -7.3425400   -3.9697250   -1.6379270  
H    -5.7862090   -4.7163410   -0.0266810  
H    -2.0487120   -3.0205690    3.1422810  
