62


C     5.2486350    0.1053630   -2.2668500  
C     6.2647430   -0.7644540   -2.5520140  
C     6.5515530   -1.4922050   -1.3482070  
C     5.6578300   -1.0163120   -0.3531590  
N     4.8641890   -0.0291130   -0.9342950  
C     5.6386320   -1.5292520    0.9537750  
C     6.5520870   -2.5275090    1.2625280  
O     6.5747210   -3.0602290    2.5180090  
C     7.4611660   -3.0056410    0.2826350  
O     8.3074820   -3.9956350    0.7437260  
C     7.4661450   -2.5074390   -1.0077020  
H     6.7583230   -0.8706960   -3.5083980  
H     4.9265910   -1.2034960    1.7045170  
H     7.2643100   -3.7462770    2.5280130  
H     8.8750510   -4.3000990    0.0203420  
H     8.1653310   -2.8978170   -1.7447720  
H     4.7589680    0.8426810   -2.8864590  
C     0.5509790    0.4668100   -1.7682540  
C     1.8543730    0.0708760   -1.8043160  
C     2.5416150    0.7773690   -0.7569110  
C     1.5963850    1.6105380   -0.1124000  
N     0.3648000    1.4159210   -0.7556000  
C     1.9133490    2.3698790    1.0178480  
C     3.2212660    2.3199210    1.4766060  
O     3.5830830    3.0530330    2.5662250  
C     4.2005960    1.5304560    0.8225040  
O     5.4589200    1.6244830    1.3643950  
C     3.8711000    0.7546690   -0.2872690  
H     2.2861430   -0.6342430   -2.5001010  
H     1.1963830    2.9948380    1.5337920  
H     4.5231790    2.8675180    2.7378430  
H     6.0237030    0.9085770    1.0258110  
H    -0.2815520    0.1982820   -2.4009840  
C    -3.7098970   -0.2489090   -0.2381320  
C    -2.3433190   -0.1530940   -0.4271750  
C    -2.0344510    1.2398470   -0.3555930  
C    -3.3512340    1.9032480   -0.1170300  
N    -4.3209280    1.0365990   -0.0472630  
C    -3.4773930    3.3298720    0.0364060  
C    -2.3472430    4.0658360   -0.0435080  
O    -2.3026050    5.3975880    0.0899320  
C    -0.9918050    3.4447030   -0.3097930  
O    -0.0467860    4.2223800   -0.4318290  
C    -0.8782330    1.9763020   -0.4362510  
H    -1.6423120   -0.9625650   -0.5693040  
H    -4.4485270    3.7766620    0.2163250  
H    -1.3606370    5.6423180   -0.0555830  
C    -4.1891650   -2.7349910   -0.3620010  
C    -4.5384800   -1.4097010   -0.2017860  
C    -6.0005630   -1.4569200    0.0218220  
C    -6.3300630   -2.9037820   -0.0428910  
N    -5.2565710   -3.6319650   -0.2681020  
C    -7.6674960   -3.3881910    0.1260530  
C    -8.6437530   -2.4718310    0.3516990  
O    -9.9363770   -2.7766240    0.5277980  
C    -8.3426020   -0.9979470    0.4233590  
O    -9.2840830   -0.2352280    0.6306410  
C    -6.9504680   -0.5294040    0.2447780  
H    -7.8736690   -4.4513550    0.0728190  
H   -10.3914100   -1.9163360    0.6683010  
H    -6.7446570    0.5332220    0.2988180  
H    -3.1962170   -3.1280900   -0.5479890  
