62


C     1.1168440    0.8505570    0.3198050  
C     2.1992970    0.0177040    0.1200230  
C     3.3879900    0.8137260    0.2205660  
C     2.9693510    2.1443320    0.4888310  
N     1.5877810    2.1480550    0.5112270  
C     3.8674620    3.1966600    0.6918410  
C     5.2176780    2.8938140    0.6153310  
O     6.1428520    3.8723970    0.8053140  
C     5.6619240    1.5730220    0.3268670  
O     7.0302130    1.4670620    0.2509960  
C     4.7771930    0.5163660    0.1186240  
H     2.1431670   -1.0373520   -0.1082760  
H     1.0289530    2.9028440    0.8803560  
H     3.5531250    4.2128740    0.9051850  
H     7.0192120    3.4568240    0.7158260  
H     7.2826060    0.5269990    0.2210630  
C    -0.8661040   -0.6163640    0.8083330  
C    -0.3001040    0.5366510    0.3508300  
C    -1.4054900    1.3704770   -0.1271900  
C    -2.6454190    0.5896570    0.0849170  
N    -2.2499020   -0.6089730    0.6107890  
C    -3.9251940    1.0296620   -0.1962340  
C    -4.0354940    2.4249830   -0.6541070  
O    -5.0987360    3.0231170   -0.7693600  
C    -2.7264320    3.2103560   -1.0187880  
O    -2.8322400    4.3064450   -1.5402350  
C    -1.4344180    2.6037060   -0.6954490  
H    -0.5391470    3.1702120   -0.9293370  
H    -0.3903210   -1.4722310    1.2664680  
H    -2.8928930   -1.2565060    1.0454400  
C    -5.1058490    0.2022700   -0.0261490  
C    -5.2249960   -1.1739250    0.0488570  
C    -6.6196550   -1.4910060    0.1915570  
C    -7.3363700   -0.1911970    0.1977960  
N    -6.3680870    0.7819530    0.0787520  
C    -8.6831900   -0.0617700    0.3045070  
C    -9.4902650   -1.2730240    0.4247410  
O   -10.7075640   -1.2547200    0.5274880  
C    -8.7508500   -2.6618000    0.4226570  
O    -9.4120540   -3.6848380    0.5252790  
C    -7.2938750   -2.6708110    0.2988710  
H    -4.4404590   -1.9000150   -0.1046170  
H    -9.1913290    0.8974040    0.3050470  
H    -6.7948260   -3.6353460    0.2946670  
H    -6.5063940    1.7708630   -0.0914550  
C     7.6562340   -2.2874840    2.1730150  
C     6.8356030   -1.2312320    1.8677420  
C     6.2147950   -1.5290590    0.6020210  
C     6.7041750   -2.7984510    0.1936400  
N     7.5793310   -3.2320060    1.1687310  
C     6.2974940   -3.4249010   -0.9902790  
C     5.3781930   -2.7516460   -1.7776050  
O     4.9481910   -3.3083870   -2.9457150  
C     4.8803840   -1.4771790   -1.3953080  
O     4.0014510   -0.9388040   -2.3094500  
C     5.2776680   -0.8418460   -0.2194710  
H     6.6698250   -0.3594620    2.4849060  
H     8.0827850   -4.1051470    1.1501260  
H     6.6681920   -4.3950530   -1.3046950  
H     4.3327770   -2.6746170   -3.3542070  
H     3.6727890   -0.0867920   -1.9757100  
H     8.2896720   -2.4503510    3.0334320  
