60


C     6.5426960    3.0007020    0.5782050  
C     7.6097680    2.3297590    0.0423130  
C     7.1360690    1.0298750   -0.3385390  
C     5.7621490    0.9681920    0.0153250  
N     5.4342450    2.1729860    0.6050530  
C     4.9659270   -0.1840960   -0.1856830  
C     5.5942490   -1.2466860   -0.8553790  
O     4.8843330   -2.3569080   -1.1930880  
C     6.9641370   -1.1889210   -1.2184430  
O     7.4140860   -2.3351640   -1.8489790  
C     7.7436110   -0.0829750   -0.9508010  
H     8.6163680    2.7096780   -0.0665160  
H     4.4769420    2.5045710    0.6024240  
H     5.5051280   -2.9718640   -1.6225740  
H     8.3417400   -2.2228470   -2.1031000  
H     8.7959810   -0.0666310   -1.2271310  
H     6.4766190    4.0102440    0.9594740  
C     1.4350240    2.4464960   -0.5073080  
C     0.4185460    1.6497300   -0.0516690  
C     1.0954620    0.4123890    0.3759690  
C     2.5394760    0.6492300    0.0532910  
N     2.7063440    1.8578720   -0.4359170  
C     3.5724660   -0.3384630    0.2905040  
C     3.1622010   -1.4477880    0.9903420  
O     3.9893480   -2.4155470    1.3928770  
C     1.7379220   -1.6852760    1.3851280  
O     1.4747010   -2.7062990    2.0192290  
C     0.7008120   -0.6951110    1.0292730  
H     3.4239040   -3.0698710    1.8609620  
H    -0.3130690   -0.9137160    1.3519630  
H     1.3443000    3.4440040   -0.9213640  
C    -0.9831020    1.9702070    0.0092160  
C    -1.6065110    3.1936090    0.0557550  
C    -3.0255340    2.9756700    0.0880560  
C    -3.2179510    1.5063090    0.0545240  
N    -1.9549550    0.9557400    0.0484190  
C    -4.4313760    0.8769190   -0.0060810  
C    -5.6332990    1.7368900    0.0731860  
O    -6.7579600    1.2780380    0.1674980  
C    -5.4459240    3.2942120    0.1034290  
O    -6.4419000    4.0017900    0.1045560  
C    -4.0889230    3.8289630    0.1265120  
H    -1.1112520    4.1521600    0.1122900  
H    -3.9715070    4.9080950    0.1430650  
H    -1.7751280   -0.0104600   -0.1824970  
C    -2.9195170   -2.7279240    2.2212080  
C    -3.1463080   -1.4354020    1.8699150  
C    -4.0120100   -1.5071770    0.6966960  
C    -4.2166960   -2.9741370    0.4947410  
N    -3.5701880   -3.6788110    1.3832860  
C    -5.0555730   -3.4881580   -0.5552450  
C    -5.6558040   -2.5940470   -1.3740830  
O    -6.4567430   -2.9297400   -2.3961440  
C    -5.4248480   -1.1105750   -1.2408370  
O    -5.8846350   -0.3930880   -2.1207090  
C    -4.5940690   -0.5786780   -0.1092990  
H    -2.8103570   -0.5394890    2.3724180  
H    -5.1915250   -4.5579960   -0.6672580  
H    -6.6980840   -2.0832970   -2.8325460  
H    -2.3264600   -3.0941660    3.0512490  
