60


C    -8.5453520    1.0950160    0.2980080  
C    -7.2057510    1.4125320    0.2546720  
C    -6.4873670    0.2065650   -0.0229380  
C    -7.4558580   -0.8206850   -0.1270340  
N    -8.6964850   -0.2491890    0.0618970  
C    -7.1362000   -2.1656780   -0.3530970  
C    -5.7976820   -2.4973230   -0.4671120  
O    -5.4342700   -3.7891940   -0.6804540  
C    -4.7852880   -1.5062910   -0.3695770  
O    -3.5384650   -2.0036590   -0.5233790  
C    -5.0963890   -0.1293000   -0.1685830  
H    -6.8053540    2.3963050    0.4401220  
H    -9.5733580   -0.7471680    0.0507380  
H    -7.8895710   -2.9430270   -0.4328060  
H    -4.4614810   -3.8049460   -0.7391650  
H    -2.8929300   -1.2478670   -0.4021080  
H    -9.4029340    1.7262780    0.4812560  
C    -4.0561130    0.8562970   -0.1396100  
C    -4.0930480    2.2364910   -0.1897110  
C    -2.7463510    2.6869440   -0.1459090  
C    -1.9213470    1.4350050   -0.0370360  
N    -2.6882990    0.3881840   -0.0580270  
C    -0.4652890    1.4607660    0.0569400  
C     0.0829850    2.7132050   -0.0579900  
O     1.3953110    2.9658230   -0.0337150  
C    -0.7241260    3.9902810   -0.1972280  
O    -0.0505890    5.0287040   -0.2700150  
C    -2.1600990    3.9190000   -0.2234910  
H    -4.9570530    2.8675500   -0.3170280  
H     1.4462690    3.9544310   -0.1350860  
H    -2.7178890    4.8445280   -0.3183920  
C     0.3193630    0.2509280    0.2569570  
C    -0.0821090   -1.0120590    0.6239480  
C     1.0860780   -1.8470400    0.6996020  
C     2.2370180   -0.9814210    0.3540840  
N     1.7116520    0.2637350    0.0986120  
C     3.5380770   -1.3975070    0.2881310  
C     3.8015540   -2.8109520    0.6342390  
O     4.9291590   -3.2647590    0.7224620  
C     2.5857910   -3.7505640    0.9634390  
O     2.8032500   -4.9306250    1.1947980  
C     1.2477290   -3.1689340    0.9905050  
H    -1.0914790   -1.3215050    0.8350690  
H     0.4143350   -3.8225610    1.2292680  
H     2.2455620    1.0890940   -0.1282920  
C     5.1850040    2.4021870    1.9500650  
C     4.4412490    1.2892610    1.7210660  
C     5.0020550    0.6245610    0.5598170  
C     6.1548240    1.4536280    0.1324070  
N     6.1937710    2.5288400    1.0013030  
C     6.9918400    1.1569530   -0.8952740  
C     6.7418240   -0.0602800   -1.6530490  
O     7.4534420   -0.4379620   -2.5713230  
C     5.4782640   -0.9168710   -1.2796170  
O     5.1630880   -1.8363220   -2.0113790  
C     4.6673860   -0.5338840   -0.0896570  
H     3.6002950    0.9516910    2.3075100  
H     7.8463210    1.7692690   -1.1666500  
H     5.0852600    3.1447730    2.7307840  
H     6.9261040    3.2211420    1.0205110  
