60


C    -2.7921550   -2.4980700    2.8075750  
C    -3.5123900   -3.5195780    2.2478110  
C    -4.2175950   -2.9706970    1.1247300  
C    -3.8775960   -1.5945910    1.0497590  
N    -3.0129510   -1.3353580    2.0908040  
C    -4.4318470   -0.7164820    0.0861850  
C    -5.3189800   -1.2904350   -0.8349840  
O    -5.8221560   -0.5320800   -1.8447010  
C    -5.6520480   -2.6661990   -0.7770090  
O    -6.5273090   -3.0628960   -1.7693660  
C    -5.1219200   -3.5036880    0.1858550  
H    -3.5435670   -4.5425860    2.5960970  
H    -2.5830690   -0.4429110    2.2793160  
H    -6.4598330   -1.0834600   -2.3316880  
H    -6.7851590   -3.9858210   -1.6284420  
H    -5.3965200   -4.5562820    0.2115820  
H    -2.1309290   -2.4946530    3.6623980  
C    -0.6748670    1.7418610   -0.0209760  
C    -1.5387430    0.6757060   -0.0004870  
C    -2.8611570    1.2523810    0.0420950  
C    -2.6207020    2.7244850    0.0326820  
N    -1.3460670    3.0041290   -0.0023100  
C    -3.6994500    3.6759860    0.0357290  
C    -4.9594070    3.1854890    0.0529980  
O    -6.0610140    3.9464180    0.0629260  
C    -5.2466470    1.7011400    0.1065130  
O    -6.4198870    1.3780690    0.2558140  
C    -4.1217470    0.7179470    0.0463360  
H    -1.2935950   -0.3760030   -0.0351840  
H    -3.4920600    4.7400100    0.0230010  
H    -6.8126070    3.3157160    0.1326290  
C     0.7619180    1.7624570   -0.0624400  
C     1.6856770    0.7399410   -0.0813990  
C     2.9927820    1.3308570   -0.0975420  
C     2.7818350    2.8017180   -0.0764240  
N     1.4192590    2.9892570   -0.0741170  
C     3.7756900    3.7275100   -0.0399060  
C     5.1532270    3.2613600   -0.0194180  
O     6.1164030    4.0103800    0.0455530  
C     5.4134030    1.7148830   -0.1006970  
O     6.5588170    1.3217550   -0.2339960  
C     4.2550950    0.7835100   -0.0876670  
H     1.4619710   -0.3160760   -0.0757370  
H     3.5909850    4.7964360   -0.0025820  
H     0.9180790    3.8651980   -0.0305800  
C     3.1777900   -2.5461290   -2.8613380  
C     3.2957150   -1.3363370   -2.2555130  
C     4.0814360   -1.5278270   -1.0533030  
C     4.4231790   -2.9702560   -1.0153170  
N     3.8233400   -3.5339940   -2.1256740  
C     5.1994640   -3.5660170   -0.0728140  
C     5.7382720   -2.7382220    0.9956180  
O     6.4710110   -3.1671090    1.8738430  
C     5.3366100   -1.2199380    1.0268590  
O     5.6383620   -0.5596620    2.0033240  
C     4.5325470   -0.6574730   -0.0949540  
H     2.8847320   -0.4029250   -2.6081910  
H     5.4552460   -4.6210350   -0.0890710  
H     2.6722570   -2.8053430   -3.7822160  
H     3.9508880   -4.4892650   -2.4207770  
