64


C     3.8976550   -0.5422550   -1.9215620  
C     4.2226220   -1.8627550   -2.0674350  
C     4.7952750   -2.2989560   -0.8247090  
C     4.7927510   -1.1833680    0.0507600  
N     4.2391580   -0.1077960   -0.6395810  
C     5.2602790   -1.2556970    1.3680360  
C     5.7511560   -2.4756660    1.8052030  
O     6.2257260   -2.6013590    3.0808040  
C     5.7694070   -3.6022580    0.9411010  
O     6.2891160   -4.7453290    1.5225890  
C     5.3000620   -3.5285110   -0.3568700  
H     4.0842110   -2.4530840   -2.9631260  
H     5.2635610   -0.4023990    2.0358440  
H     6.5328530   -3.5186200    3.1816080  
H     6.3087450   -5.4580630    0.8672160  
H     5.3180160   -4.4061280   -1.0004720  
H     3.4827410    0.1609330   -2.6301350  
C     0.3933180    1.8394050   -0.1169700  
C     0.8574660    3.0281170    0.3930670  
C     2.2869770    2.9212860    0.4618950  
C     2.6287830    1.6401740   -0.0366040  
N     1.4601370    0.9965610   -0.3898310  
C     3.9542950    1.1801460   -0.1237020  
C     4.9572180    2.0461700    0.3108590  
O     6.2598260    1.6627360    0.2484680  
C     4.6234990    3.3292430    0.8217790  
O     5.7262540    4.0623960    1.2122100  
C     3.3179250    3.7774920    0.8972610  
H     0.2497310    3.8838060    0.6516590  
H     1.3901340    0.0245770   -0.6540270  
H     6.7935580    2.3965510    0.6004440  
H     5.4451530    4.9371240    1.5185670  
H     3.0968570    4.7669090    1.2913030  
C    -1.9676780    1.5900890    0.5962120  
C    -3.1570410    1.1264900    0.1245650  
C    -2.8858630    0.6016660   -1.2124900  
C    -1.4404560    0.8101860   -1.4698480  
N    -0.9230340    1.4171080   -0.3289530  
C    -0.8137150    0.4727390   -2.6270290  
C    -1.5991420   -0.1483980   -3.6897680  
O    -1.1188470   -0.4855940   -4.7615910  
C    -3.1307140   -0.3854700   -3.4346100  
O    -3.8021740   -0.9198670   -4.3032250  
C    -3.6949670    0.0480380   -2.1521970  
H     0.2384540    0.6575680   -2.8124810  
H    -4.7595510   -0.0897050   -1.9944220  
H    -1.7386340    2.0235990    1.5599660  
C    -4.9675910    2.2772020    1.4546170  
C    -4.4466130    1.1741880    0.8122120  
C    -5.4065150    0.1057260    0.9931290  
C    -6.4801250    0.6348570    1.7529510  
N    -6.1800710    1.9561990    2.0242670  
C    -7.5931590   -0.1279810    2.1281520  
C    -7.6218130   -1.4550380    1.7308170  
O    -8.6849250   -2.2423840    2.0618460  
C    -6.5485400   -2.0082650    0.9815070  
O    -6.7165890   -3.3444000    0.6744650  
C    -5.4495800   -1.2530020    0.6178190  
H    -6.7821790    2.6013540    2.5112010  
H    -8.4175500    0.2772910    2.7059470  
H    -8.5213560   -3.1218050    1.6790490  
H    -6.0094150   -3.6330200    0.0785760  
H    -4.6371880   -1.7042950    0.0536560  
H    -4.5696020    3.2797610    1.5249070  
