62


C     2.1320570   -0.9238700    0.4133730  
C     1.2884830    0.1378280    0.6299120  
C     2.0842730    1.3368030    0.6444920  
C     3.4225560    0.9233960    0.4337850  
N     3.4293340   -0.4645840    0.2941380  
C     4.4916570    1.8303910    0.4144000  
C     4.1954830    3.1732850    0.5930960  
O     5.1983660    4.0951760    0.5759060  
C     2.8552000    3.6018140    0.7954980  
O     2.7272800    4.9649370    0.9578760  
C     1.8042260    2.7043900    0.8293200  
H     5.5217100    1.5192370    0.2842470  
H     4.7938250    4.9685720    0.7179720  
H     1.7912340    5.2001200    1.0419750  
H     0.7867030    3.0499300    0.9951070  
H     1.9156870   -1.9785300    0.3360440  
C    -0.7126090   -0.6360240    1.9019550  
C    -2.0706320   -0.5839870    1.8232030  
C    -2.3954500    0.1751750    0.6408950  
C    -1.1033210    0.5595560    0.0271520  
N    -0.1061060    0.0425530    0.8484200  
C    -0.9681290    1.2548430   -1.1319410  
C    -2.1765910    1.6843290   -1.8206490  
O    -2.1703440    2.2790740   -2.8871200  
C    -3.5691400    1.3710520   -1.1560830  
O    -4.5799990    1.8306170   -1.6563120  
C    -3.5857770    0.5483680    0.0735060  
H    -2.7681780   -1.0413520    2.5086140  
H    -0.0048480    1.4961220   -1.5665000  
H    -0.0821560   -1.1139710    2.6399750  
C    -5.1435510    0.6387650    2.0144050  
C    -6.4025440    0.2623150    2.3447350  
C    -6.9720980   -0.3999900    1.1911780  
C    -5.9250390   -0.3737970    0.1405220  
N    -4.8205190    0.2788140    0.6988290  
C    -6.0637880   -0.9404030   -1.0821160  
C    -7.3300460   -1.5982140   -1.4047360  
O    -7.5371590   -2.1442010   -2.4772380  
C    -8.4629260   -1.6097920   -0.3156560  
O    -9.5284410   -2.1484870   -0.5727980  
C    -8.1814540   -0.9812260    0.9761950  
H    -6.8958710    0.4367000    3.2901290  
H    -5.2936220   -0.9205090   -1.8440400  
H    -8.9589760   -1.0123510    1.7335280  
H    -4.4073720    1.1710230    2.6016260  
C     6.3470150   -0.3873380   -2.9734730  
C     7.1119570   -1.4377650   -2.5399680  
C     6.5251010   -1.9135230   -1.3188560  
C     5.3922330   -1.0963400   -1.0650320  
N     5.3009450   -0.1824800   -2.0912540  
C     4.5663370   -1.2853940    0.0589600  
C     4.8907090   -2.3232780    0.9308370  
O     4.1197360   -2.5569230    2.0324720  
C     6.0128060   -3.1514930    0.6731040  
O     6.1916720   -4.1375520    1.6248300  
C     6.8278960   -2.9603630   -0.4264580  
H     7.9892490   -1.8321410   -3.0335120  
H     4.6276810    0.5665920   -2.1415200  
H     4.5335080   -3.2965510    2.5118530  
H     7.0135690   -4.6177690    1.4459800  
H     7.6800660   -3.6138840   -0.6000410  
H     6.4539660    0.2404340   -3.8466050  
