62


C     3.4846480   -0.4100810    0.1036630  
C     3.9050280    0.8949970    0.3684110  
C     5.2988340    0.9636770    0.0864640  
C     5.6972420   -0.3327310   -0.3508210  
N     4.5853210   -1.1358930   -0.3249030  
C     7.0152590   -0.6312090   -0.7193940  
C     7.9453030    0.3932850   -0.6500820  
O     9.2423280    0.1602110   -0.9983090  
C     7.5643450    1.6964170   -0.2179000  
O     8.6084380    2.6016430   -0.2052310  
C     6.2668080    1.9904460    0.1472210  
H     3.2705490    1.7317600    0.6257200  
H     4.4887330   -2.0886730   -0.6548800  
H     7.3232610   -1.6163960   -1.0531580  
H     9.7260090    0.9970000   -0.8873700  
H     8.2813490    3.4686090    0.0767530  
H     5.9994020    2.9934930    0.4739900  
C    -0.0816320    0.7080300    2.4074690  
C    -0.9402640   -0.2546180    1.9746040  
C    -0.2288850   -1.0764100    1.0167380  
C     1.1302290   -0.5152130    0.9366120  
N     1.1445780    0.5896400    1.7671310  
C     2.1742380   -1.0215080    0.1924550  
C     1.8771090   -2.2963650   -0.4827900  
O     2.7338840   -3.0122660   -0.9896570  
C     0.3839500   -2.7825370   -0.5931990  
O     0.1423930   -3.6406120   -1.4239290  
C    -0.6358270   -2.1593420    0.2691480  
H    -1.9612360   -0.3952530    2.2954700  
H    -0.2471330    1.5124520    3.1116980  
H     2.0001700    1.0285900    2.0757920  
C    -4.3867090   -0.0025950   -0.6832210  
C    -5.2388660   -1.0841730   -0.5882660  
C    -4.4528560   -2.2264400   -0.2292930  
C    -3.1096160   -1.7857670   -0.1102630  
N    -3.0990650   -0.4341560   -0.3793070  
C    -2.0302290   -2.6380230    0.2137560  
C    -2.3611730   -3.9775160    0.4390510  
O    -1.3946480   -4.8554400    0.8149780  
C    -3.7024240   -4.4329820    0.3331900  
O    -3.8484850   -5.7807560    0.6023030  
C    -4.7430180   -3.5858010    0.0051760  
H    -6.3133070   -1.0487730   -0.7087380  
H    -2.2629440    0.1136230   -0.5120150  
H    -1.7987510   -5.7401900    0.8411000  
H    -4.7588470   -6.0517310    0.4133550  
H    -5.7607490   -3.9638000   -0.0673770  
C    -5.5821040    1.8886840   -1.8579650  
C    -4.6494050    1.3933170   -0.9917620  
C    -3.9857660    2.5548760   -0.3999610  
C    -4.6138280    3.7557220   -1.0058490  
N    -5.5878870    3.2808670   -1.8590500  
C    -4.2526620    5.0341560   -0.7231000  
C    -3.1887950    5.2597900    0.2511920  
O    -2.7915630    6.3723700    0.5626660  
C    -2.5353090    4.0020140    0.9313400  
O    -1.6547240    4.1622310    1.7642810  
C    -3.0082690    2.6739710    0.5359650  
H    -4.7208000    5.9010380   -1.1792620  
H    -2.5490330    1.8201400    1.0214000  
H    -6.2633690    1.3441730   -2.4978020  
H    -6.1470560    3.8552540   -2.4701270  
