64


C     5.5088250   -2.3115520    0.0846650  
C     6.8628050   -2.1257140    0.0204420  
C     7.0917060   -0.7136090   -0.0963250  
C     5.8176940   -0.0860300   -0.0905170  
N     4.8535610   -1.0851660    0.0165030  
C     5.6615160    1.3074520   -0.1640220  
C     6.8126360    2.0764360   -0.2616240  
O     6.7161020    3.4362040   -0.3342020  
C     8.0927450    1.4640990   -0.2810020  
O     9.1396080    2.3613100   -0.3854680  
C     8.2427020    0.0916950   -0.1948140  
H     7.6118640   -2.9053660    0.0470580  
H     4.6933540    1.7942960   -0.1154080  
H     7.6222520    3.7860420   -0.3852270  
H     9.9799180    1.8801590   -0.3664230  
H     9.2358500   -0.3537610   -0.2009110  
H     4.9257050   -3.2182180    0.1560160  
C     1.7149620   -2.2644340    2.9357420  
C     2.9219100   -2.0431580    2.3239140  
C     2.6450360   -1.3756740    1.0832510  
C     1.2393830   -1.2107370    0.9992970  
N     0.6995970   -1.7583250    2.1462680  
C     0.5797660   -0.5886160   -0.0824010  
C     1.4030500   -0.1282990   -1.1107550  
O     0.8618090    0.5119830   -2.1804700  
C     2.8123700   -0.3018960   -1.0674780  
O     3.4662190    0.1703560   -2.1837050  
C     3.4417850   -0.9110810    0.0132010  
H     3.8935510   -2.3166300    2.7094570  
H    -0.2887410   -1.8258060    2.3351300  
H     1.5983480    0.7495570   -2.7712380  
H     4.4202710    0.2353800   -2.0084930  
H     1.4899000   -2.7379120    3.8809660  
C    -2.0553440    1.5497500    2.7113090  
C    -3.2545940    1.2755660    2.1092860  
C    -2.9779220    0.4944780    0.9368810  
C    -1.5709110    0.3128220    0.8937370  
N    -1.0354140    0.9637960    1.9858790  
C    -0.8932030   -0.4204670   -0.1018410  
C    -1.7064460   -1.0092780   -1.0696970  
O    -1.1592160   -1.7740080   -2.0494740  
C    -3.1183890   -0.8653170   -1.0438810  
O    -3.7559410   -1.4998070   -2.0923340  
C    -3.7834040   -0.1015980   -0.0752740  
H    -4.2211780    1.6125010    2.4504820  
H    -0.0478910    1.0557690    2.1675560  
H    -1.9125710   -2.0735680   -2.5937220  
H    -4.4885070   -2.0364500   -1.7230580  
H    -1.8376590    2.1177750    3.6047310  
C    -6.3362970    3.5096580    0.0971510  
C    -7.5798640    2.9863970    0.0264610  
C    -7.3785840    1.5430760   -0.0753440  
C    -5.8902880    1.3740170   -0.0248540  
N    -5.2945040    2.5242020    0.0645130  
C    -5.2506770    0.0555730   -0.1126440  
C    -6.1169850   -0.9828570   -0.2937890  
O    -5.7096960   -2.2792030   -0.4274100  
C    -7.5953160   -0.8455800   -0.3495560  
O    -8.2648730   -1.8737420   -0.4904640  
C    -8.2034990    0.4914930   -0.2265800  
H    -8.5290060    3.5042260    0.0220580  
H    -6.5474730   -2.7907040   -0.5218920  
H    -9.2861480    0.5550860   -0.2798880  
H    -6.0496160    4.5516240    0.1712500  
