64


C     6.2661140   -0.2733100   -3.0517530  
C     7.0519560   -1.1196720   -2.3149690  
C     6.3252540   -1.4366960   -1.1173570  
C     5.0866460   -0.7495230   -1.1903250  
N     5.0704830   -0.0617130   -2.3874650  
C     4.1061390   -0.8004770   -0.1761470  
C     4.4212370   -1.5788350    0.9391800  
O     3.5208410   -1.6968120    1.9595970  
C     5.6559190   -2.2724120    1.0278700  
O     5.7959520   -2.9986670    2.1965200  
C     6.6012220   -2.2181260    0.0218310  
H     8.0337380   -1.4785610   -2.5919320  
H     4.3684350    0.6149570   -2.6438350  
H     3.9242540   -2.2734000    2.6319000  
H     6.6524260   -3.4506100    2.1963340  
H     7.5390970   -2.7618680    0.1158780  
H     6.4504360    0.1947730   -4.0084750  
C     1.9509980   -0.1662420   -1.3471190  
C     2.8231760   -0.0854060   -0.3008230  
C     2.2393090    0.8683330    0.6433930  
C     0.9588730    1.3151590    0.0523430  
N     0.8219750    0.6225840   -1.1375640  
C     0.1120500    2.2418470    0.5897320  
C     0.5098950    2.8211100    1.8888240  
O    -0.1900480    3.5999080    2.5121310  
C     1.8863830    2.3834570    2.5154580  
O     2.2421460    2.9034550    3.5614520  
C     2.6858020    1.3721350    1.8218630  
H     3.6206640    1.0617620    2.2741950  
H     2.0218500   -0.7788790   -2.2368570  
H     0.1377350    0.8631230   -1.8395110  
C    -3.5042460   -0.1495470   -0.3825880  
C    -4.2281610    0.8741690   -0.9438820  
C    -3.4260340    2.0664690   -0.9042420  
C    -2.1933540    1.7153240   -0.3084260  
N    -2.2226500    0.3447060   -0.0415240  
C    -1.1590140    2.6354490   -0.0576940  
C    -1.4054140    3.9573230   -0.4456960  
O    -0.4381770    4.8978270   -0.2756460  
C    -2.6296460    4.3221900   -1.0591440  
O    -2.7016740    5.6590370   -1.4012900  
C    -3.6348730    3.4007910   -1.2976860  
H    -5.2093200    0.7724580   -1.3862920  
H    -1.7320290   -0.0237620    0.7667530  
H    -0.8268880    5.7588210   -0.5092420  
H    -3.6096240    5.8788430   -1.6572060  
H    -4.5648280    3.7092620   -1.7706660  
C    -7.3129720   -2.2633890    0.6967510  
C    -6.3686800   -1.3074680    0.4242360  
C    -5.1422270   -1.9938080    0.1290140  
C    -5.4090700   -3.3825290    0.2482950  
N    -6.7404120   -3.5164700    0.5868900  
C    -4.4318280   -4.3673290    0.0604860  
C    -3.1537830   -3.9378820   -0.2570620  
O    -2.1604220   -4.8520820   -0.4629610  
C    -2.8571840   -2.5573740   -0.3864980  
O    -1.5425320   -2.3104820   -0.7330380  
C    -3.8265080   -1.5651200   -0.2011370  
H    -6.5239730   -0.2390770    0.4508260  
H    -7.2119450   -4.3911990    0.7535700  
H    -4.6355440   -5.4290970    0.1545560  
H    -1.3555420   -4.3491560   -0.6780990  
H    -1.4264120   -1.3539220   -0.8829650  
H    -8.3548570   -2.1573430    0.9642410  
