62


C    -4.5954630    1.3506370   -0.4759840  
C    -5.6593570    1.6100430    0.3350960  
C    -6.0661930    0.3639600    0.9265000  
C    -5.2047950   -0.6410280    0.4202600  
N    -4.3054080   -0.0184940   -0.4560780  
C    -5.2810470   -1.9715380    0.8449630  
C    -6.2633090   -2.2973830    1.7700920  
O    -6.3787660   -3.5879760    2.2069830  
C    -7.1455070   -1.3088450    2.2688090  
O    -8.0702610   -1.7841590    3.1811750  
C    -7.0545140    0.0113430    1.8615860  
H    -6.1018640    2.5823730    0.5045130  
H    -4.6243270   -2.7480940    0.4767220  
H    -7.1152930   -3.6098660    2.8414780  
H    -8.6380700   -1.0551980    3.4710660  
H    -7.7290190    0.7617180    2.2700600  
H    -3.9847000    2.0146170   -1.0661840  
C    -0.2183400    1.3012760   -1.0472740  
C     0.2801600    0.2610910   -1.7843640  
C    -0.8236530   -0.6515910   -1.9839880  
C    -1.9618630   -0.0070760   -1.2579300  
N    -1.6122060    1.1196070   -0.7208210  
C    -3.2821560   -0.6265590   -1.1997770  
C    -3.4427360   -1.7843460   -1.9067950  
O    -4.6101720   -2.4416710   -2.0158660  
C    -2.3126290   -2.4421770   -2.6347930  
O    -2.5652270   -3.4901600   -3.2356960  
C    -0.9805690   -1.8223220   -2.6379800  
H     1.2677120    0.1623200   -2.2137040  
H    -4.4013220   -3.2293690   -2.5684420  
H    -0.1917310   -2.3370680   -3.1773440  
C     3.9197810    1.7294890    0.3968720  
C     3.8631540    3.0904120    0.6918060  
C     2.5614730    3.5387620    0.3614300  
C     1.8409280    2.4143860   -0.1466260  
N     2.6870200    1.3457220   -0.1146950  
C     0.4820420    2.4768840   -0.5498310  
C    -0.1298780    3.7346200   -0.4305500  
O    -1.3992720    3.9280600   -0.8479950  
C     0.5873120    4.8640230    0.0735910  
O    -0.1750470    6.0118140    0.1056890  
C     1.9041200    4.7867850    0.4617310  
H     4.6710180    3.6807930    1.1014820  
H     2.4762190    0.3815340   -0.3344360  
H    -1.6273730    4.8576500   -0.6644650  
H     0.3476780    6.7470730    0.4586100  
H     2.4255780    5.6643430    0.8370040  
C     4.9515890    0.7532570    0.5264900  
C     6.2407900    0.8615670    0.9937960  
C     6.8016810   -0.4512880    0.8891670  
C     5.6889540   -1.2900540    0.3175940  
N     4.6155510   -0.5837040    0.1083310  
C     5.8594410   -2.6942630    0.0590530  
C     7.0653500   -3.2374220    0.3497850  
O     7.3783110   -4.5234810    0.1663750  
C     8.2093220   -2.4187480    0.9269660  
O     9.2584450   -3.0315990    1.1478370  
C     8.0132870   -1.0017000    1.1803420  
H     6.7358320    1.7477050    1.3653060  
H     5.0444560   -3.2798880   -0.3513770  
H     8.3139210   -4.5977170    0.4710670  
H     8.8482530   -0.4446280    1.5932450  
