60


C     5.5630290    2.3178960    0.4612610  
C     6.8973300    2.0321060    0.5007790  
C     7.0643260    0.6951240   -0.0002990  
C     5.7762650    0.2105170   -0.3361240  
N     4.8584490    1.2202670   -0.0420520  
C     5.5647870   -1.0587310   -0.8882800  
C     6.6774690   -1.8626300   -1.0856090  
O     6.5266960   -3.1095260   -1.6170380  
C     7.9757580   -1.3993640   -0.7433320  
O     8.9777850   -2.3143880   -0.9990830  
C     8.1792640   -0.1396630   -0.2108760  
H     7.6756650    2.6946370    0.8540210  
H     4.5833420   -1.4277180   -1.1641610  
H     7.4118880   -3.5091360   -1.6729550  
H     9.8330800   -1.9420870   -0.7381990  
H     9.1837860    0.1986410    0.0353060  
H     5.0208310    3.2011860    0.7674250  
C     2.7288050    1.9875080   -1.0244120  
C     3.4703200    1.1672560   -0.2301690  
C     2.5472750    0.2601100    0.4430090  
C     1.2020280    0.6377260   -0.0381360  
N     1.3736150    1.6817180   -0.9131730  
C     0.0444880    0.0241530    0.3646070  
C     0.1540290   -1.0915680    1.3112580  
O    -0.8116930   -1.7304800    1.7137000  
C     1.5867740   -1.4937050    1.8281730  
O     1.6690940   -2.4260370    2.6090110  
C     2.7428240   -0.7480000    1.3334420  
H     3.7267580   -1.0318700    1.6901130  
H     3.0601360    2.7836570   -1.6765340  
H     0.6227750    2.1902360   -1.3563180  
C    -2.2351780   -0.5088260   -0.3701920  
C    -3.4795190    0.0390540   -0.3948730  
C    -3.3023290    1.4668090   -0.1152930  
C    -1.8534280    1.6635690    0.1420350  
N    -1.2374660    0.4235630   -0.0612750  
C    -1.2961320    2.8392420    0.5310860  
C    -2.1599850    4.0113530    0.6648240  
O    -1.7383800    5.1068340    1.0013630  
C    -3.6860810    3.8365040    0.3514540  
O    -4.4231210    4.8036670    0.4436860  
C    -4.1729300    2.5025790   -0.0275430  
H    -0.2480060    2.9554880    0.7820530  
H    -5.2302360    2.3922030   -0.2359360  
H    -1.9472200   -1.5288760   -0.5736740  
C    -4.5520690   -3.7288450    1.5168310  
C    -5.7799490   -3.9322170    0.9736140  
C    -6.0471610   -2.8169660    0.0913480  
C    -4.8522600   -1.9397400    0.1627430  
N    -3.9790560   -2.5562690    1.0344900  
C    -4.7071170   -0.7511700   -0.5128350  
C    -5.8341700   -0.3265900   -1.3552880  
O    -5.8306770    0.7182410   -1.9893350  
C    -7.1009020   -1.2556450   -1.4547650  
O    -8.0269130   -0.8986680   -2.1658950  
C    -7.1172140   -2.4973290   -0.6862000  
H    -6.4399640   -4.7652800    1.1660000  
H    -8.0006390   -3.1242910   -0.7564160  
H    -4.0043570   -4.3331330    2.2278170  
H    -3.0890310   -2.1788640    1.3408320  
