64


C     5.6540740    2.0772930   -0.9625770  
C     7.0134860    1.9299880   -0.9112140  
C     7.2792490    0.6557370   -0.3050260  
C     6.0242620    0.0671290   -0.0046570  
N     5.0333070    0.9552950   -0.4132180  
C     5.9044440   -1.2007730    0.5761970  
C     7.0748160   -1.8817580    0.8700580  
O     7.0164610   -3.1212700    1.4434710  
C     8.3408780   -1.3059800    0.5838150  
O     9.4130670   -2.1077310    0.9348600  
C     8.4552250   -0.0567070    0.0036650  
H     7.7426340    2.6538790   -1.2495700  
H     4.9459080   -1.6474680    0.8120050  
H     7.9332450   -3.4131520    1.5852250  
H    10.2386310   -1.6300230    0.7673830  
H     9.4360830    0.3630030   -0.2123410  
H     5.0491250    2.9042410   -1.3074980  
C     2.2462440    0.7260800   -3.7350610  
C     1.1039010    0.5359370   -3.0003330  
C     1.4879640    0.5060810   -1.6160350  
C     2.8918090    0.6946460   -1.5832130  
N     3.3286810    0.8229670   -2.8824290  
C     3.6326660    0.7419580   -0.3889290  
C     2.9239850    0.5877110    0.8000290  
O     3.5798110    0.6240220    1.9909130  
C     1.5210280    0.3719180    0.7811550  
O     0.9939230    0.1963350    2.0454460  
C     0.7771320    0.3362690   -0.3974740  
H     0.1038140    0.4451070   -3.3996200  
H     4.2927110    0.9493950   -3.1514390  
H     2.9151870    0.4826290    2.6879980  
H     0.0351540    0.0623430    1.9905460  
H     2.3814090    0.8061280   -4.8043170  
C    -1.3483630   -0.8422850   -1.1242230  
C    -0.6767450    0.0893880   -0.3837690  
C    -1.7004300    0.8111810    0.3706460  
C    -3.0039270    0.1986230    0.0136800  
N    -2.7172790   -0.7738310   -0.9157680  
C    -4.2370130    0.5619440    0.5079590  
C    -4.2239820    1.7405150    1.3770420  
O    -5.2415640    2.3165180    1.7642870  
C    -2.8534530    2.3622810    1.8376870  
O    -2.8781040    3.2631660    2.6596120  
C    -1.6212530    1.8518470    1.2455200  
H    -0.6857240    2.3220460    1.5293630  
H    -0.9419300   -1.5691900   -1.8147530  
H    -3.3934420   -1.4554980   -1.2310160  
C    -5.2329810   -3.8248460    0.4407610  
C    -4.6196890   -2.6125730    0.6389040  
C    -5.5274310   -1.5905460    0.1830970  
C    -6.6918430   -2.2633210   -0.2737760  
N    -6.4758660   -3.6183380   -0.1189410  
C    -7.8266520   -1.5954950   -0.7455430  
C    -7.7887790   -0.2114040   -0.7269980  
O    -8.8619740    0.5085720   -1.1464860  
C    -6.6388130    0.4961830   -0.2771830  
O    -6.7718150    1.8597850   -0.3588730  
C    -5.4793300   -0.1622030    0.1464330  
H    -3.6526490   -2.4709940    1.0997300  
H    -7.1492700   -4.3389610   -0.3272580  
H    -8.7185790   -2.1110550   -1.0864210  
H    -8.6203070    1.4447690   -1.0056950  
H    -6.3687850    2.2403710    0.4580700  
H    -4.8864430   -4.8243080    0.6624220  
