62


C     5.2207970    1.9760450   -0.0777770  
C     3.9318900    1.4980670   -0.2354320  
C     3.0454580    2.5560540    0.1963790  
C     3.8537100    3.6388730    0.6082710  
N     5.1735980    3.2494650    0.4299430  
C     3.3123940    4.8507890    1.0564220  
C     1.9290850    4.9651840    1.0732060  
O     1.3476770    6.1188960    1.5027210  
C     1.1014200    3.8958590    0.6293090  
O    -0.2457520    4.1639760    0.6649930  
C     1.6479130    2.7034880    0.1924260  
H     5.9813510    3.8024090    0.6734420  
H     3.9229120    5.6887150    1.3766260  
H     0.3841270    5.9944940    1.4370500  
H    -0.7471300    3.3562790    0.4327410  
H     1.0152920    1.9149790   -0.1959930  
H     6.1642660    1.4803680   -0.2562080  
C     3.5325120    0.2044240   -0.7371000  
C     4.0362490   -0.5685990   -1.7486610  
C     3.2418090   -1.7629930   -1.8476710  
C     2.2161120   -1.6631740   -0.7777160  
N     2.3945840   -0.4267500   -0.1852370  
C     1.3264200   -2.6469940   -0.4620840  
C     1.3324860   -3.8535080   -1.3185080  
O     0.5367520   -4.7641640   -1.1598660  
C     2.3619920   -3.9413700   -2.5001500  
O     2.3415250   -4.9317750   -3.2166940  
C     3.2992910   -2.8413490   -2.6788420  
H     4.8446150   -0.2885910   -2.4089380  
H     4.0412620   -2.9316560   -3.4662810  
H     2.0825260   -0.2273180    0.7559070  
C    -2.5620630   -0.6414230    0.5139040  
C    -2.8007780   -1.2939350    1.6847650  
C    -1.6657660   -2.1275250    1.9949370  
C    -0.7081950   -1.9459280    0.8827070  
N    -1.2464340   -0.9505920    0.0363510  
C     0.4320530   -2.6635570    0.7179660  
C     0.7797240   -3.6102100    1.8170350  
O     1.8214820   -4.2381840    1.8171240  
C    -0.1929470   -3.7574600    3.0388310  
O     0.1064730   -4.5318370    3.9346120  
C    -1.4186590   -2.9685010    3.0351570  
H    -3.6734370   -1.1576460    2.3080740  
H    -2.1171060   -3.1076620    3.8544360  
H    -1.1328350   -1.0939990   -0.9653820  
C    -6.9330540   -0.3967510   -0.5031400  
C    -5.7091120   -0.8255000   -0.0565440  
C    -4.7646720    0.2065350   -0.3690940  
C    -5.4833550    1.2460630   -1.0204780  
N    -6.8026150    0.8503470   -1.0815000  
C    -4.8754750    2.4114490   -1.4956930  
C    -3.5059150    2.5473880   -1.3094060  
O    -2.8851250    3.6837970   -1.7376810  
C    -2.7683750    1.5291820   -0.6653320  
O    -1.4233280    1.8164030   -0.4750190  
C    -3.3648970    0.3549840   -0.1887720  
H    -5.5061830   -1.7694970    0.4276030  
H    -7.5504090    1.3793080   -1.5025240  
H    -5.4256860    3.2025330   -1.9946710  
H    -1.9286610    3.5898020   -1.5947090  
H    -0.9770240    1.0013990   -0.1562140  
H    -7.8977630   -0.8817480   -0.4568570  
