62


C     6.0334430    0.0683710   -2.1956600  
C     7.3923190    0.0121040   -2.0532600  
C     7.6687020   -0.1024330   -0.6485370  
C     6.4207370   -0.1073740    0.0241270  
N     5.4213490    0.0024410   -0.9416140  
C     6.3134520   -0.2418540    1.4130340  
C     7.4898710   -0.3542830    2.1368680  
O     7.4417850   -0.4793570    3.4959000  
C     8.7498170   -0.3399380    1.4818300  
O     9.8270590   -0.4604220    2.3398250  
C     8.8510560   -0.2184980    0.1086090  
H     8.1157900    0.0660500   -2.8556110  
H     5.3616680   -0.2441050    1.9299500  
H     8.3600080   -0.5334870    3.8120130  
H    10.6507430   -0.4129020    1.8326000  
H     9.8262210   -0.2181510   -0.3747010  
H     5.4243510    0.2007440   -3.0789070  
C     2.5540480   -2.8378150   -2.5252390  
C     1.4277450   -2.2992100   -1.9554420  
C     1.8430580   -1.1630520   -1.1842060  
C     3.2495670   -1.0622000   -1.3399080  
N     3.6553990   -2.0928480   -2.1571240  
C     4.0234000   -0.0550700   -0.7385650  
C     3.3419500    0.8741620    0.0511710  
O     4.0294680    1.8664830    0.6745180  
C     1.9406220    0.7814260    0.2214080  
O     1.4269550    1.7732740    1.0450220  
C     1.1569860   -0.2027830   -0.3881100  
H     0.4199460   -2.6666880   -2.0812280  
H     4.6144740   -2.2772650   -2.4111200  
H     3.3864950    2.3558330    1.2189560  
H     0.6343520    1.4388190    1.4933630  
H     2.6637770   -3.6989840   -3.1688250  
C    -1.0696400   -1.3691770    0.0151090  
C    -0.2944390   -0.2672190   -0.1971180  
C    -1.2774910    0.8367160   -0.3125040  
C    -2.6021140    0.1829100   -0.1186510  
N    -2.4591790   -1.0974010    0.0748650  
C    -3.8572280    0.9388970   -0.1595900  
C    -3.7230750    2.2777910   -0.4376280  
O    -4.7569400    3.1423670   -0.5264520  
C    -2.4098180    2.9397660   -0.6721920  
O    -2.4195530    4.1506270   -0.9124040  
C    -1.1711990    2.1488210   -0.5969460  
H    -4.3396920    4.0120410   -0.7349990  
H    -0.2328070    2.6686600   -0.7565030  
H    -0.7360710   -2.3902620    0.1487560  
C    -5.1387750    0.2923380    0.0667880  
C    -5.4111480   -1.0265720    0.3525900  
C    -6.8348640   -1.1633750    0.4910690  
C    -7.4081720    0.1869670    0.2652770  
N    -6.3404300    1.0152580    0.0159320  
C    -8.7356740    0.4727600    0.3120210  
C    -9.6697490   -0.6088440    0.6015650  
O   -10.8800890   -0.4494430    0.6643910  
C    -9.0843010   -2.0494610    0.8443180  
O    -9.8521110   -2.9682770    1.0884370  
C    -7.6334580   -2.2325780    0.7675840  
H    -4.6701360   -1.8032060    0.4461300  
H    -9.1377960    1.4671480    0.1443670  
H    -7.2397140   -3.2302880    0.9366510  
H    -6.3879380    2.0040960   -0.1780900  
