62


C    -0.7970700    1.8334880   -0.2125480  
C    -1.3808280    3.0681390   -0.0567390  
C    -2.7929120    2.8423710    0.0622690  
C    -3.0007280    1.4415580   -0.0127470  
N    -1.7679000    0.8490320   -0.1939490  
C    -4.2639370    0.8191210    0.0941420  
C    -5.3466820    1.6860070    0.2657930  
O    -6.6059520    1.1843770    0.3901430  
C    -5.1598200    3.0943030    0.3314980  
O    -6.3372000    3.7947280    0.5091030  
C    -3.9117140    3.6800370    0.2380800  
H    -0.8580320    4.0123320    0.0053490  
H    -1.6182630   -0.1352020   -0.3604370  
H    -7.2065330    1.9397190    0.5165700  
H    -6.1463850    4.7414790    0.5822260  
H    -3.8021000    4.7605560    0.3005360  
C     1.4281090    2.1432330   -1.2601610  
C     2.6924080    1.6624890   -1.1499430  
C     2.6765840    0.6294910   -0.1394320  
C     1.2759630    0.5465640    0.3422610  
N     0.5522520    1.4962020   -0.3850970  
C     0.8337950   -0.3097760    1.2979560  
C     1.7973250   -1.2311850    1.8933630  
O     1.4921610   -2.0538420    2.7416420  
C     3.2913670   -1.1521120    1.4253190  
O     4.1216320   -1.8396670    1.9929880  
C     3.6530780   -0.1986010    0.3484530  
H     3.5495520    1.9863800   -1.7201770  
H    -0.1972810   -0.3649490    1.6311100  
H     1.0331910    2.9089430   -1.9140460  
C     6.9292520    2.8693360    0.1132270  
C     5.7205040    2.2981680    0.3340380  
C     5.8721730    0.9108950   -0.0926880  
C     7.2955900    0.8298360   -0.5478330  
N     7.9050480    1.9757220   -0.4268370  
C     7.8723760   -0.3991860   -1.0268160  
C     7.0799890   -1.4948760   -1.0584580  
O     7.4788110   -2.7016060   -1.4898020  
C     5.6330290   -1.4432220   -0.6438320  
O     4.9625050   -2.4542830   -0.8209320  
C     5.0533370   -0.1720160   -0.1037840  
H     4.8315790    2.7534750    0.7458010  
H     8.9085720   -0.4248840   -1.3450980  
H     6.6857000   -3.2780730   -1.4278820  
H     7.2237740    3.8944360    0.3057670  
C    -6.4700180   -1.9478780   -2.7150060  
C    -5.9876410   -0.8408680   -2.0684120  
C    -5.1728380   -1.3066550   -0.9826250  
C    -5.1969490   -2.7268330   -1.0259590  
N    -5.9952510   -3.0883940   -2.0914210  
C    -4.4950180   -3.5312040   -0.1211760  
C    -3.7539430   -2.8884930    0.8581980  
O    -3.0628110   -3.6226150    1.7766450  
C    -3.7101170   -1.4724300    0.9155450  
O    -2.9229330   -0.9766990    1.9465540  
C    -4.3980750   -0.6598070    0.0129860  
H    -6.1986500    0.1871480   -2.3231290  
H    -6.2042540   -4.0349820   -2.3663080  
H    -4.5178580   -4.6157780   -0.1522650  
H    -2.6435740   -2.9981560    2.3941350  
H    -3.1856560   -0.0579910    2.1221690  
H    -7.1220440   -2.0249080   -3.5737270  
