64


C    -0.9786320   -0.5867430    0.8004450  
C    -0.6063730    0.6194590    0.2170350  
C    -1.8275960    1.1862370   -0.3379400  
C    -2.8753240    0.2822360   -0.0383710  
N    -2.3227720   -0.7739560    0.6674540  
C    -4.2139710    0.4438300   -0.4459100  
C    -4.4845750    1.5832500   -1.2046160  
O    -5.7544210    1.8440290   -1.6180980  
C    -3.4477980    2.4919270   -1.5353790  
O    -3.8765820    3.5673800   -2.2930910  
C    -2.1407090    2.3136420   -1.1225390  
H    -2.8374210   -1.5879550    0.9694030  
H    -5.7190750    2.6611720   -2.1450740  
H    -3.1236740    4.1484150   -2.4764760  
H    -1.3803180    3.0421430   -1.3790670  
H    -0.3569910   -1.3183730    1.2897420  
C     3.1704630   -1.5866730    0.2173500  
C     4.1130870   -0.6030080    0.2203780  
C     3.3137420    0.6442440    0.2090450  
C     1.8939540    0.1886750    0.2149060  
N     1.8316430   -1.1140410    0.2142430  
C     0.7614110    1.1241560    0.1989830  
C     1.1126800    2.4515140    0.1701240  
O     0.2150310    3.4687400    0.2124600  
C     2.5102130    2.9254660    0.1247000  
O     2.7188460    4.1460560    0.1136190  
C     3.6227920    1.9506010    0.1330930  
H     0.7727680    4.2791590    0.1987080  
H     4.6334060    2.3448270    0.1013000  
H     3.3418350   -2.6560690    0.2223370  
C     6.7688340   -3.1733870   -2.3199620  
C     5.6855150   -2.5637180   -1.7415130  
C     6.1878660   -1.6608570   -0.7447830  
C     7.6043360   -1.7651080   -0.7723640  
N     7.9277530   -2.6976910   -1.7366560  
C     8.4413500   -1.0077450    0.0537160  
C     7.8323550   -0.1246540    0.9321910  
O     8.5969510    0.6234340    1.7797260  
C     6.4222990    0.0020210    0.9748320  
O     5.9818180    0.9136660    1.9211310  
C     5.5735350   -0.7416320    0.1513700  
H     4.6512990   -2.7311760   -2.0046130  
H     8.8639220   -2.9757710   -1.9852410  
H     9.5231580   -1.0920970    0.0386580  
H     7.9840030    1.1311830    2.3398500  
H     5.0463870    0.7473060    2.1158590  
H     6.8136790   -3.9143770   -3.1055690  
C    -5.6973470   -0.7190970    3.5351960  
C    -6.6064910   -1.6653870    3.1388530  
C    -6.5555720   -1.7267120    1.7045880  
C    -5.5808150   -0.7852990    1.2847970  
N    -5.0649410   -0.1948700    2.4222090  
C    -5.2582280   -0.5411420   -0.0674090  
C    -5.9606680   -1.2934020   -1.0090970  
O    -5.6927920   -1.1447330   -2.3365580  
C    -6.9404450   -2.2397550   -0.6061510  
O    -7.5351660   -2.9041840   -1.6653840  
C    -7.2422510   -2.4679490    0.7226540  
H    -7.2394600   -2.2511000    3.7915060  
H    -4.4170150    0.5780690    2.4197380  
H    -6.3071280   -1.7257420   -2.8174740  
H    -8.2334340   -3.4843000   -1.3283400  
H    -7.9968560   -3.2022410    0.9984350  
H    -5.4361570   -0.3742020    4.5258170  
