64


C     0.4901610    1.1811650    1.3403780  
C    -0.6087480    1.9072330    0.9524570  
C    -0.2004730    2.7675720   -0.1280610  
C     1.1737880    2.5125240   -0.3509480  
N     1.5848980    1.5458120    0.5638010  
C     1.9059130    3.1652730   -1.3497970  
C     1.2362500    4.0975590   -2.1255080  
O     1.9009530    4.7629400   -3.1143260  
C    -0.1407830    4.3732280   -1.9046850  
O    -0.6603200    5.3315950   -2.7530290  
C    -0.8624730    3.7250780   -0.9212730  
H     2.9580050    2.9728280   -1.5235800  
H     1.2600680    5.3579980   -3.5403690  
H    -1.6099020    5.4283330   -2.5873790  
H    -1.9163880    3.9423160   -0.7675060  
H     0.5964100    0.4524130    2.1308810  
C     2.8101670   -2.5755380   -0.1862040  
C     4.1528470   -2.3932320    0.1044850  
C     4.3417620   -1.0278420    0.4716560  
C     3.0686750   -0.4039670    0.3906710  
N     2.1505880   -1.3630330    0.0247580  
C     2.8735090    0.9607700    0.6602800  
C     3.9923300    1.7062220    1.0323300  
O     3.8634000    3.0277940    1.3156290  
C     5.2711850    1.0884930    1.1171920  
O     6.2697770    1.9621530    1.4959710  
C     5.4583020   -0.2535880    0.8525760  
H     4.9015890   -3.1733080    0.0981600  
H     1.2246150   -1.1494660   -0.3166580  
H     4.7501100    3.3638510    1.5362280  
H     7.1153760    1.4920380    1.5431540  
H     6.4485970   -0.6975740    0.9244670  
C    -2.1442780    2.0760630    2.9039370  
C    -3.4805010    1.9233730    3.1549130  
C    -4.1083120    1.5868150    1.9083630  
C    -3.0850690    1.5472250    0.9257170  
N    -1.8824100    1.8538140    1.5550720  
C    -3.3368370    1.2202270   -0.4135190  
C    -4.6482080    0.9458950   -0.7699060  
O    -4.9499990    0.6256650   -2.0651000  
C    -5.6862700    0.9924670    0.1966540  
O    -6.9401450    0.7000390   -0.3126490  
C    -5.4327830    1.3050140    1.5194860  
H    -3.9638850    2.0439770    4.1149200  
H    -2.5537830    1.1749020   -1.1619490  
H    -5.9052700    0.4460570   -2.0978490  
H    -7.5830590    0.6825370    0.4113510  
H    -6.2444910    1.3276450    2.2445280  
H    -1.3304790    2.3477580    3.5610530  
C     2.6057410   -4.8321400   -1.3084340  
C     2.1121210   -3.7581070   -0.6218000  
C     0.6908460   -4.1082480   -0.3810940  
C     0.5327710   -5.4410770   -1.0252180  
N     1.6567130   -5.8517590   -1.5519670  
C    -0.7224960   -6.1407890   -1.0119160  
C    -1.7661510   -5.5664530   -0.3640560  
O    -2.9916470   -6.1130930   -0.2721790  
C    -1.6285100   -4.2460360    0.3291450  
O    -2.6104100   -3.7920440    0.9148820  
C    -0.3276600   -3.5375990    0.2893230  
H    -0.8091800   -7.1046740   -1.5012290  
H    -3.5210360   -5.4761240    0.2556080  
H    -0.2736950   -2.5925770    0.8214190  
H     3.6141180   -4.9586460   -1.6833400  
