64


C    -0.2651800    1.5096320    0.7550710  
C    -0.1678200    2.8163080    1.1614010  
C     1.2230710    3.1646050    1.0990430  
C     1.9273200    2.0121280    0.6682270  
N     0.9963990    1.0042590    0.4833420  
C     3.3267930    1.9732290    0.4681580  
C     3.9877250    3.1898580    0.6902230  
O     5.3440840    3.2850910    0.4877530  
C     3.3007470    4.3445490    1.1331000  
O     4.1267610    5.4388090    1.3186770  
C     1.9363010    4.3506770    1.3531970  
H    -0.9867940    3.4374820    1.4950410  
H     1.1705290    0.1732460   -0.0645610  
H     5.6025920    4.1943970    0.7200320  
H     3.6055710    6.1867500    1.6451820  
H     1.4311310    5.2523560    1.6918000  
C    -2.5542390    1.1395160   -0.0464990  
C    -3.5168020    0.1445760   -0.0364380  
C    -2.8997790   -0.9967950    0.6312890  
C    -1.5876500   -0.6075440    0.9957120  
N    -1.4008280    0.7133380    0.5716070  
C    -0.6924410   -1.4461050    1.6690670  
C    -1.1162820   -2.7349370    1.9544370  
O    -0.2864030   -3.5984220    2.6083810  
C    -2.4125380   -3.1576720    1.5731280  
O    -2.6996600   -4.4662050    1.9160730  
C    -3.2982290   -2.3141540    0.9287870  
H     0.2924670   -1.1205620    1.9827820  
H    -0.7812940   -4.4262270    2.7365520  
H    -3.6255930   -4.6546870    1.7027150  
H    -4.3033040   -2.6463720    0.6982840  
H    -2.5964530    2.1280140   -0.4718970  
C     4.0137890    0.7530700    0.0488670  
C     3.6389890   -0.5770480    0.1844330  
C     4.6668350   -1.3805540   -0.3984000  
C     5.6606180   -0.4889790   -0.8852050  
N     5.2343960    0.7896320   -0.6120960  
C     6.8292780   -0.9343210   -1.5168480  
C     6.9979310   -2.3024360   -1.6589500  
O     8.1192670   -2.7923650   -2.2665830  
C     6.0136490   -3.2086240   -1.1785960  
O     6.3270510   -4.5389210   -1.3969300  
C     4.8611650   -2.7684820   -0.5570660  
H     2.7735970   -0.9460520    0.7163770  
H     5.7691450    1.6385800   -0.7207680  
H     7.5912530   -0.2577460   -1.8899500  
H     8.0455340   -3.7621920   -2.2615800  
H     5.6250730   -5.0970990   -1.0313980  
H     4.1220150   -3.4816860   -0.1969150  
C    -7.5054280   -1.6133430    0.8672360  
C    -8.2769260   -1.0527430   -0.0885660  
C    -7.3705250   -0.2057560   -0.8581450  
C    -6.0337730   -0.3961060   -0.2061390  
N    -6.1303050   -1.2188490    0.7978560  
C    -4.8279750    0.2987780   -0.6702710  
C    -5.0373420    1.1608660   -1.7206330  
O    -4.0588090    1.9221180   -2.2649730  
C    -6.3442560    1.3448130   -2.3965120  
O    -6.3980130    2.1099510   -3.3661940  
C    -7.5307710    0.6155290   -1.9089680  
H    -9.3379340   -1.1759630   -0.2562600  
H    -4.4940120    2.3756330   -3.0221550  
H    -8.4710790    0.7875750   -2.4241300  
H    -7.8018380   -2.2997530    1.6514390  
