62


C    -4.3089660   -0.1153240    0.0886690  
C    -4.6860440   -1.3275290    0.6760660  
C    -6.0051620   -1.6266080    0.2400280  
C    -6.4073270   -0.5638190   -0.6216080  
N    -5.3692950    0.3295810   -0.6866750  
C    -7.6612260   -0.5317780   -1.2439510  
C    -8.5230000   -1.5879220   -0.9963720  
O    -9.7539820   -1.6098760   -1.5751690  
C    -8.1377230   -2.6608900   -0.1384360  
O    -9.1113980   -3.6291190    0.0011180  
C    -6.9036890   -2.6919880    0.4756030  
H    -4.0523500   -1.9731340    1.2674190  
H    -5.2827500    1.1455310   -1.2798740  
H    -7.9714070    0.2736750   -1.9009410  
H   -10.1984610   -2.4256820   -1.2857080  
H    -8.7859770   -4.3389450    0.5742550  
H    -6.6314440   -3.5209510    1.1258510  
C    -1.0390530   -0.2253840    3.0163200  
C    -0.1657730    0.6169510    2.4007100  
C    -0.7968790    1.0943980    1.1936320  
C    -2.1122300    0.4446170    1.1455630  
N    -2.1856670   -0.3886170    2.2492080  
C    -3.0766940    0.6348040    0.1788920  
C    -2.7661460    1.7124760   -0.7759330  
O    -3.5577990    2.1254830   -1.6131820  
C    -1.3602480    2.4302110   -0.7222330  
O    -1.2203270    3.3647440   -1.5151970  
C    -0.3559890    2.0015390    0.2390030  
H     0.8149440    0.8960620    2.7519660  
H    -0.9429450   -0.7480590    3.9588230  
H    -3.0691830   -0.7241630    2.6070750  
C     3.6170920   -0.1067650    0.3881070  
C     2.2714900    0.2008280    0.3377950  
C     2.1429880    1.6266540    0.3030130  
C     3.4636950    2.1511980    0.3170130  
N     4.3365340    1.0823380    0.3587030  
C     3.7453290    3.5177190    0.2460840  
C     2.6602800    4.3718440    0.1232990  
O     2.8531430    5.7131550    0.0303070  
C     1.3261780    3.8805490    0.0856700  
O     0.3806900    4.8720880   -0.0245390  
C     1.0297400    2.5187630    0.2081070  
H     1.4736520   -0.5250170    0.2782240  
H     5.3289090    1.1551360    0.5221760  
H     4.7544700    3.9164200    0.2509630  
H     1.9623160    6.0953340   -0.0945360  
H    -0.2838990    4.5603990   -0.6844550  
C     3.7949960   -2.5130680    1.0943850  
C     4.2758130   -1.3983650    0.4671880  
C     5.5581290   -1.7836970   -0.1241540  
C     5.7704270   -3.2113800    0.2272400  
N     4.6543070   -3.5953780    0.9411990  
C     6.8636220   -3.9367000   -0.1217130  
C     7.9069460   -3.2884680   -0.9093140  
O     8.9299640   -3.8560930   -1.2604450  
C     7.6884030   -1.7888010   -1.3258780  
O     8.5390140   -1.2288890   -1.9980810  
C     6.4628610   -1.1120610   -0.8831360  
H     6.9976410   -4.9798070    0.1481970  
H     6.3205150   -0.0847260   -1.2026200  
H     2.8793560   -2.6225950    1.6595700  
H     4.5299910   -4.4989040    1.3700980  
