62


C    -5.8764000    2.3903230   -0.3207440  
C    -5.7000190    3.7335160   -0.4047070  
C    -4.2810660    3.9899160   -0.3825310  
C    -3.6238490    2.7413010   -0.2806370  
N    -4.6307900    1.7444410   -0.2448620  
C    -2.2314130    2.6376380   -0.2290470  
C    -1.4988150    3.8178890   -0.2880990  
O    -0.1362590    3.7635410   -0.2437910  
C    -2.1437040    5.0731820   -0.3929150  
O    -1.2833290    6.1510150   -0.4404870  
C    -3.5251100    5.1699860   -0.4392340  
H    -6.4887060    4.4705750   -0.4749950  
H    -1.7312360    1.6838900   -0.1439680  
H     0.1916580    4.6771330   -0.3034150  
H    -1.7933380    6.9706430   -0.5201450  
H    -4.0100050    6.1408790   -0.5175980  
H    -6.7839080    1.8083070   -0.3082440  
C    -4.4956540    0.3833370   -0.1642050  
C    -5.4987730   -0.5671340   -0.1342830  
C    -4.8207950   -1.8156090   -0.0629780  
C    -3.3561140   -1.4485940   -0.0371030  
N    -3.1858230   -0.1597780   -0.1123260  
C    -2.3125710   -2.4463200    0.0283460  
C    -2.7333340   -3.7421250    0.0224220  
O    -1.9157250   -4.7907320    0.0763660  
C    -4.2035810   -4.1440880   -0.0109180  
O    -4.4206380   -5.3613740    0.0009220  
C    -5.2202320   -3.1198280   -0.0474870  
H    -6.5672570   -0.4204520   -0.1729310  
H    -2.5227120   -5.5718680    0.0655810  
H    -6.2583210   -3.4343880   -0.0735400  
C    -0.1214410   -0.3500860    3.1527960  
C     1.1318260   -0.2718340    2.6347160  
C     1.0534610   -0.9182720    1.3318390  
C    -0.3594380   -1.3346500    1.2332710  
N    -1.0461880   -1.0002920    2.2949520  
C    -0.8858730   -2.0686640    0.0929690  
C     0.0109390   -2.4251490   -0.8630850  
O    -0.3142480   -3.1431820   -1.9573850  
C     1.4485640   -2.0433120   -0.7887860  
O     2.1744170   -2.4668030   -1.6985070  
C     1.9599640   -1.1805090    0.3317310  
H     2.0134980    0.1268370    3.1132810  
H     0.5249560   -3.2583470   -2.4509760  
H    -0.4666910    0.0049770    4.1164800  
C     3.3158790   -0.6940840    0.2810470  
C     3.9217840    0.3356800    1.0092020  
C     5.2631660    0.4432100    0.5745790  
C     5.4524960   -0.5451960   -0.4397730  
N     4.2687730   -1.2115250   -0.5915150  
C     6.6747590   -0.7176740   -1.1029030  
C     7.7181100    0.1167350   -0.7397190  
O     8.9269680   -0.0032350   -1.3485550  
C     7.5470900    1.1121320    0.2728900  
O     8.6875150    1.8519710    0.5079890  
C     6.3474880    1.2833960    0.9248330  
H     3.4267950    0.9681260    1.7299210  
H     4.0328040   -1.9080530   -1.2856150  
H     6.8263830   -1.4651730   -1.8741190  
H     9.5184760    0.6641990   -0.9586130  
H     8.5151920    2.5063050    1.2012860  
H     6.2369370    2.0461880    1.6925500  
