60


C    -3.4676840    2.3148670   -3.9392110  
C    -3.0751160    1.3703280   -3.0270330  
C    -3.2255500    1.9529900   -1.7222270  
C    -3.7256350    3.2684940   -1.9127480  
N    -3.8525330    3.4638350   -3.2728350  
C    -4.0228420    4.1304620   -0.8507990  
C    -3.8094540    3.6509910    0.4318600  
O    -4.0751430    4.4456600    1.5084760  
C    -3.2977790    2.3450420    0.6503670  
O    -3.0747410    2.0636610    1.9871180  
C    -2.9967360    1.4800520   -0.4028830  
H    -2.7375930    0.3701900   -3.2589250  
H    -4.2253660    4.2927710   -3.7082970  
H    -4.4168400    5.1315800   -0.9931040  
H    -3.9120380    3.9029040    2.3007060  
H    -3.0729880    1.1034040    2.1352470  
H    -3.5090500    2.2663150   -5.0181550  
C    -1.2862170   -0.3617200   -0.7117550  
C    -2.4234830    0.1453650   -0.1539040  
C    -2.9355770   -0.8959310    0.7267040  
C    -1.9876530   -2.0329700    0.6406690  
N    -0.9934040   -1.6512700   -0.2681750  
C    -2.1080420   -3.1723950    1.3614070  
C    -3.2495680   -3.3088290    2.2703640  
O    -3.4112760   -4.2868360    2.9817530  
C    -4.3001000   -2.1443950    2.3275860  
O    -5.2789860   -2.2590780    3.0474590  
C    -4.0479340   -0.9526480    1.5128030  
H    -1.4185350   -4.0041320    1.2859350  
H    -4.7909050   -0.1600350    1.5369390  
H    -0.6281700    0.1059480   -1.4313410  
C     3.2382620   -0.4548760   -0.2315980  
C     1.8630760   -0.5240890   -0.0528410  
C     1.4144510   -1.7812910   -0.5559220  
C     2.6179340   -2.4847340   -1.0542020  
N     3.6725670   -1.6251490   -0.8484710  
C     2.6195910   -3.7369480   -1.5800340  
C     1.3522850   -4.4480220   -1.6741990  
O     1.2493150   -5.5900810   -2.0925110  
C     0.0390420   -3.7106790   -1.2138540  
O    -1.0369920   -4.2629030   -1.3736950  
C     0.1694190   -2.3660870   -0.6270100  
H     1.2523190    0.1963510    0.4646810  
H     3.5186340   -4.2365800   -1.9254090  
H     4.6600020   -1.8260370   -0.9557400  
C     2.7400150    3.8403100    0.8991350  
C     2.5329170    2.5693980    0.4386470  
C     3.7881940    1.8749850    0.4934950  
C     4.7655690    2.8582200    1.0150200  
N     4.0558490    4.0201430    1.2642680  
C     6.0899100    2.6299100    1.2034340  
C     6.6134380    1.3249650    0.8310260  
O     7.7819590    1.0046530    0.9676930  
C     5.6226510    0.2786840    0.2078920  
O     6.1159650   -0.7563870   -0.2233290  
C     4.1725730    0.5801620    0.1594310  
H     1.5949490    2.1960620    0.0631460  
H     6.7748190    3.3661400    1.6118530  
H     2.0315170    4.6526900    0.9928320  
H     4.4613510    4.8823350    1.5946920  
