62


C    -5.3130270   -0.7093190   -2.2027580  
C    -6.3070280    0.1272450   -2.6337070  
C    -6.6490480    0.9819280   -1.5317290  
C    -5.8167090    0.6123000   -0.4442560  
N    -5.0020980   -0.4314040   -0.8719840  
C    -5.8630830    1.2578480    0.7969820  
C    -6.7753000    2.2901820    0.9457010  
O    -6.8669990    2.9528010    2.1377610  
C    -7.6221890    2.6705680   -0.1290110  
O    -8.4763920    3.7165810    0.1745120  
C    -7.5691060    2.0347720   -1.3551030  
H    -6.7580510    0.1217870   -3.6169180  
H    -5.2326800    0.9688830    1.6298030  
H    -7.5779920    3.6098130    2.0444060  
H    -9.0773820    3.8658920   -0.5700470  
H    -8.2244870    2.3466100   -2.1663530  
H    -4.8093900   -1.5219160   -2.7078600  
C    -0.7479710   -0.3044750   -1.6520260  
C    -0.3230850   -1.1029740   -0.6006140  
C    -1.5241560   -1.5045550    0.1076110  
C    -2.6150650   -0.9048650   -0.5630580  
N    -2.1174190   -0.1860160   -1.6286740  
C    -3.9509110   -1.0438670   -0.1432440  
C    -4.1825260   -1.8145760    0.9926200  
O    -5.4493920   -2.0059370    1.4431980  
C    -3.0910300   -2.4094490    1.6826330  
O    -3.4798270   -3.1408950    2.7879800  
C    -1.7836150   -2.2687490    1.2630310  
H    -2.6859470    0.3029460   -2.3041100  
H    -5.3890480   -2.5923900    2.2183590  
H    -2.7367040   -3.6824870    3.0938340  
H    -0.9787410   -2.7668370    1.7923300  
H    -0.1732070    0.1289080   -2.4589150  
C     3.2039900    1.4645310   -0.6300890  
C     4.1914640    0.5612120   -0.3394580  
C     3.5225720   -0.7318600   -0.1701360  
C     2.0833940   -0.4894830   -0.3964270  
N     1.9655270    0.8560370   -0.7057810  
C     1.0772440   -1.4158830   -0.2995670  
C     1.5021540   -2.7687740    0.1128130  
O     0.7216930   -3.6920170    0.2851450  
C     3.0347640   -3.0502330    0.3554720  
O     3.3610640   -4.1715050    0.7129910  
C     3.9890720   -1.9620120    0.1715280  
H     5.0412340   -2.1775410    0.3132570  
H     3.3000730    2.5220770   -0.8415410  
H     1.0750870    1.3272150   -0.7744620  
C     6.2888340    3.6664000    1.9418140  
C     7.5669420    3.4117850    1.5622810  
C     7.5314030    2.2880010    0.6493430  
C     6.1053920    1.9078000    0.5222690  
N     5.3978750    2.8109690    1.2982700  
C     5.6231450    0.8612760   -0.2155590  
C     6.6292180    0.0661450   -0.9505960  
O     6.3324890   -0.8806400   -1.6600770  
C     8.1498520    0.4629440   -0.8353990  
O     8.9702370   -0.2120640   -1.4371850  
C     8.5106120    1.6104700   -0.0091200  
H     8.4503070    3.9467740    1.8792540  
H     9.5611170    1.8736560    0.0650880  
H     5.9118750    4.4177620    2.6232960  
H     4.4365590    2.6651450    1.5697030  
