60


C    -5.6366820   -3.2468190    1.6175340  
C    -4.7371830   -2.2715900    1.2678340  
C    -5.4703070   -1.2252590    0.6109060  
C    -6.8317500   -1.6288860    0.6073940  
N    -6.8995640   -2.8688750    1.2099220  
C    -7.8635680   -0.8350240    0.0985460  
C    -7.5122110    0.4121070   -0.3930490  
O    -8.4666700    1.2425440   -0.8903040  
C    -6.1638160    0.8605670   -0.3902020  
O    -6.0086530    2.1063840   -0.9418210  
C    -5.1125060    0.0504450    0.0673160  
H    -3.6755090   -2.3014690    1.4622690  
H    -7.7495080   -3.3800250    1.3889400  
H    -8.9040350   -1.1436720    0.0998260  
H    -7.9980850    2.0652910   -1.1309540  
H    -5.3362540    2.5841440   -0.3993150  
H    -5.4802070   -4.1878100    2.1257100  
C    -1.5146230   -1.9917780   -1.5272220  
C    -2.7821940   -1.6316430   -1.1945160  
C    -2.7016040   -0.3762730   -0.4843570  
C    -1.2678690   -0.0405040   -0.4165860  
N    -0.5991080   -1.0670120   -1.0381710  
C    -0.7264370    1.1010030    0.1443380  
C    -1.7056170    2.0482550    0.7007770  
O    -1.4171370    3.0147720    1.3789310  
C    -3.2333690    1.7842750    0.4428610  
O    -3.9813650    2.7418530    0.6316060  
C    -3.6951650    0.4550170    0.0052800  
H    -3.6873450   -2.1676370   -1.4311010  
H    -1.1662090   -2.8500200   -2.0857580  
H     0.3887590   -1.0334420   -1.2615400  
C     0.6943360    1.3452590    0.1852730  
C     1.7046330    0.4128320    0.2539970  
C     2.9277040    1.1379350    0.0728740  
C     2.4843370    2.5640770   -0.0682480  
N     1.1922860    2.6850370    0.0161880  
C     3.4285920    3.6294620   -0.2738780  
C     4.7362690    3.2933610   -0.3507400  
O     5.7278400    4.1721970   -0.5551760  
C     5.2154310    1.8629670   -0.2436560  
O     6.4192660    1.6753210   -0.4186440  
C     4.2433660    0.7764810    0.0183000  
H     1.6181330   -0.6451650    0.4466840  
H     3.0849450    4.6533950   -0.3671100  
H     6.5463450    3.6274430   -0.5958970  
C     3.2468420   -2.9783820   -2.1330290  
C     4.1547010   -3.8389940   -1.6224160  
C     4.8912710   -3.0657260   -0.6295540  
C     4.2691030   -1.6980490   -0.6863680  
N     3.3000160   -1.6662640   -1.5578840  
C     4.7536790   -0.6022980    0.1441690  
C     5.7526280   -0.9155580    1.0224560  
O     6.2595950   -0.0458840    1.9014480  
C     6.3709970   -2.2855490    1.1113350  
O     7.2633840   -2.4528470    1.9394210  
C     5.8920450   -3.3568300    0.2218410  
H     4.3198720   -4.8753760   -1.8816590  
H     6.9654110   -0.5334830    2.3822310  
H     6.3681840   -4.3287860    0.3069840  
H     2.5138240   -3.1676070   -2.9086400  
