60


C     5.9739910   -1.5976330   -2.7242650  
C     6.4435430   -2.5961910   -1.9142910  
C     5.7065920   -2.5264370   -0.6840160  
C     4.7925370   -1.4474200   -0.8159640  
N     4.9704740   -0.9038250   -2.0682010  
C     3.9025580   -1.1003350    0.2176190  
C     3.9330590   -1.8569710    1.3880740  
O     3.0805410   -1.5565460    2.4081140  
C     4.8349420   -2.9427470    1.5163600  
O     4.7322030   -3.5921230    2.7288280  
C     5.7151890   -3.2803690    0.5054500  
H     7.2222590   -3.3035190   -2.1626370  
H     4.4915880   -0.0931220   -2.4282280  
H     3.2707970   -2.1789360    3.1328270  
H     5.4120140   -4.2791270    2.7950020  
H     6.3962120   -4.1195830    0.6273830  
H     6.2670820   -1.3135130   -3.7247640  
C     1.6131240   -0.1331330    0.2454090  
C     0.9778820    1.0795180    0.1410930  
C     2.0207260    2.0718210   -0.1011690  
C     3.3010320    1.3235810   -0.1028860  
N     2.9783030   -0.0239900    0.0866800  
C     4.5231770    1.8878210   -0.2630040  
C     4.5982720    3.3357110   -0.4723520  
O     5.6544920    3.9290200   -0.6143150  
C     3.2539340    4.1423050   -0.5276500  
O     3.2883730    5.3441840   -0.7328240  
C     1.9968010    3.4121850   -0.3256020  
H     5.4479350    1.3223470   -0.2338770  
H     1.0797700    3.9889040   -0.3849730  
H     1.1815630   -1.1023060    0.4524050  
C    -0.4463290    1.2783790    0.2626360  
C    -1.4724590    0.3898210    0.0397400  
C    -2.7104530    1.0439600    0.3441720  
C    -2.3510550    2.4185880    0.7665380  
N    -0.9717070    2.5146490    0.6537030  
C    -3.2345480    3.3662500    1.1617030  
C    -4.6563120    3.0327980    1.1457690  
O    -5.5279560    3.8282390    1.4560490  
C    -5.0734190    1.5859020    0.7067310  
O    -6.2482330    1.2680400    0.7932660  
C    -4.0243730    0.6416770    0.2685360  
H    -1.3624470   -0.6122910   -0.3465160  
H    -2.9440870    4.3691580    1.4592960  
H    -0.4288940    3.2198140    1.1305210  
C    -3.1223170   -3.6028480    1.4446200  
C    -3.1000420   -2.2479260    1.4119390  
C    -4.0104360   -1.8781830    0.3327310  
C    -4.5098350   -3.1906510   -0.1777710  
N    -3.9853490   -4.1928190    0.4726430  
C    -5.4758610   -3.2761500   -1.2421230  
C    -5.9234270   -2.1179930   -1.7780620  
O    -6.8143490   -2.0448500   -2.7796630  
C    -5.4108760   -0.7776760   -1.3193730  
O    -5.7716010    0.2052850   -1.9567270  
C    -4.4429170   -0.6947180   -0.1766430  
H    -2.5488040   -1.5725350    2.0500200  
H    -5.8220280   -4.2447350   -1.5852810  
H    -6.9076940   -1.0867610   -2.9767270  
H    -2.5812630   -4.2595130    2.1162610  
