62


C     2.0200010   -3.9623880   -2.6694750  
C     2.9203610   -4.8359510   -2.1177450  
C     3.4857410   -4.1864180   -0.9703600  
C     2.8742730   -2.9069280   -0.8715510  
N     1.9940140   -2.7986450   -1.9271760  
C     3.1979820   -1.9606840    0.1304220  
C     4.1909480   -2.3679590    1.0211710  
O     4.6024250   -1.5114070    2.0278830  
C     4.8124420   -3.6359150    0.9427890  
O     5.7669620   -3.8434060    1.9227620  
C     4.4708410   -4.5512500   -0.0328200  
H     3.1604920   -5.8228330   -2.4882170  
H     1.3934250   -2.0058890   -2.0930000  
H     5.2781810   -1.9861990    2.5461880  
H     6.1202800   -4.7421620    1.8498000  
H     4.9619120   -5.5207380   -0.0806870  
H     1.3875280   -4.0694710   -3.5394330  
C    -1.1311200   -0.7337410    0.1434360  
C     0.0584790   -1.4415690    0.1722890  
C     1.1243470   -0.4941980    0.1334980  
C     0.5222680    0.7939110    0.0725360  
N    -0.8461600    0.6280370    0.0302180  
C     1.2582830    2.0011870    0.0691040  
C     2.6381200    1.8376020    0.2556980  
O     3.4434500    2.9120490    0.4069300  
C     3.2607400    0.5541770    0.3049040  
O     4.6292500    0.6235130    0.4273380  
C     2.5437660   -0.6310570    0.1929450  
H     0.1483360   -2.5178170    0.2040130  
H    -1.4191840    1.3542960    0.4701830  
H     4.3440150    2.5467320    0.5220580  
H     4.9087830   -0.0563990    1.0812710  
C    -2.4847660   -1.2064270    0.1751600  
C    -2.9942040   -2.4306250    0.5379500  
C    -4.4181240   -2.3927750    0.3691960  
C    -4.7361730   -1.0337170   -0.1362260  
N    -3.5363670   -0.3403310   -0.1766770  
C    -5.9793590   -0.6146050   -0.4761330  
C    -7.0964170   -1.5423230   -0.3068310  
O    -8.2494190   -1.2460480   -0.5832240  
C    -6.7905950   -2.9742290    0.2667140  
O    -7.7208590   -3.7549370    0.4212470  
C    -5.4068900   -3.3108790    0.5786140  
H    -2.4207930   -3.2585080    0.9295970  
H    -6.1926050    0.3809020   -0.8542090  
H    -5.2049130   -4.3078920    0.9583860  
H    -3.3904720    0.4623020   -0.7726480  
C    -2.3216870    4.0182930    1.8020390  
C    -2.1544140    5.2874200    1.3708320  
C    -0.9731300    5.2496900    0.5173650  
C    -0.5087850    3.8216390    0.5796190  
N    -1.3249130    3.1145490    1.3137880  
C     0.6784890    3.3506180   -0.1202360  
C     1.2382480    4.2625400   -0.9777830  
O     2.2538530    3.9833540   -1.7996350  
C     0.7734160    5.6895840   -1.0848890  
O     1.3666600    6.4231430   -1.8742390  
C    -0.3635470    6.1526380   -0.2716320  
H    -2.7642190    6.1538760    1.5846480  
H     2.4533700    4.8267650   -2.2652010  
H    -0.6692080    7.1887680   -0.3783690  
H    -3.0967230    3.6249240    2.4484590  
