62


C    -0.6352950    0.7017520    1.1403470  
C    -1.9431380    0.3739890    0.8885650  
C    -2.4911510    1.4578680    0.0966050  
C    -1.4651350    2.4133250   -0.0911960  
N    -0.3228430    1.9387860    0.5754020  
C    -1.6478750    3.5600830   -0.8683330  
C    -2.9043730    3.7685230   -1.4248600  
O    -3.1286640    4.8819570   -2.1830450  
C    -3.9528790    2.8440280   -1.2094560  
O    -5.1470890    3.1890880   -1.8142650  
C    -3.7590950    1.6952850   -0.4593390  
H    -0.8715030    4.2946750   -1.0309000  
H    -4.0637640    4.8631710   -2.4501360  
H    -5.8396810    2.5733510   -1.5322110  
H    -4.5706250    0.9871310   -0.3112240  
H     0.1280310    0.1320140    1.6453980  
C     3.5987520    0.1514310    0.1132710  
C     4.3950020    1.2583270    0.2068110  
C     3.4969800    2.3704300    0.4446010  
C     2.1414030    1.7488070    0.4499690  
N     2.2017880    0.4662930    0.2619270  
C     0.9361130    2.5507260    0.6432330  
C     1.1206540    3.8833490    0.8973730  
O     0.1174140    4.7379410    1.1754510  
C     2.4658500    4.5156000    0.8984850  
O     2.5317670    5.7255050    1.1428530  
C     3.6635010    3.6932140    0.6522770  
H     5.4744290    1.3001630    0.1712410  
H     0.5608160    5.6067860    1.3059520  
H     4.6242780    4.1988160    0.6624010  
C     6.6951870   -1.8670950   -2.3897160  
C     5.9258160   -0.9022260   -1.8235910  
C     5.0179800   -1.6119300   -0.9369280  
C     5.3911220   -3.0500920   -1.1191100  
N     6.3741800   -3.1901900   -1.9646440  
C     4.6980580   -4.1066280   -0.4334710  
C     3.6833350   -3.7609140    0.3920060  
O     2.9569330   -4.6405520    1.0980380  
C     3.2965360   -2.3226320    0.6315510  
O     2.4337470   -2.1184400    1.4788570  
C     4.0026190   -1.2290350   -0.1095130  
H     5.9563100    0.1621850   -2.0031970  
H     4.9921640   -5.1389860   -0.5867500  
H     2.3287330   -4.0978790    1.6241810  
H     7.4921200   -1.7385050   -3.1129230  
C    -2.5937980   -1.3253570    2.6450000  
C    -2.6348240   -0.8232590    1.3614470  
C    -3.4738940   -1.7272300    0.6031320  
C    -3.9079420   -2.7452590    1.4903360  
N    -3.3516070   -2.4751210    2.7256520  
C    -4.7271760   -3.8060020    1.0848490  
C    -5.1093720   -3.8467220   -0.2473440  
O    -5.9066910   -4.8598190   -0.6972010  
C    -4.6700870   -2.8471760   -1.1547220  
O    -5.1251570   -3.0277840   -2.4495230  
C    -3.8627050   -1.8002650   -0.7497940  
H    -3.5053860   -3.0124750    3.5642130  
H    -5.0572720   -4.5879190    1.7613520  
H    -6.0220780   -4.7280650   -1.6541480  
H    -4.6724740   -2.4054700   -3.0378030  
H    -3.5285290   -1.0528520   -1.4654660  
H    -2.0952940   -0.9271830    3.5174070  
