62


C    -4.0419290    1.2698950   -1.1107280  
C    -4.4009500    0.0738000   -0.5185000  
C    -5.4006650    0.4007460    0.4746120  
C    -5.5954560    1.8040920    0.4291520  
N    -4.7560050    2.3048970   -0.5467470  
C    -6.4879550    2.4758680    1.2748350  
C    -7.1994580    1.7121990    2.1854840  
O    -8.0872140    2.3105620    3.0316090  
C    -7.0146960    0.3045080    2.2477030  
O    -7.7948200   -0.3165050    3.2064040  
C    -6.1311130   -0.3529420    1.4146100  
H    -4.7000820    3.2707610   -0.8299900  
H    -6.6380100    3.5500880    1.2398930  
H    -8.4850170    1.6072410    3.5732890  
H    -7.6603860   -1.2743800    3.1570210  
H    -6.0198600   -1.4321250    1.4669440  
H    -3.3683900    1.4522470   -1.9367460  
C    -0.1797140   -1.0963780   -0.8485120  
C    -0.3782170   -2.4227070   -1.1823350  
C    -1.7882030   -2.6511140   -1.2337270  
C    -2.4180120   -1.4182340   -0.9267530  
N    -1.4230530   -0.4817930   -0.7286600  
C    -3.8158260   -1.2403130   -0.8387860  
C    -4.5745410   -2.3865950   -1.0837670  
O    -5.9372630   -2.3274750   -1.0338020  
C    -3.9620420   -3.6304030   -1.4049930  
O    -4.8726050   -4.6475800   -1.6228590  
C    -2.5931530   -3.7802270   -1.4918390  
H     0.4027280   -3.1348150   -1.4141660  
H    -1.5942900    0.4048580   -0.2754830  
H    -6.2698170   -3.2044320   -1.2944400  
H    -4.4085590   -5.4359850   -1.9409710  
H    -2.1533190   -4.7448490   -1.7351490  
C     2.2289320   -0.8792880   -0.1832530  
C     1.0564870   -0.3661420   -0.6448360  
C     1.3080180    1.0465760   -0.9357070  
C     2.7245470    1.3111530   -0.5882900  
N     3.2584110    0.0840600   -0.1685480  
C     3.3025490    2.5365470   -0.6533630  
C     2.5087850    3.6616470   -1.1565540  
O     2.9563830    4.7928890   -1.2436830  
C     1.0332330    3.3846040   -1.6001850  
O     0.3605850    4.2960430   -2.0521000  
C     0.5109340    2.0229330   -1.4365110  
H     4.3171030    2.7443100   -0.3356460  
H    -0.5171750    1.8450780   -1.7318860  
H     2.4528750   -1.8886000    0.1292240  
C     4.5402950   -0.1888420    0.2728010  
C     4.9523850   -1.1468260    1.1578470  
C     6.3891780   -1.0817560    1.2229950  
C     6.7961820    0.0019390    0.2974290  
N     5.6206260    0.5548600   -0.2143580  
C     8.0769130    0.3453920    0.0328540  
C     9.1453340   -0.3782480    0.7287290  
O    10.3275240   -0.1342920    0.5517860  
C     8.7370600   -1.5013930    1.7493920  
O     9.6184450   -2.1047220    2.3432890  
C     7.3153150   -1.7853700    1.9316250  
H     4.3143160   -1.7867750    1.7492360  
H     8.3572470    1.1377750   -0.6544500  
H     7.0448260   -2.5756570    2.6250970  
H     5.5923690    1.0089880   -1.1173250  
