60


C    -3.4762520    0.5992060   -1.3924180  
C    -3.0909140   -0.4051030   -0.5060240  
C    -4.3233170   -1.0587740   -0.0856170  
C    -5.3869740   -0.3869800   -0.7356500  
N    -4.8309380    0.6073050   -1.5292030  
C    -6.7349380   -0.7063280   -0.5467760  
C    -7.0251590   -1.7384620    0.3317740  
O    -8.3176780   -2.1024200    0.5529140  
C    -5.9772030   -2.4203540    1.0042240  
O    -6.4182330   -3.4208490    1.8452220  
C    -4.6477790   -2.0952370    0.8114700  
H    -5.3458350    1.1899690   -2.1721400  
H    -7.5410090   -0.1841930   -1.0517210  
H    -8.3051520   -2.8449450    1.1820320  
H    -5.6573790   -3.8959170    2.2117580  
H    -3.8674890   -2.6538980    1.3150320  
H    -2.8508240    1.2580800   -1.9763460  
C     0.4767380    2.2503780    0.0327190  
C    -0.8217800    1.8062610   -0.0924940  
C    -0.7571550    0.3642430   -0.0747640  
C     0.6808970    0.0705060    0.0693700  
N     1.3934040    1.1600870    0.0975340  
C     1.2205220   -1.2878000    0.1844800  
C     0.2746470   -2.2755110    0.1972090  
O     0.5618790   -3.5811980    0.4032050  
C    -1.1806850   -2.0196750    0.0470830  
O    -1.9236660   -3.0078200    0.1024790  
C    -1.7014500   -0.6316110   -0.1612020  
H    -1.7220020    2.4026540   -0.0753740  
H    -0.3088400   -4.0360350    0.3575650  
C    -0.9136510    6.1430840   -1.6229760  
C    -0.7720600    4.8249890   -1.3156160  
C     0.3835190    4.6967730   -0.4574010  
C     0.9224190    6.0637330   -0.3011580  
N     0.0752320    6.8961580   -1.0073350  
C     2.0540520    6.3940320    0.3790740  
C     2.8044380    5.3224140    1.0043490  
O     3.8753600    5.4856450    1.5713170  
C     2.2005430    3.8688890    0.9637440  
O     2.7333820    3.0291830    1.6664330  
C     0.9858050    3.6031290    0.1338250  
H    -1.3965520    4.0215890   -1.6716790  
H     2.4379860    7.4073070    0.4446400  
H    -1.6532730    6.6283210   -2.2458210  
H     0.2209870    7.8853010   -1.1351730  
C     3.4953750   -0.5492440    0.9248210  
C     2.6562560   -1.4802380    0.3504450  
C     3.5091230   -2.5985970   -0.0611240  
C     4.8908520   -2.2374460    0.3508240  
N     4.7962710   -0.9958220    0.9495740  
C     5.9951920   -2.9975160    0.1452940  
C     5.8407630   -4.2689870   -0.5525580  
O     6.7734260   -5.0239310   -0.7835530  
C     4.3993130   -4.6615310   -1.0349250  
O     4.2458050   -5.7121070   -1.6395810  
C     3.2855620   -3.7531590   -0.7432890  
H     6.9902270   -2.6979000    0.4601850  
H     2.2997840   -4.0578600   -1.0679630  
H     3.2434870    0.4278370    1.3125440  
H     5.5757270   -0.4669330    1.3107260  
