60


C    -2.1015080   -2.3299760    0.0974660  
C    -3.1892380   -1.5563620   -0.3395270  
C    -4.3419180   -2.3765380   -0.3077270  
C    -3.9257420   -3.6623720    0.1570850  
N    -2.5795540   -3.5981070    0.3945870  
C    -4.8150280   -4.7322530    0.3062180  
C    -6.1428750   -4.5050650   -0.0193040  
O    -7.0511040   -5.5059770    0.1042920  
C    -6.5780270   -3.2255040   -0.4873980  
O    -7.9276790   -3.1768650   -0.7627410  
C    -5.7039100   -2.1721810   -0.6336270  
H    -3.1487570   -0.5487750   -0.7268370  
H    -1.9446320   -4.3503280    0.6372680  
H    -4.5058090   -5.7107950    0.6570150  
H    -7.9157070   -5.1553820   -0.1736610  
H    -8.1653710   -2.2954090   -1.0870320  
H    -6.0541340   -1.2062610   -0.9909390  
C    -0.0229740    1.5291060    0.1108760  
C     1.2790680    1.0592280    0.1063050  
C     1.2355230   -0.3621240    0.2072550  
C    -0.1873020   -0.7242120    0.2216880  
N    -0.8915550    0.4523780    0.1676890  
C    -0.7033210   -2.0109030    0.2345580  
C     0.3044770   -3.0783690    0.3936980  
O     0.0139810   -4.2595300    0.5398430  
C     1.8401570   -2.7232450    0.4092210  
O     2.5991240   -3.6455200    0.6391450  
C     2.2590890   -1.3166800    0.2447890  
H     2.1647280    1.6669820    0.0147630  
H    -1.8845500    0.5716680    0.3077820  
C    -0.5633960    2.8554260    0.0666450  
C     0.0719640    4.0678990   -0.0058180  
C    -0.9807910    5.0515900   -0.0179210  
C    -2.2468150    4.2468420    0.0584100  
N    -1.9971740    2.9701440    0.1068900  
C    -3.5405300    4.8753080    0.0721680  
C    -3.5798480    6.2278310    0.0117760  
O    -4.7056940    6.9481840    0.0150590  
C    -2.3207060    7.0681960   -0.0669520  
O    -2.4685610    8.2888030   -0.1176300  
C    -1.0140560    6.4058150   -0.0781860  
H     1.1350160    4.2590690   -0.0467590  
H    -4.4407830    4.2739700    0.1295480  
H    -4.4148870    7.8874000   -0.0365670  
H    -0.1333530    7.0377660   -0.1344310  
C     3.6566850   -0.9851160    0.1894810  
C     4.2960080    0.1545430    0.6433390  
C     5.6852540   -0.0177170    0.3310310  
C     5.7421850   -1.3470930   -0.3593640  
N     4.5734010   -1.9107800   -0.4294730  
C     6.9831950   -1.8763580   -0.8652870  
C     8.1040790   -1.1433980   -0.6675830  
O     9.3290650   -1.5102610   -1.0709580  
C     8.0809900    0.1908250    0.0452700  
O     9.1618730    0.7752770    0.1673420  
C     6.8108700    0.7174040    0.5345620  
H     3.8690160    0.9647000    1.2162770  
H     6.9993370   -2.8360450   -1.3695560  
H     9.9183650   -0.7766690   -0.7801510  
H     6.8283090    1.6824860    1.0317200  
