62


C     4.9696390   -0.2642560   -0.2094730  
C     5.8823190   -1.3133350   -0.3906330  
C     7.1750430   -0.8154730   -0.1207620  
C     7.0251640    0.5620780    0.2337530  
N     5.6948100    0.8615820    0.1705940  
C     8.1157120    1.3735430    0.5738490  
C     9.3704050    0.7893190    0.5575670  
O    10.4643450    1.5242810    0.8785580  
C     9.5399140   -0.5891650    0.2060670  
O    10.8547020   -0.9991610    0.2424160  
C     8.4714030   -1.3873120   -0.1275770  
H     5.6264400   -2.3319160   -0.6375470  
H     5.2340530    1.7204770    0.4430890  
H     8.0112730    2.4185850    0.8444490  
H    11.2415870    0.9418290    0.8109150  
H    10.9147200   -1.9357000    0.0013950  
H     8.6189380   -2.4319300   -0.3922670  
C     1.8983160   -3.0033060   -1.9957290  
C     3.0956040   -2.4372820   -1.6918160  
C     2.7779690   -1.2399610   -0.9307890  
C     1.3062180   -1.2304420   -0.8789830  
N     0.7986430   -2.2674520   -1.4987860  
C     0.5280680   -0.1598950   -0.2371380  
C     1.2823840    0.8601390    0.2848350  
O     0.7526340    1.9371540    0.9162720  
C     2.7563850    0.8889700    0.2393940  
O     3.3014670    1.8977960    0.7229920  
C     3.5373760   -0.2585750   -0.3345440  
H     4.0727030   -2.7700590   -2.0076300  
H     1.5300430    2.4795150    1.1759880  
H     1.7088340   -3.9044940   -2.5660340  
C    -1.6681750   -1.3914790   -0.2289800  
C    -0.9211000   -0.2404810   -0.1760890  
C    -1.9419320    0.8336090   -0.0894800  
C    -3.2419590    0.1006490   -0.0483900  
N    -3.0588250   -1.1879490   -0.1350650  
C    -4.5383150    0.7756830    0.0216270  
C    -4.4735900    2.1358350   -0.0635960  
O    -5.5737680    2.9417080   -0.0609050  
C    -3.2058930    2.8971480   -0.1589820  
O    -3.2769860    4.1293810   -0.2175840  
C    -1.9187590    2.1768550   -0.1657480  
H    -5.2063010    3.8551570   -0.1204800  
H    -1.0171510    2.7718460   -0.2194440  
H    -1.2916600   -2.3969130   -0.3391230  
C    -5.9734920   -2.5116600    2.7575390  
C    -5.2272920   -1.5361250    2.1519580  
C    -6.0059780   -1.0124180    1.0655090  
C    -7.2399440   -1.7163120    1.0741450  
N    -7.1877920   -2.6291000    2.1064640  
C    -8.2815130   -1.4536090    0.1779220  
C    -8.0816980   -0.4324560   -0.7358470  
O    -9.0580950   -0.1088060   -1.6294730  
C    -6.8687510    0.3040650   -0.7616280  
O    -6.8229240    1.2660360   -1.7523160  
C    -5.8039900    0.0183330    0.1033630  
H    -4.2292390   -1.2409860    2.4375610  
H    -7.9330160   -3.2558780    2.3648200  
H    -9.2206110   -1.9977620    0.1875800  
H    -8.6959370    0.6341860   -2.1489550  
H    -6.5214150    2.1058020   -1.3464030  
H    -5.7393370   -3.1445360    3.6018820  
