62


C     5.5186750    3.3421840    1.2254080  
C     4.7397310    2.2252600    1.0422310  
C     5.5137690    1.2896240    0.2832790  
C     6.7743710    1.8990870    0.0454400  
N     6.7420800    3.1504050    0.6235790  
C     7.8132210    1.2656000   -0.6415380  
C     7.5878730   -0.0230950   -1.1042050  
O     8.5658660   -0.6699890   -1.7945530  
C     6.3483470   -0.6670220   -0.8795550  
O     6.2853480   -1.9312950   -1.4222970  
C     5.2913970   -0.0382960   -0.1929570  
H     3.7425220    2.0893550    1.4321650  
H     7.5011700    3.8140780    0.6180220  
H     8.7705240    1.7404680   -0.8306210  
H     8.2018960   -1.5254240   -2.0830590  
H     5.3562730   -2.2158980   -1.4927080  
H     5.2964780    4.2651890    1.7416500  
C     4.0170930   -0.7014670   -0.0125460  
C     2.7434060   -0.1752370    0.0453330  
C     1.8016730   -1.2362040    0.2075530  
C     2.6020280   -2.4750250    0.2440910  
N     3.9379610   -2.1110930    0.0433520  
C     2.1135590   -3.7213760    0.4396120  
C     0.6682140   -3.8723720    0.5535500  
O     0.1225890   -4.9411470    0.7703610  
C    -0.2238850   -2.6002910    0.3476120  
O    -1.4298120   -2.7858710    0.2391310  
C     0.4127420   -1.2663010    0.2958310  
H     2.5118680    0.8624400   -0.1260300  
H     2.7348150   -4.6097840    0.4970600  
H     4.6737680   -2.6405610    0.4986020  
C    -0.4091640   -0.0713610    0.3427750  
C    -0.0641540    1.2340610    0.6429830  
C    -1.2473890    2.0361340    0.5724370  
C    -2.3527510    1.1130840    0.2181760  
N    -1.7826600   -0.1272270    0.0917850  
C    -3.6711620    1.4732900    0.0417870  
C    -3.9289750    2.9123060    0.1116550  
O    -4.9955960    3.4322460   -0.2242210  
C    -2.8042770    3.8936200    0.6104370  
O    -3.1051030    5.0621580    0.8100360  
C    -1.4616120    3.3686460    0.7792480  
H     0.9075150    1.5931370    0.9394540  
H    -0.6761800    4.0549370    1.0795460  
H    -2.2733430   -1.0066760   -0.0281540  
C    -4.7491910   -2.3827540    2.0723510  
C    -4.2022070   -1.1653360    1.7568710  
C    -4.8542920   -0.6978110    0.5627830  
C    -5.8138000   -1.6856280    0.2134010  
N    -5.7187860   -2.7006330    1.1438780  
C    -6.6881970   -1.5521900   -0.8699540  
C    -6.6022840   -0.3787940   -1.6012960  
O    -7.4366450   -0.1626630   -2.6552770  
C    -5.6498980    0.6273020   -1.2832700  
O    -5.6877770    1.7098320   -2.1306640  
C    -4.7375590    0.4809640   -0.2335920  
H    -3.4356610   -0.6579080    2.3241040  
H    -6.2735080   -3.5418290    1.1431830  
H    -7.4273520   -2.3030160   -1.1302630  
H    -7.2159790    0.7330660   -2.9771560  
H    -5.5818430    2.5142320   -1.5675240  
H    -4.5259110   -3.0557590    2.8878520  
