60


C     6.6124150   -1.9747580   -2.1582480  
C     6.2632850   -3.2758360   -1.9091390  
C     5.1136520   -3.2437310   -1.0515920  
C     4.8151230   -1.8822750   -0.8014510  
N     5.7505670   -1.1325510   -1.4785860  
C     3.7029960   -1.4529750   -0.0291980  
C     2.8934940   -2.4791330    0.5016080  
O     1.8470630   -2.1915190    1.3128820  
C     3.1965870   -3.8450510    0.2620620  
O     2.3124190   -4.7132160    0.8713030  
C     4.2837280   -4.2363860   -0.4941120  
H     6.7620440   -4.1548380   -2.2930770  
H     5.7039100   -0.1305280   -1.5857430  
H     1.4377010   -3.0405950    1.5615290  
H     2.5658170   -5.6292390    0.6853460  
H     4.4893890   -5.2924090   -0.6565580  
H     7.4146180   -1.5680120   -2.7572530  
C     3.4333320   -0.0476110    0.1947890  
C     4.3224360    0.9969100    0.2922840  
C     3.5328030    2.1829650    0.5021070  
C     2.1235960    1.6825920    0.4731370  
N     2.0655890    0.4003140    0.3015990  
C     0.9889520    2.5794110    0.6374830  
C     1.2734240    3.8857210    0.9062530  
O     0.3488430    4.8220530    1.1560160  
C     2.6861390    4.4064930    0.9361330  
O     2.8195330    5.6101080    1.1726710  
C     3.8061670    3.4927710    0.7170980  
H     5.4016360    0.9415300    0.3295880  
H     0.8653940    5.6515160    1.2933910  
H     4.8063050    3.9127370    0.7506100  
C    -0.7284510    0.8507910    1.1044460  
C    -2.0342160    0.5669270    0.8220710  
C    -2.5262330    1.6622640   -0.0052400  
C    -1.3879440    2.5954250   -0.1863680  
N    -0.3200380    2.0645300    0.5463740  
C    -1.4342400    3.7042020   -0.9638150  
C    -2.6940730    4.0413420   -1.6275380  
O    -2.8160060    5.0146860   -2.3547550  
C    -3.9330510    3.1122480   -1.3819240  
O    -5.0042430    3.3993790   -1.8927800  
C    -3.7430010    1.9200770   -0.5523730  
H    -0.5964900    4.3738990   -1.1041400  
H    -4.5998540    1.2704300   -0.4081380  
H    -0.0116020    0.2476480    1.6406750  
C    -2.7064040   -1.1639010    2.5415950  
C    -2.7568540   -0.6017770    1.3011510  
C    -3.6299500   -1.5149550    0.5308170  
C    -4.0121970   -2.5704970    1.5149960  
N    -3.4645060   -2.3589470    2.6796420  
C    -4.8704050   -3.6674410    1.1511040  
C    -5.3009280   -3.7387810   -0.1313260  
O    -6.0971110   -4.7099320   -0.6091190  
C    -4.9018260   -2.7129730   -1.1539820  
O    -5.3210090   -2.8517390   -2.3013860  
C    -4.0318170   -1.5849460   -0.7521890  
H    -5.1423800   -4.4101020    1.8930330  
H    -6.2312570   -4.4938790   -1.5580000  
H    -3.7703070   -0.8663270   -1.5222700  
H    -2.1713690   -0.7864790    3.4052950  
