60


C     4.0833900   -0.9177410   -1.8119200  
C     4.8537030   -2.0331790   -1.9403940  
C     5.9160930   -1.9363950   -0.9742340  
C     5.7512690   -0.7091990   -0.2876820  
N     4.6093860   -0.0824250   -0.8158250  
C     6.5847090   -0.3310570    0.7695980  
C     7.6191700   -1.1896230    1.1132390  
O     8.4625540   -0.8551710    2.1322050  
C     7.8094680   -2.4109750    0.4197200  
O     8.8779460   -3.1572060    0.8748790  
C     6.9702060   -2.7922410   -0.6131660  
H     4.6975020   -2.8301480   -2.6547860  
H     6.4777870    0.6037350    1.3037480  
H     9.1269940   -1.5617540    2.2022100  
H     8.9794800   -3.9470500    0.3235250  
H     7.1174600   -3.7424690   -1.1226240  
H     3.2194580   -0.5951660   -2.3725700  
C     0.4159700    1.0447730   -0.0815880  
C     1.5850210    0.3493590   -0.3240370  
C     2.6710220    1.2806620   -0.2743410  
C     2.0781000    2.6026360    0.0228780  
N     0.7247840    2.3976550    0.1121400  
C     2.7759790    3.7597500    0.1954080  
C     4.2164950    3.7137160    0.0754380  
O     4.9552540    4.6699790    0.2633150  
C     4.8885940    2.3450540   -0.3210870  
O     6.0802040    2.3305890   -0.5670480  
C     4.0339610    1.1290600   -0.4264250  
H     1.6338740   -0.7121740   -0.4991100  
H     2.3041190    4.7069500    0.4352440  
H     0.0333830    3.0975060    0.3378340  
C    -1.1966840   -2.9846160   -0.7255900  
C    -2.5157240   -2.7936000   -0.4748080  
C    -2.6446730   -1.3854280   -0.1317990  
C    -1.2631100   -0.8598230   -0.2426980  
N    -0.4252080   -1.8008880   -0.5834580  
C    -0.9405580    0.5524220   -0.0053070  
C    -2.0216870    1.3517900    0.2786840  
O    -1.9312370    2.6854260    0.5017560  
C    -3.4116570    0.8532760    0.3863370  
O    -4.2812860    1.6951270    0.6509930  
C    -3.7120690   -0.5968680    0.2093510  
H    -3.3141620   -3.5169660   -0.5507430  
H    -2.8567260    2.9697880    0.6876610  
H    -0.6952250   -3.8974370   -1.0221840  
C    -5.3383070   -2.3214550    1.0296400  
C    -5.0472170   -1.1030340    0.4623480  
C    -6.3792630   -0.5165180    0.1932530  
C    -7.3337980   -1.5685710    0.6592450  
N    -6.7060720   -2.6061380    1.1559510  
C    -8.7567900   -1.4170600    0.5548880  
C    -9.2301790   -0.2748780   -0.0008630  
O   -10.5277180    0.0031250   -0.1658760  
C    -8.2976110    0.8021620   -0.4939110  
O    -8.8004300    1.8039340   -0.9942750  
C    -6.8352430    0.6212150   -0.3639280  
H    -9.4114970   -2.2049360    0.9097460  
H   -10.5596670    0.8879120   -0.5931600  
H    -6.2059220    1.4326040   -0.7066070  
H    -4.6208600   -3.0359430    1.4150680  
