60


C    -4.7654720    0.0728040   -0.0056240  
C    -5.9467500    0.8249480   -0.0401530  
C    -7.0299700   -0.0728380    0.0814220  
C    -6.4785170   -1.3877790    0.1899170  
N    -5.1174990   -1.2689520    0.1357290  
C    -7.2774410   -2.5293180    0.3247080  
C    -8.6503280   -2.3434630    0.3507800  
O    -9.4754080   -3.4126300    0.4795110  
C    -9.2214850   -1.0352810    0.2439050  
O   -10.5994920   -1.0397630    0.2884860  
C    -8.4373830    0.0865390    0.1114910  
H    -5.9787410    1.8975790   -0.1439090  
H    -4.4376850   -2.0147540    0.1787040  
H    -6.8687510   -3.5306360    0.4074380  
H   -10.3905090   -3.0799990    0.4766340  
H   -10.9332140   -0.1334960    0.2111630  
H    -8.8870970    1.0736340    0.0312700  
C    -3.0562200    4.0739480   -0.5298100  
C    -1.7268980    3.8112190   -0.5056270  
C    -1.6214030    2.3746690   -0.3091220  
C    -3.0385180    1.9119080   -0.2492370  
N    -3.8630310    2.9139470   -0.3620050  
C    -3.3945930    0.4964500   -0.0856320  
C    -2.3201270   -0.3675180   -0.0388840  
O    -2.4715380   -1.7201400    0.0644200  
C    -0.9288070    0.0510100   -0.1101800  
O    -0.0591380   -0.8463400   -0.1078160  
C    -0.5755240    1.5062710   -0.1736640  
H    -0.9176770    4.5087470   -0.6574130  
H    -1.5551960   -2.0757910    0.0494760  
H    -3.5466470    5.0292640   -0.6709000  
C     0.8206550    1.9065780   -0.0785460  
C     1.3532220    3.1237320    0.2872300  
C     2.7834830    2.9992040    0.2832820  
C     3.0762940    1.6064830   -0.1148790  
N     1.8585340    1.0108010   -0.3453480  
C     4.3346050    1.0499370   -0.2028410  
C     5.4541950    1.9577520    0.1334310  
O     6.6249300    1.6136140    0.1028300  
C     5.1537990    3.4513130    0.5400700  
O     6.1002560    4.1737270    0.8148070  
C     3.7697740    3.8942990    0.5844840  
H     0.8012000    4.0006650    0.5861440  
H     3.5671860    4.9208590    0.8728460  
H     1.6812320    0.0135480   -0.4054290  
C     3.8168410   -1.0352780   -1.5442570  
C     4.5655160   -0.3185450   -0.6454400  
C     5.6041720   -1.2895820   -0.2093080  
C     5.2822780   -2.5294100   -0.9699060  
N     4.2480080   -2.3617840   -1.7522160  
C     6.0496430   -3.7373910   -0.8286690  
C     7.0837400   -3.7325080    0.0460680  
O     7.8789370   -4.7870130    0.2878890  
C     7.4254020   -2.5062340    0.8418600  
O     8.3690870   -2.5779220    1.6269550  
C     6.6318360   -1.2690300    0.6604370  
H     5.7845000   -4.6149790   -1.4077420  
H     8.5239470   -4.4761100    0.9609410  
H     6.9433920   -0.3972830    1.2214950  
H     2.9747960   -0.6769420   -2.1243460  
