60


C    -5.2078160   -2.1571240    3.4089930  
C    -4.2064200   -1.5333360    2.7103040  
C    -4.6399710   -1.4329670    1.3456230  
C    -5.9340000   -2.0166210    1.2809740  
N    -6.2491910   -2.4541720    2.5509270  
C    -6.6856190   -2.0774120    0.1032600  
C    -6.1152080   -1.5387720   -1.0405590  
O    -6.7912690   -1.5930630   -2.2240850  
C    -4.8295980   -0.9466200   -1.0006380  
O    -4.4014910   -0.4719960   -2.2318240  
C    -4.0711790   -0.8696570    0.1695310  
H    -3.2751440   -1.1760530    3.1251460  
H    -7.1134670   -2.9009490    2.8138620  
H    -7.6707650   -2.5295050    0.0516330  
H    -6.2059560   -1.2133370   -2.9027220  
H    -3.4334860   -0.4131460   -2.2319890  
H    -5.2677400   -2.4179630    4.4561610  
C    -1.6011590   -0.7239640    0.7759060  
C    -2.7368490   -0.2542550    0.1880040  
C    -2.3377880    1.0690520   -0.3414520  
C    -0.9001300    1.2169690    0.0478560  
N    -0.4880680    0.1514390    0.6819240  
C    -0.1145380    2.3971970   -0.2701060  
C    -0.7605900    3.3385290   -1.0320170  
O    -0.1645620    4.4321570   -1.5170950  
C    -2.2038230    3.2268250   -1.4182440  
O    -2.6923030    4.1367750   -2.0872040  
C    -2.9814690    2.0359480   -1.0199270  
H    -0.8708390    4.9401660   -1.9744090  
H    -4.0197130    1.9862340   -1.3301230  
H    -1.4737050   -1.6708040    1.2860950  
C     3.5325670   -0.1865520    0.0304120  
C     4.4155060    0.7841040    0.4447220  
C     3.6814910    2.0059790    0.6055920  
C     2.2790440    1.7013550    0.2264200  
N     2.2576360    0.3769490   -0.1415300  
C     1.2598460    2.6221160    0.2140620  
C     1.5834590    3.9448560    0.8052820  
O     0.7309930    4.7629650    1.1039950  
C     3.0806580    4.3048310    1.1096310  
O     3.3515430    5.4511770    1.4361280  
C     4.0775210    3.2491600    1.0004920  
H     5.4685540    0.6341430    0.6162590  
H     5.1093520    3.4889260    1.2382650  
H     1.3928850   -0.1568800   -0.0865910  
C     7.2668870   -2.5229290    0.2466520  
C     6.8449960   -3.7561160   -0.1071880  
C     5.4156720   -3.6129150   -0.3552710  
C     5.1351220   -2.1623850   -0.0907060  
N     6.2210950   -1.5420740    0.2581100  
C     3.7882640   -1.5930140   -0.2312780  
C     2.8188160   -2.4852540   -0.6173330  
O     1.5257910   -2.1653520   -0.7966710  
C     3.0857110   -3.9363550   -0.8815600  
O     2.1252910   -4.6317400   -1.2179940  
C     4.4471250   -4.4672790   -0.7329820  
H     7.4229030   -4.6654070   -0.1946350  
H     1.0896420   -3.0103670   -1.0586700  
H     4.5986450   -5.5231290   -0.9351530  
H     8.2674160   -2.2046570    0.5121420  
