64


C     5.0560510   -0.7703210   -2.8246760  
C     4.5335830   -0.5793720   -1.5638060  
C     5.6504070   -0.6540040   -0.6460780  
C     6.8136030   -0.8932180   -1.4207630  
N     6.4183310   -0.9675060   -2.7424570  
C     8.0871230   -1.0317710   -0.8543130  
C     8.1881870   -0.9293860    0.5239060  
O     9.4054700   -1.0481050    1.1288730  
C     7.0322670   -0.7034200    1.3184650  
O     7.2929230   -0.6394260    2.6743710  
C     5.7765810   -0.5726640    0.7559240  
H     7.0371920   -1.0839360   -3.5293080  
H     8.9791860   -1.2099560   -1.4461860  
H     9.2635370   -0.9249740    2.0834950  
H     6.4920210   -0.3651060    3.1452540  
H     4.9065630   -0.4079760    1.3868000  
H     4.5549900   -0.7580180   -3.7824890  
C     2.0662820   -1.1147360   -1.7174940  
C     3.1181190   -0.3801340   -1.2497350  
C     2.5389320    0.6627310   -0.4079410  
C     1.0743380    0.4565870   -0.4220880  
N     0.8553920   -0.6557380   -1.2124610  
C     0.1437510    1.2385960    0.2157610  
C     0.6880510    2.3889690    0.9637940  
O    -0.0115410    3.1814900    1.5767530  
C     2.2483190    2.6260040    0.9897420  
O     2.6700430    3.5919080    1.6097240  
C     3.1079020    1.6991410    0.2686810  
H     4.1780210    1.8757730    0.2771450  
H     2.0868890   -1.9783100   -2.3692110  
H    -0.0600260   -0.9219170   -1.5448230  
C    -1.8385520   -0.3263220    0.2418330  
C    -1.2929960    0.9438850    0.1892240  
C    -2.4167730    1.8525410    0.0611700  
C    -3.5922180    1.0615470    0.0403880  
N    -3.2178210   -0.2726980    0.1569700  
C    -4.8806150    1.6096820   -0.0760350  
C    -4.9773400    2.9898920   -0.1899980  
O    -6.2001110    3.5802600   -0.2890210  
C    -3.8090350    3.7954090   -0.1858010  
O    -4.0640460    5.1477810   -0.3042410  
C    -2.5462800    3.2492300   -0.0581600  
H    -5.7828140    1.0101300   -0.0091820  
H    -6.0519650    4.5422400   -0.3075310  
H    -3.2549770    5.6455110   -0.1121260  
H    -1.6730950    3.8907640   -0.0112820  
H    -1.3547610   -1.2821890    0.3834220  
C    -3.8701420   -3.6267000    2.9932700  
C    -3.4343020   -2.4631770    2.4152610  
C    -4.0997190   -2.3527110    1.1475860  
C    -4.9394740   -3.4902390    1.0116810  
N    -4.7730780   -4.2502970    2.1510040  
C    -5.7662330   -3.7012210   -0.0984240  
C    -5.7411090   -2.7438120   -1.1007540  
O    -6.5240950   -2.8908490   -2.2064130  
C    -4.8939160   -1.6076080   -1.0101210  
O    -4.9249800   -0.7858420   -2.1183220  
C    -4.0769670   -1.4060200    0.0995850  
H    -2.7323400   -1.7625040    2.8439320  
H    -5.2581620   -5.1108200    2.3506660  
H    -6.4195430   -4.5623460   -0.1931040  
H    -6.3770600   -2.1003360   -2.7568940  
H    -4.7358960    0.1344140   -1.8599070  
H    -3.6138010   -4.0687840    3.9456340  
