64


C     3.4579480   -0.7852260   -2.0132500  
C     3.9211260   -2.0652730   -2.1190860  
C     4.9070580   -2.2492730   -1.0900120  
C     5.0065300   -1.0250200   -0.3824960  
N     4.1086190   -0.1295450   -0.9664180  
C     5.8576980   -0.8579140    0.7152810  
C     6.6329970   -1.9429030    1.0960240  
O     7.4837640   -1.8290240    2.1593060  
C     6.5541120   -3.1724160    0.3934900  
O     7.3886570   -4.1575910    0.8902130  
C     5.7047980   -3.3362700   -0.6857280  
H     3.6007180   -2.7956900   -2.8496080  
H     5.9393240    0.0733230    1.2621110  
H     7.9323410   -2.6860320    2.2596490  
H     7.2880310   -4.9612120    0.3592600  
H     5.6522510   -4.2910550   -1.2057130  
H     2.7247250   -0.2542880   -2.6018790  
C     0.3343750    1.7404060    0.1368940  
C     0.7847390    3.0159610    0.4204610  
C     2.1935160    3.0155410    0.2073600  
C     2.5097120    1.6190480   -0.2378670  
N     1.4318700    0.8945140   -0.2773560  
C     3.8542600    1.1977810   -0.5671040  
C     4.8261270    2.1488410   -0.4544290  
O     6.1121010    1.9359240   -0.7290070  
C     4.5379280    3.5637330    0.0135080  
O     5.5203520    4.3134260    0.0711090  
C     3.1806750    3.9502530    0.3312660  
H     0.2029230    3.8726300    0.7165360  
H     6.5474100    2.8038710   -0.5400070  
H     3.0071080    4.9709080    0.6552250  
C    -3.7024340    3.1887050    1.5705240  
C    -2.3579220    3.0968410    1.2880580  
C    -2.1406000    1.8349070    0.6496360  
C    -3.4056380    1.2010150    0.5743660  
N    -4.3297820    2.0471320    1.1475590  
C    -3.6234220   -0.1063320    0.0710220  
C    -2.4646240   -0.7645690   -0.3357300  
O    -2.5384740   -2.0556600   -0.8171260  
C    -1.1785110   -0.1784100   -0.2962270  
O    -0.2119680   -1.0003250   -0.7636960  
C    -0.9726210    1.1502020    0.1691830  
H    -1.6246430    3.8397720    1.5563550  
H    -5.3228340    1.8668070    1.1697170  
H    -1.6212610   -2.3072500   -1.0467310  
H     0.6706010   -0.5196140   -0.6728480  
H    -4.2587950    3.9821410    2.0488630  
C    -7.5935970    1.3869630   -1.4451450  
C    -6.2590680    1.2476380   -1.1602020  
C    -6.0954440   -0.0102800   -0.4779720  
C    -7.3865990   -0.5959200   -0.3942080  
N    -8.2771480    0.2823970   -0.9771190  
C    -7.6216850   -1.8565220    0.1663830  
C    -6.5169280   -2.5520440    0.6274810  
O    -6.6635640   -3.7918160    1.1672650  
C    -5.2086620   -1.9983750    0.5550460  
O    -4.2375560   -2.8104070    1.0938110  
C    -4.9697150   -0.7196630    0.0390720  
H    -5.4814550    1.9465070   -1.4323940  
H    -9.2647380    0.1156670   -1.0901330  
H    -8.6092260   -2.3023030    0.2273050  
H    -5.7604900   -4.0861660    1.3943410  
H    -3.4628430   -2.7984200    0.4881050  
H    -8.1173340    2.1841510   -1.9534470  
