62


C     3.8379040    1.3119830    2.8209150  
C     2.9921400    0.5138040    2.0914600  
C     3.7726680   -0.1061220    1.0549000  
C     5.1054520    0.3553680    1.2231760  
N     5.1101700    1.2294290    2.2924440  
C     6.1714950   -0.0776220    0.4289410  
C     5.8841470   -1.0243550   -0.5415780  
O     6.8730020   -1.5102940   -1.3380780  
C     4.5639260   -1.5140860   -0.7330820  
O     4.4596990   -2.4309780   -1.7528860  
C     3.4810490   -1.0475950    0.0206290  
H     1.9393860    0.3744720    2.2878340  
H     5.9309710    1.6733200    2.6731900  
H     7.1904020    0.2708840    0.5634940  
H     6.4441760   -2.1823800   -1.9029810  
H     3.8761560   -3.1557230   -1.4250460  
H     3.6384960    1.9299410    3.6850480  
C    -0.2805170    1.2530420   -0.5765150  
C     1.0113970    0.8280150   -0.3961270  
C     1.0351990   -0.6024580   -0.3366110  
C    -0.3673010   -1.0266240   -0.4854570  
N    -1.1371380    0.1157430   -0.6961060  
C    -0.7923330   -2.3215800   -0.4145370  
C     0.2443370   -3.3572880   -0.3371790  
O    -0.0121690   -4.5494670   -0.3210800  
C     1.7495540   -2.9072080   -0.3518960  
O     2.5691470   -3.8180880   -0.4902200  
C     2.0906950   -1.4940350   -0.2228820  
H     1.8820510    1.4630450   -0.3850610  
H    -2.0679420    0.1571660   -0.2832230  
C    -2.6783830   -3.7123360   -1.2683730  
C    -4.0143680   -3.8387730   -1.0973920  
C    -4.4163100   -2.8930520   -0.0784240  
C    -3.1767010   -2.1941810    0.3459750  
N    -2.1473750   -2.7061990   -0.4357290  
C    -3.1297010   -1.2686120    1.3440780  
C    -4.3743780   -0.9093750    2.0241510  
O    -4.4180120   -0.1067160    2.9429570  
C    -5.7036020   -1.5939600    1.5447630  
O    -6.7586540   -1.2718330    2.0662650  
C    -5.6162130   -2.6089220    0.4898160  
H    -4.6628300   -4.5279000   -1.6186640  
H    -2.2076140   -0.8383700    1.7214230  
H    -6.5330460   -3.1147330    0.2023560  
H    -2.0099210   -4.2521110   -1.9218440  
C     0.9959780    5.2253480    1.0668970  
C     0.9119450    3.8846660    0.7783990  
C    -0.2006550    3.7150520   -0.1084000  
C    -0.7632190    5.0021560   -0.3137260  
N    -0.0071790    5.9016070    0.4077230  
C    -1.8931310    5.2272850   -1.1051940  
C    -2.4833100    4.1281880   -1.7112540  
O    -3.5736650    4.3032340   -2.5075310  
C    -1.9568320    2.8277400   -1.5255020  
O    -2.6456560    1.8596410   -2.2192350  
C    -0.8193760    2.5875590   -0.7305130  
H     1.5637660    3.1192900    1.1738560  
H    -0.1818880    6.8927120    0.4665860  
H    -2.3138880    6.2148140   -1.2648450  
H    -3.8182180    3.4300590   -2.8609560  
H    -2.1356960    1.0286190   -2.2220410  
H     1.6974220    5.7567020    1.6942710  
