64


C    -4.7413830    0.0584610   -0.0458030  
C    -5.6485870    1.1179360   -0.0556420  
C    -6.9536540    0.5659530   -0.0006330  
C    -6.8088550   -0.8531520    0.0439600  
N    -5.4685260   -1.1300640    0.0155690  
C    -7.9075190   -1.7203010    0.1045840  
C    -9.1697720   -1.1494770    0.1200020  
O   -10.2749220   -1.9435010    0.1780730  
C    -9.3345320    0.2670680    0.0756080  
O   -10.6573710    0.6680110    0.0985710  
C    -8.2547550    1.1204450    0.0162800  
H    -5.3670880    2.1576220   -0.1017930  
H    -5.0338610   -2.0410550    0.0370290  
H    -7.8056460   -2.7999320    0.1383960  
H   -11.0515610   -1.3571950    0.1771430  
H   -10.7017780    1.6347380    0.0583950  
H    -8.4013030    2.1981470   -0.0170420  
C    -1.9088840    3.4061960   -0.2840600  
C    -0.7174300    2.7624680   -0.2782970  
C    -1.0495690    1.3443050   -0.1856130  
C    -2.5372340    1.3194830   -0.1524800  
N    -3.0261770    2.5271670   -0.2102470  
C    -3.2978540    0.0641780   -0.0863870  
C    -2.5252530   -1.0716990   -0.0632600  
O    -3.0516110   -2.3262120    0.0183710  
C    -1.0525450   -1.0775870   -0.0662910  
O    -0.4866280   -2.1674460    0.0725030  
C    -0.2961340    0.2136520   -0.1789130  
H     0.2736410    3.1867180   -0.3533680  
H    -2.2623720   -2.9135950    0.0709410  
H    -2.0945820    4.4716150   -0.3492770  
C     2.6742240    2.1124520    2.5046950  
C     3.8022120    1.5912550    1.9282030  
C     3.3738870    0.7888830    0.8176530  
C     1.9577430    0.8690740    0.7676290  
N     1.5600050    1.6751030    1.8115420  
C     1.1744350    0.1761150   -0.1851580  
C     1.8804530   -0.5813000   -1.1243840  
O     1.2097850   -1.2208120   -2.1184140  
C     3.2954540   -0.6528060   -1.0989050  
O     3.8266130   -1.4445190   -2.0954000  
C     4.0671900    0.0106610   -0.1449030  
H     4.8198270    1.7457660    2.2554730  
H     0.6068440    1.9447160    2.0005900  
H     1.8588490   -1.7663660   -2.5974150  
H     4.7697530   -1.5911660   -1.9049130  
H     2.5638530    2.7653470    3.3588780  
C     7.0252910   -1.7150130    2.7947840  
C     5.8777360   -1.3008740    2.1702310  
C     6.2681060   -0.7058770    0.9231470  
C     7.6836550   -0.7940690    0.8455020  
N     8.1166800   -1.4125000    2.0003080  
C     8.4181420   -0.3222980   -0.2496900  
C     7.7085020    0.2546260   -1.2899870  
O     8.3703170    0.7457470   -2.3781830  
C     6.2928570    0.3477400   -1.2388870  
O     5.7350870    0.9568390   -2.3446830  
C     5.5500300   -0.1227780   -0.1541560  
H     4.8719680   -1.4008610    2.5515890  
H     9.0776170   -1.6144790    2.2268190  
H     9.5001250   -0.3849380   -0.3069840  
H     7.7014120    1.1418110   -2.9635810  
H     4.7930480    1.1228120   -2.1694210  
H     7.1614750   -2.2048140    3.7486700  
