64


C    -3.5360820    1.2667910    0.0639280  
C    -2.3201280    0.6402450    0.2869440  
C    -1.3100080    1.6488710    0.3172480  
C    -1.9628680    2.8901120    0.0932560  
N    -3.3113090    2.6310500   -0.0315920  
C    -1.2803020    4.1058920    0.0120330  
C     0.0986260    4.0781470    0.1618810  
O     0.8074160    5.2399590    0.1014520  
C     0.7856480    2.8602400    0.3936300  
O     2.1392160    3.0324230    0.5546720  
C     0.1073140    1.6310470    0.4811200  
H    -2.1821700   -0.4197550    0.4406660  
H    -4.0049850    3.2959250   -0.3378330  
H    -1.7813220    5.0535080   -0.1569500  
H     1.7424280    5.0113420    0.2479450  
H     2.5702030    2.1884180    0.7925300  
C     0.8217900    0.3985200    0.7645340  
C     0.4481690   -0.7065750    1.4830850  
C     1.5382260   -1.6467730    1.4940920  
C     2.6216900   -1.0184490    0.7149990  
N     2.1739930    0.2584350    0.3435260  
C     3.8188900   -1.5870440    0.4119950  
C     4.0633430   -2.9397070    0.9768590  
O     5.1281330   -3.5164860    0.8593200  
C     2.9196180   -3.6273140    1.8114380  
O     3.1114430   -4.7594400    2.2326630  
C     1.6858970   -2.8870560    2.0410430  
H    -0.4849910   -0.8191700    2.0155590  
H     0.9039600   -3.3711150    2.6180430  
H     2.4470860    0.6027330   -0.5731700  
C     5.9781170    2.2065290    1.1706160  
C     6.7573460    2.2026930    0.0465190  
C     6.4242240    1.0186390   -0.6984560  
C     5.4165730    0.3401930    0.0313410  
N     5.1351510    1.1021800    1.1531640  
C     4.8598800   -0.8917190   -0.3746500  
C     5.3560370   -1.4289510   -1.5651090  
O     4.8351610   -2.5893760   -2.0465520  
C     6.3593310   -0.7573450   -2.3100660  
O     6.7207870   -1.4167340   -3.4702490  
C     6.8920110    0.4501670   -1.8987140  
H     7.4835170    2.9562460   -0.2261850  
H     4.6383870    0.7480790    1.9572900  
H     5.3674540   -2.8473210   -2.8192610  
H     7.5073600   -0.9971350   -3.8487590  
H     7.6584310    0.9447340   -2.4920490  
H     5.9302450    2.9154820    1.9851290  
C    -4.8653450    0.7201270   -0.0574720  
C    -6.1015240    1.3250950    0.0852820  
C    -7.1004570    0.3281550   -0.1420380  
C    -6.4174020   -0.8858110   -0.4260930  
N    -5.0650700   -0.6242710   -0.3480070  
C    -7.0871970   -2.0803610   -0.7143460  
C    -8.4734070   -2.0531900   -0.7081310  
O    -9.1762850   -3.1888530   -0.9832060  
C    -9.1745410   -0.8515420   -0.4143160  
O   -10.5491950   -0.9905540   -0.4425060  
C    -8.5110300    0.3269210   -0.1323200  
H    -6.2721990    2.3526450    0.3784450  
H    -4.3347060   -1.2509500   -0.6494290  
H    -6.5703100   -3.0087700   -0.9342960  
H   -10.1211520   -2.9653250   -0.9231720  
H   -10.9650310   -0.1425140   -0.2282020  
H    -9.0695810    1.2343930    0.0885220  
