64


C    -4.4001970    0.3722650    0.0576770  
C    -5.4739230    1.1235020   -0.3621170  
C    -6.6612770    0.3352650   -0.2008570  
C    -6.2607330   -0.9128650    0.3332670  
N    -4.8687940   -0.9104170    0.4270880  
C    -7.1689600   -1.9239350    0.6558810  
C    -8.5138200   -1.6733750    0.4196450  
O    -9.4420600   -2.6238780    0.7179950  
C    -8.9327210   -0.4354660   -0.1386750  
O   -10.2967470   -0.3454690   -0.3244830  
C    -8.0289250    0.5627830   -0.4525610  
H    -5.4089810    2.1104660   -0.7986860  
H    -4.3980700   -1.4331790    1.1570420  
H    -6.8674080   -2.8801480    1.0708880  
H   -10.3142420   -2.2641420    0.4800970  
H   -10.5203200    0.5221690   -0.6926500  
H    -8.3719960    1.5049130   -0.8748440  
C    -2.1286000    4.1209520    0.9646950  
C    -3.1179600    3.1943650    0.7749100  
C    -2.4830040    1.9829480    0.3384070  
C    -1.0916080    2.2439290    0.2739640  
N    -0.9075500    3.5582480    0.6413410  
C    -0.1224820    1.2624880   -0.0626860  
C    -0.6374940   -0.0270350   -0.2806320  
O     0.2058950   -1.0497930   -0.6003730  
C    -2.0198380   -0.3037070   -0.2272510  
O    -2.3230070   -1.6201770   -0.5178610  
C    -2.9737020    0.6779010    0.0621660  
H    -4.1728750    3.3448040    0.9481320  
H    -0.0077550    3.9629200    0.8508080  
H    -0.3414230   -1.8368820   -0.7757900  
H    -3.2802110   -1.6941590   -0.6920670  
H    -2.1861650    5.1470940    1.2986070  
C     1.2907730    1.5778280   -0.1783390  
C     1.9004760    2.7969730   -0.3963400  
C     3.3201180    2.5956200   -0.3946980  
C     3.5294330    1.1444110   -0.1658600  
N     2.2784540    0.5971100   -0.0419680  
C     4.7504010    0.5125760   -0.0793560  
C     5.9069540    1.4074630   -0.1115330  
O     7.0539120    1.0496670    0.1690890  
C     5.7206910    2.9228140   -0.4895380  
O     6.7243970    3.5972260   -0.6726560  
C     4.3701470    3.4486550   -0.5697010  
H     1.4068030    3.7293100   -0.6251980  
H     4.2443200    4.5056800   -0.7816640  
H     2.0795900   -0.3938580   -0.0071540  
C     2.9632890   -2.9132310   -2.3772570  
C     3.3502410   -1.6686490   -1.9512240  
C     4.1708350   -1.8493570   -0.7823590  
C     4.2521280   -3.2499640   -0.5588280  
N     3.4907660   -3.8694820   -1.5303140  
C     5.0208680   -3.8187980    0.4623020  
C     5.7445980   -2.9456670    1.2571940  
O     6.5385940   -3.4206010    2.2547280  
C     5.6850130   -1.5379690    1.0618870  
O     6.4520080   -0.8256680    1.9529390  
C     4.8809390   -0.9572930    0.0773690  
H     3.0895900   -0.7349260   -2.4276990  
H     3.4292490   -4.8662350   -1.6658670  
H     5.0906660   -4.8895240    0.6252820  
H     6.9725600   -2.6313700    2.6342330  
H     6.8983060   -0.1124520    1.4336740  
H     2.3543100   -3.2017010   -3.2225090  
