62


C    -1.6914840    5.7354000   -1.5974030  
C    -0.8376720    6.6193010   -0.9920750  
C     0.0840030    5.8435660   -0.2129500  
C    -0.2697060    4.4817580   -0.3758800  
N    -1.3608360    4.4479800   -1.2154500  
C     0.4494000    3.4049270    0.2104310  
C     1.5657530    3.7740830    0.9898950  
O     2.2988990    2.8430340    1.6476490  
C     1.9165230    5.1389840    1.1638480  
O     3.0246740    5.3191570    1.9706490  
C     1.1988320    6.1663220    0.5850320  
H    -0.8584560    7.6958320   -1.0902570  
H    -1.7500860    3.6015170   -1.6012380  
H     2.9850870    3.3235810    2.1455640  
H     3.1791480    6.2649830    2.1093830  
H     1.4958000    7.2016910    0.7395500  
H    -2.5230500    5.9110620   -2.2649020  
C     0.0430320    2.0266670    0.0116410  
C    -1.2234460    1.5312260   -0.2113140  
C    -1.0712390    0.1109920   -0.3550560  
C     0.3950830   -0.1265750   -0.2201280  
N     1.0278370    0.9882540   -0.0039050  
C     1.0062950   -1.4573970   -0.3087030  
C     0.1100390   -2.4902810   -0.4768870  
O     0.4221930   -3.7814970   -0.5307740  
C    -1.3824870   -2.2754530   -0.6199660  
O    -2.0598180   -3.2828600   -0.8279170  
C    -1.9509310   -0.9179740   -0.5371380  
H    -2.1628080    2.0612460   -0.1484110  
H    -0.4375560   -4.2414510   -0.6875190  
C     2.4411090   -1.6277090   -0.2014890  
C     3.3849020   -0.6941930    0.1499560  
C     4.6523490   -1.3804560    0.0955070  
C     4.3037640   -2.7748090   -0.3286310  
N     3.0271590   -2.9196490   -0.5007190  
C     5.3191580   -3.7842250   -0.5087530  
C     6.6034370   -3.4299770   -0.2742400  
O     7.6535820   -4.2576710   -0.3960160  
C     6.9845210   -2.0320900    0.1580420  
O     8.1834130   -1.8124030    0.3446560  
C     5.9379210   -1.0216580    0.3296550  
H     3.2061520    0.3360060    0.4143460  
H     5.0416540   -4.7857810   -0.8180630  
H     8.4352420   -3.7083090   -0.1599200  
H     6.2492300   -0.0274180    0.6351370  
C    -3.8338280    0.2248390   -1.6491020  
C    -5.1956180    0.2022680   -1.6202360  
C    -5.5879730   -0.7951910   -0.6605150  
C    -4.4027310   -1.3702170   -0.1409300  
N    -3.3196990   -0.7328670   -0.7648080  
C    -4.4242880   -2.3387410    0.8680180  
C    -5.6625050   -2.7567860    1.3318780  
O    -5.7317090   -3.7079800    2.3073400  
C    -6.8591670   -2.2060070    0.8055760  
O    -8.0092390   -2.7229640    1.3675550  
C    -6.8341220   -1.2329950   -0.1771650  
H    -5.8522360    0.8117300   -2.2264020  
H    -3.5289460   -2.7856170    1.2802800  
H    -6.6735650   -3.8704480    2.4872640  
H    -8.7843940   -2.3233430    0.9461520  
H    -7.7607690   -0.8081280   -0.5578330  
H    -3.1511650    0.7967030   -2.2596000  
