64


C     5.2122580   -2.7357970   -1.0975900  
C     4.4879730   -1.5766470   -1.1737550  
C     4.8444940   -0.7723500   -0.0385940  
C     5.8117870   -1.5118980    0.6949440  
N     6.0070140   -2.7069520    0.0353550  
C     6.4273940   -1.0363370    1.8575870  
C     6.0747700    0.2347530    2.2774280  
O     6.6418920    0.7739210    3.3936860  
C     5.1285600    1.0105160    1.5581690  
O     4.8768670    2.2460040    2.1267940  
C     4.4794130    0.5286060    0.4137630  
H     3.7530190   -1.3447500   -1.9279870  
H     6.6747240   -3.4125830    0.3018000  
H     7.1629250   -1.6090120    2.4137100  
H     6.2521270    1.6658810    3.4713630  
H     4.9667400    2.9233560    1.4235650  
H     5.2261620   -3.5933210   -1.7557570  
C     0.3392040   -0.3386680   -0.9475810  
C    -0.0203570    0.8732870   -1.4763120  
C     1.1304200    1.7293430   -1.3305020  
C     2.1558600    0.8604860   -0.6609550  
N     1.6956940   -0.3302520   -0.4429370  
C     3.4842820    1.3658150   -0.2919650  
C     3.6922520    2.6757250   -0.6036380  
O     4.8494730    3.3381550   -0.3214000  
C     2.6991970    3.5570540   -1.2901370  
O     3.0476000    4.7224530   -1.5192480  
C     1.3902520    3.0186840   -1.6476000  
H    -0.9477290    1.1354690   -1.9672910  
H     4.6958630    4.2461830   -0.6803970  
H     0.6844260    3.6869160   -2.1309070  
C    -3.9615440   -0.7382360   -0.0690470  
C    -4.0056740   -2.1255220   -0.0712440  
C    -2.6876500   -2.5995000   -0.3527740  
C    -1.8638870   -1.4585230   -0.5272160  
N    -2.6575850   -0.3558750   -0.3442680  
C    -0.4721780   -1.5333550   -0.7943810  
C     0.0625220   -2.8315030   -0.8965640  
O     1.3597520   -3.0118010   -1.2368370  
C    -0.7583600   -3.9772790   -0.7240650  
O    -0.0739400   -5.1698720   -0.8696970  
C    -2.1100490   -3.8807890   -0.4597130  
H    -4.8927160   -2.7351810    0.0269370  
H    -2.3657830    0.6074940   -0.4142930  
H     1.5459730   -3.9659800   -1.1864900  
H    -0.6717030   -5.9105540   -0.6914990  
H    -2.7133800   -4.7789450   -0.3421630  
C    -7.7192910   -1.0817130    2.2119830  
C    -8.2143850    0.1670020    1.9464760  
C    -7.2455300    0.8387080    1.1266140  
C    -6.1790000   -0.0716980    0.9127090  
N    -6.5041090   -1.2411260    1.5703600  
C    -5.0179850    0.2438280    0.1660820  
C    -4.9611920    1.5562110   -0.3202530  
O    -3.8599640    1.9884940   -1.0223280  
C    -6.0209140    2.4727440   -0.1200920  
O    -5.7918070    3.7111000   -0.6944390  
C    -7.1625740    2.1333760    0.5795880  
H    -9.1571980    0.5664890    2.2939500  
H    -5.8472390   -1.9872500    1.7407030  
H    -4.0311760    2.9146540   -1.2693310  
H    -6.5421090    4.2960940   -0.5143530  
H    -7.9632470    2.8565650    0.7189970  
H    -8.1361740   -1.8876550    2.7994330  
