60


C    -6.7145310   -2.2780300   -2.0117740  
C    -5.5570500   -1.7748270   -1.4762130  
C    -5.8924300   -0.5486180   -0.8082770  
C    -7.2947930   -0.3703640   -0.9682950  
N    -7.7631100   -1.4292380   -1.7180010  
C    -7.9979870    0.6981220   -0.4085040  
C    -7.2727930    1.5957230    0.3620270  
O    -7.8992540    2.6503420    0.9484200  
C    -5.8778360    1.4383290    0.5629660  
O    -5.3164640    2.4328740    1.3352430  
C    -5.1524390    0.4012710   -0.0388240  
H    -4.5805010   -2.2284020   -1.5561830  
H    -8.7286970   -1.5864940   -1.9600530  
H    -9.0678760    0.8321230   -0.5319790  
H    -7.2081390    3.1147930    1.4587720  
H    -4.7290670    1.9912350    1.9853860  
H    -6.8794880   -3.1782840   -2.5866190  
C    -1.8127970   -0.2617130   -2.9241680  
C    -3.0328480    0.0124930   -2.4102300  
C    -2.8439110    0.0458290   -0.9613460  
C    -1.3927740   -0.2400730   -0.7838760  
N    -0.7986370   -0.4286650   -1.9275920  
C    -0.7661890   -0.3093980    0.5297070  
C    -1.5793490   -0.0231110    1.5855290  
O    -1.1370920    0.0449000    2.8518080  
C    -3.0194850    0.3360270    1.4215730  
O    -3.6119700    0.6857290    2.4535190  
C    -3.6871090    0.2710100    0.0859890  
H    -3.9599780    0.1833510   -2.9361300  
H    -1.9179250    0.2724290    3.3991880  
H    -1.5305090   -0.3594220   -3.9654250  
C     3.0995180    1.2557350   -1.0307290  
C     1.7910260    1.0347040   -0.7652470  
C     1.7038220   -0.1085930    0.1106000  
C     3.0996900   -0.5499190    0.3469210  
N     3.9184700    0.3035450   -0.4004360  
C     3.4572110   -1.5402850    1.2006460  
C     2.4004340   -2.2594990    1.9020150  
O     2.6266300   -3.1484460    2.7081240  
C     0.9099000   -1.8759120    1.6041830  
O     0.0281260   -2.5582500    2.0940240  
C     0.6367900   -0.7154360    0.7182600  
H     0.9598570    1.5985010   -1.1571610  
H     4.4818210   -1.8270000    1.3957290  
H     3.5610420    2.0252350   -1.6297000  
C     6.7182160    3.5845150   -0.0818360  
C     7.9037050    2.9435480   -0.1869140  
C     7.5647490    1.5345560   -0.3676750  
C     6.0707060    1.5189170   -0.3421970  
N     5.5832550    2.7119880   -0.1790040  
C     5.3193590    0.2779960   -0.4850440  
C     6.0408070   -0.8633940   -0.6953480  
O     5.4859210   -2.0697910   -0.8995660  
C     7.5337580   -0.8640450   -0.7115530  
O     8.0999690   -1.9400630   -0.9076240  
C     8.2735700    0.4028910   -0.5332380  
H     8.8989610    3.3632940   -0.1432130  
H     6.2446040   -2.6869790   -1.0068190  
H     9.3576770    0.3504810   -0.5584620  
H     6.5377880    4.6426800    0.0615530  
