60


C     4.3894590    3.3620200    1.5717570  
C     4.1714860    4.6801780    1.2703410  
C     2.9491240    4.7397070    0.5209860  
C     2.4808950    3.4067820    0.3842240  
N     3.3815110    2.5873330    1.0275390  
C     1.2694030    3.0803870   -0.2768550  
C     0.5148530    4.1642170   -0.7461760  
O    -0.6938910    3.9482690   -1.3572340  
C     0.9785000    5.4944660   -0.6234940  
O     0.1177350    6.4278880   -1.1699030  
C     2.1825090    5.7930360   -0.0125580  
H     4.8000100    5.5128050    1.5538840  
H     3.2320670    1.6035030    1.2165740  
H    -1.0374740    4.8232900   -1.6135900  
H     0.4754830    7.3190700   -1.0440760  
H     2.5159850    6.8253040    0.0706810  
H     5.1911690    2.8980120    2.1285980  
C     0.8491600    1.6973310   -0.4204060  
C     1.6260180    0.5636600   -0.4379570  
C     0.7639850   -0.5762020   -0.4283510  
C    -0.6163520   -0.0414910   -0.4767340  
N    -0.4946530    1.3286030   -0.4873870  
C    -1.7641560   -0.7901770   -0.5156450  
C    -1.5767090   -2.2484010   -0.4664760  
O    -2.5015460   -3.0405480   -0.5531770  
C    -0.1261590   -2.8338310   -0.2931300  
O    -0.0301490   -4.0274940   -0.0626750  
C     1.0328560   -1.9235390   -0.3710600  
H     2.7012530    0.5289990   -0.4583190  
H    -1.2569050    1.9887170   -0.4917420  
C     4.5236410   -1.1968040    2.3146380  
C     5.3549980   -2.1965770    1.9481150  
C     4.6745190   -2.8692600    0.8486440  
C     3.3831370   -2.1133230    0.6870340  
N     3.3207390   -1.1263860    1.5397660  
C     2.3839220   -2.5077370   -0.3005950  
C     2.7399880   -3.5449790   -1.1205620  
O     1.9738560   -3.9774890   -2.1274560  
C     4.0371730   -4.2913700   -0.9951550  
O     4.2522050   -5.2044990   -1.7904590  
C     4.9956800   -3.9071250    0.0552860  
H     6.3155210   -2.4612360    2.3676370  
H     2.4518740   -4.7433170   -2.5162460  
H     5.9169310   -4.4772000    0.1264340  
H     4.6635760   -0.4724830    3.1089110  
C    -3.4350890    0.7893910   -1.5527650  
C    -3.0989760   -0.2045560   -0.6757580  
C    -4.3272460   -0.5251940    0.0625950  
C    -5.3815080    0.3738820   -0.4678850  
N    -4.7708720    1.1478590   -1.4353890  
C    -6.6722450    0.3934270   -0.0470790  
C    -7.0654120   -0.5175980    1.0206850  
O    -8.1999890   -0.5725280    1.4715480  
C    -5.9607180   -1.4615450    1.6197830  
O    -6.2578560   -2.2123920    2.5344310  
C    -4.6028950   -1.4024420    1.0593570  
H    -7.4237580    1.0593070   -0.4604090  
H    -3.8670030   -2.0906420    1.4576330  
H    -2.8110140    1.2765380   -2.2911500  
H    -5.2507700    1.7998140   -2.0359490  
