62


C     7.1171060    2.0573350    0.2132500  
C     8.0852930    1.0877400    0.1889590  
C     7.4116790   -0.1743170    0.0835240  
C     6.0169250    0.0991780    0.0394030  
N     5.8718500    1.4669710    0.1337940  
C     5.0257550   -0.9086530   -0.0379340  
C     5.5171100   -2.2138440   -0.0490700  
O     4.6336890   -3.2798500   -0.0901800  
C     6.8994450   -2.5090810   -0.0089230  
O     7.1745660   -3.8649580   -0.0354700  
C     7.8516700   -1.5111800    0.0508780  
H     9.1524180    1.2500400    0.2502140  
H     4.9917000    1.9549660    0.0673600  
H     5.1723920   -4.0923850   -0.1106460  
H     8.1329270   -4.0042530   -0.0278960  
H     8.9109930   -1.7560550    0.0862600  
H     7.2078400    3.1319700    0.2859870  
C     2.6178550    1.9374190   -2.5501300  
C     3.6192880    1.1653210   -2.0238800  
C     3.0498170    0.3981270   -0.9458500  
C     1.6766710    0.7542100   -0.8849770  
N     1.4408070    1.6871000   -1.8698700  
C     0.7841170    0.1575780    0.0260540  
C     1.2981330   -0.8394370    0.8508870  
O     0.4854350   -1.4891360    1.7254740  
C     2.6682450   -1.2053840    0.7986270  
O     3.0005030   -2.1793470    1.7127780  
C     3.5766230   -0.5869380   -0.0623310  
H     4.6377980    1.1206020   -2.3800660  
H     0.5680460    2.1717090   -2.0127750  
H     1.0632840   -2.1353690    2.1789540  
H     3.5790140   -2.8318100    1.2572300  
H     2.6369520    2.6442090   -3.3672890  
C    -1.6341000   -0.4027730   -0.0266190  
C    -2.8660460    0.2034720    0.0604400  
C    -2.6011810    1.6335610    0.2425230  
C    -1.1274580    1.7786300    0.2657620  
N    -0.5955980    0.4998350    0.0731710  
C    -0.4658010    2.9487560    0.4558340  
C    -1.2538000    4.1683980    0.6273500  
O    -0.7465510    5.2657690    0.8015040  
C    -2.8176180    4.0440370    0.5772340  
O    -3.4932440    5.0533230    0.6953280  
C    -3.4103770    2.7124270    0.3919600  
H     0.6143990    3.0202740    0.5127480  
H    -4.4892220    2.6172860    0.3802660  
H    -1.4026140   -1.4499250   -0.1569870  
C    -4.1356750   -0.4626490   -0.0230410  
C    -4.4062470   -1.8077950   -0.1449880  
C    -5.8322450   -1.9199290   -0.1884930  
C    -6.3189120   -0.4991270   -0.0782250  
N    -5.3295580    0.3399950    0.0176030  
C    -7.7209290   -0.1774530   -0.0843890  
C    -8.5936430   -1.2067400   -0.1921260  
O    -9.9236030   -1.0718260   -0.2120560  
C    -8.1352360   -2.6522680   -0.3041950  
O    -9.0263720   -3.5009200   -0.3977650  
C    -6.7117540   -2.9527430   -0.2965110  
H    -3.6996150   -2.6250250   -0.1892130  
H    -8.0465540    0.8536260   -0.0038940  
H   -10.2672290   -1.9922290   -0.2978130  
H    -6.4186770   -3.9946620   -0.3782470  
