64


C     4.1674490   -1.3220190   -2.4215230  
C     5.1785420   -2.2263110   -2.2732990  
C     5.5345450   -2.2602380   -0.8781620  
C     4.6973800   -1.3407570   -0.2029970  
N     3.8652300   -0.7783440   -1.1701920  
C     4.7608660   -1.1093010    1.1735680  
C     5.7033050   -1.8313320    1.8911720  
O     5.8144110   -1.6497470    3.2368140  
C     6.5562170   -2.7608920    1.2370980  
O     7.4357600   -3.3997060    2.0881280  
C     6.4826990   -2.9814050   -0.1260050  
H     5.6260700   -2.8073910   -3.0679880  
H     4.1191740   -0.4000800    1.6844670  
H     6.5336010   -2.2257450    3.5491370  
H     8.0194650   -3.9806920    1.5782860  
H     7.1458670   -3.6988230   -0.6050620  
H     3.6182370   -0.9941910   -3.2919290  
C     1.6022620   -0.1074510   -0.5120450  
C     0.9099260    1.0423970   -0.2732980  
C     1.8319880    2.1487190   -0.5449270  
C     3.1214950    1.5422530   -0.9496270  
N     2.9066930    0.1679540   -0.9422100  
C     4.2442390    2.2311100   -1.2636400  
C     4.1888860    3.6913490   -1.2208590  
O     5.1461040    4.4034500   -1.4788150  
C     2.8227560    4.3656720   -0.8338340  
O     2.7461140    5.5831540   -0.8100820  
C     1.6826620    3.4983130   -0.5100790  
H     5.1733090    1.7502650   -1.5501100  
H     0.7424990    3.9822570   -0.2660850  
H     1.2883590   -1.1371650   -0.4120930  
C    -0.4804130    1.1344870    0.1382870  
C    -1.5481860    0.3143840   -0.1626690  
C    -2.6927490    0.8197700    0.5309170  
C    -2.2702550    1.9710000    1.2464230  
N    -0.9298210    2.1572250    0.9716390  
C    -3.1338230    2.7325190    2.0424100  
C    -4.4549900    2.3211100    2.1160330  
O    -5.3415310    3.0101790    2.8888400  
C    -4.9035020    1.1817490    1.3948500  
O    -6.2400010    0.8989120    1.5754210  
C    -4.0534690    0.4186700    0.5940330  
H    -1.5236650   -0.5316860   -0.8344730  
H    -0.3221200    2.7830440    1.4783090  
H    -2.8111890    3.6093700    2.5941850  
H    -6.1935640    2.5429650    2.8329030  
H    -6.4309160    0.0333350    1.1732220  
C    -3.1630290   -3.9992300    0.8912730  
C    -3.1729230   -2.6416730    1.0803000  
C    -4.1143410   -2.0922660    0.1452700  
C    -4.6523060   -3.1812730   -0.5908000  
N    -4.0524740   -4.3296990   -0.1155870  
C    -5.6202840   -3.0216710   -1.5906510  
C    -6.0526050   -1.7327580   -1.8562190  
O    -6.9837220   -1.5114890   -2.8293030  
C    -5.5336200   -0.6290340   -1.1292140  
O    -6.0541830    0.5887840   -1.5162920  
C    -4.5722840   -0.7764470   -0.1279180  
H    -2.5809210   -2.0926360    1.7981390  
H    -4.2427760   -5.2635420   -0.4430840  
H    -6.0287150   -3.8530000   -2.1563130  
H    -7.1126400   -0.5485260   -2.8862760  
H    -5.5361310    1.2963080   -1.0946400  
H    -2.5935820   -4.7689760    1.3929690  
