64


C     0.7321410    1.5953420   -0.2198510  
C     1.7110030    0.6154690   -0.1802110  
C     1.0679130   -0.6487170   -0.0426460  
C    -0.3279610   -0.3917750   -0.0192040  
N    -0.4995560    0.9707200   -0.1008600  
C    -1.3121680   -1.4060720    0.0283210  
C    -0.7958440   -2.7152860   -0.0486980  
O    -1.6463810   -3.7883120   -0.0621370  
C     0.5847120   -3.0000410   -0.0846970  
O     0.8537170   -4.3495270   -0.0779180  
C     1.5629750   -1.9926280   -0.0229390  
H     2.7700530    0.7752810   -0.3012610  
H    -1.3650670    1.4381910   -0.3318610  
H    -1.0658360   -4.5736180   -0.1274940  
H     1.6008750   -4.4971260   -0.7017590  
C     4.1090980    4.2518570    0.8200840  
C     3.5560550    5.4271030    0.3868060  
C     2.2453590    5.1161750   -0.1083450  
C     2.0635430    3.7154060    0.0396700  
N     3.2221580    3.2149060    0.5989870  
C     0.8707860    3.0445710   -0.3313020  
C    -0.1547080    3.8677640   -0.8138830  
O    -1.3649960    3.3210230   -1.1695710  
C     0.0147670    5.2633460   -0.9652400  
O    -1.1045430    5.9035920   -1.4698260  
C     1.1973280    5.8956200   -0.6335880  
H     4.0223560    6.4021260    0.4177740  
H     3.3371200    2.2749470    0.9492230  
H    -1.9111300    4.0438500   -1.5258890  
H    -0.8921850    6.8308670   -1.6508080  
H     1.3044410    6.9711360   -0.7577020  
H     5.0746280    4.0554990    1.2644940  
C    -2.7320440   -1.1160380    0.1270530  
C    -3.3839370    0.0439290    0.5423890  
C    -4.7846710   -0.1955030    0.4727020  
C    -4.9534900   -1.5291040    0.0020440  
N    -3.7026270   -2.0541680   -0.2018240  
C    -6.2149840   -2.1085900   -0.1844730  
C    -7.3238780   -1.3321730    0.1107760  
O    -8.5762360   -1.8451980   -0.0499470  
C    -7.1743670    0.0036460    0.5837030  
O    -8.3762990    0.6403600    0.8287890  
C    -5.9319920    0.5747520    0.7656000  
H    -2.9121350    0.9368590    0.9253630  
H    -3.4761020   -3.0089760   -0.4399350  
H    -6.3496880   -3.1240490   -0.5419410  
H    -9.2076270   -1.1540690    0.2151310  
H    -8.2066250    1.5281320    1.1768640  
H    -5.8418290    1.5970930    1.1275020  
C     4.9137180   -0.2639300    2.3910460  
C     3.6638340   -0.5914350    1.9711470  
C     3.8593400   -1.5475240    0.8849900  
C     5.3287560   -1.6793720    0.7956460  
N     5.9478990   -0.9196030    1.6635140  
C     5.9586480   -2.5608050   -0.1541490  
C     5.1558380   -3.3140620   -0.9389470  
O     5.6138000   -4.2119940   -1.8356810  
C     3.6673950   -3.2465600   -0.8304710  
O     3.0390030   -4.0513950   -1.5390130  
C     3.0057390   -2.2442000    0.0640040  
H     2.7172040   -0.2619020    2.3732050  
H     7.0398510   -2.6252010   -0.2059390  
H     4.8168370   -4.6242440   -2.2292830  
H     5.1917880    0.3968350    3.2040070  
