62


C    -4.6478570   -0.1116210    0.0779360  
C    -5.5242120   -0.7642180    0.9152610  
C    -6.8443040   -0.6347090    0.3690690  
C    -6.7268400    0.1171090   -0.8254100  
N    -5.3917030    0.4867490   -0.9618300  
C    -7.8201570    0.4118770   -1.6443570  
C    -9.0644610   -0.0534480   -1.2418710  
O   -10.1648260    0.2026850   -2.0060700  
C    -9.2053890   -0.7897960   -0.0359950  
O   -10.5052540   -1.1722970    0.2334430  
C    -8.1193320   -1.0807480    0.7695010  
H    -5.2566540   -1.2316870    1.8524000  
H    -4.9745580    0.6529910   -1.8693860  
H    -7.7338070    0.9837740   -2.5626290  
H   -10.9285410   -0.1968220   -1.5549840  
H   -10.5310460   -1.6697930    1.0640830  
H    -8.2508500   -1.6503180    1.6873170  
C    -1.3426330   -2.7374010    1.5908660  
C    -2.5604530   -2.2469490    1.1991520  
C    -2.3436490   -0.9148410    0.7082990  
C    -0.9528650   -0.6568220    0.8171620  
N    -0.3712710   -1.7811440    1.3643400  
C    -0.3520970    0.5635350    0.4355800  
C    -1.2177040    1.5271340   -0.0892530  
O    -0.7152970    2.7130180   -0.5281540  
C    -2.6053340    1.2873790   -0.2166850  
O    -3.2989880    2.3572810   -0.7555210  
C    -3.2029240    0.0857640    0.1774650  
H    -3.5000570   -2.7772630    1.2380340  
H     0.6102900   -1.8818950    1.5701340  
H    -1.4779320    3.2835090   -0.7322170  
H    -4.2464140    2.2512160   -0.5539830  
H    -1.0784380   -3.6974190    2.0110900  
C     3.2949260   -1.5153280   -0.9977320  
C     2.0223020   -1.1235620   -0.7594230  
C     2.0749010    0.0585950    0.0786130  
C     3.5110880    0.3320190    0.3094610  
N     4.2184490   -0.6450760   -0.3862670  
C     3.9889800    1.3572700    1.0709370  
C     3.0303950    2.2720840    1.6730080  
O     3.3623280    3.2509050    2.3258880  
C     1.4995960    1.9818690    1.4783410  
O     0.7025110    2.6630790    2.0937160  
C     1.0848210    0.8427910    0.6075670  
H     1.1274920   -1.5965540   -1.1349020  
H     5.0411460    1.5115730    1.2811750  
H     3.6666340   -2.3514710   -1.5699830  
C     7.3409170    2.2494110   -1.3996690  
C     8.4202900    1.4396880   -1.2621570  
C     7.9327510    0.1243800   -0.9016580  
C     6.4559740    0.2464590   -0.8331960  
N     6.1563420    1.5453190   -1.1783910  
C     5.6182680   -0.7798400   -0.4875560  
C     6.2204840   -2.0987390   -0.2335110  
O     5.5534280   -3.0863430    0.0300630  
C     7.7854680   -2.2384500   -0.3300510  
O     8.2760560   -3.3365940   -0.1244930  
C     8.5693180   -1.0557400   -0.6711940  
H     9.4544740    1.7155310   -1.4068030  
H     9.6477710   -1.1619680   -0.7290650  
H     7.2951620    3.2985380   -1.6594920  
H     5.2513240    1.9723630   -1.0377370  
