64


C     4.6798390    1.0387940   -0.0981500  
C     4.8506950   -0.3177480   -0.3352280  
C     6.1648000   -0.6723260    0.0967550  
C     6.7713770    0.5127460    0.5941080  
N     5.8495070    1.5254290    0.4755040  
C     8.0792840    0.5363850    1.0966390  
C     8.7850520   -0.6562610    1.0984010  
O    10.0647100   -0.6921170    1.5778470  
C     8.1924000   -1.8514150    0.6076030  
O     9.0236620   -2.9564950    0.6793960  
C     6.9034920   -1.8737610    0.1119320  
H     4.1494420   -0.9818370   -0.8195790  
H     6.0145030    2.5086490    0.6290070  
H     8.5475910    1.4380380    1.4780090  
H    10.3721710   -1.6112650    1.4962100  
H     8.5482840   -3.7342990    0.3522000  
H     6.4690830   -2.8008670   -0.2571500  
C     0.3969620    0.0358490   -0.5298080  
C    -0.0496350    1.3286470   -0.8123130  
C     1.0751730    2.1935710   -0.7718880  
C     2.2122300    1.3875280   -0.4723990  
N     1.7686260    0.1008080   -0.3336380  
C     3.5279170    1.9027470   -0.3499280  
C     3.6285340    3.2925000   -0.4930590  
O     4.8459150    3.9144020   -0.3654460  
C     2.5028120    4.1076620   -0.7862290  
O     2.8168810    5.4506770   -0.9015540  
C     1.2372530    3.5858980   -0.9406040  
H    -1.0559800    1.6103540   -1.0817750  
H     2.3124490   -0.7213190   -0.1093100  
H     4.7012610    4.8615220   -0.5385990  
H     2.0349310    5.9410250   -1.1944080  
H     0.3909210    4.2304000   -1.1674340  
C    -3.9383170   -1.0034600   -0.0893480  
C    -2.7232390   -0.3594620   -0.1056390  
C    -1.6957420   -1.3271960   -0.3460110  
C    -2.3847720   -2.6254790   -0.4564630  
N    -3.7485700   -2.3670370   -0.3820310  
C    -1.7807830   -3.8349900   -0.6002970  
C    -0.3347280   -3.8630710   -0.6491770  
O     0.3260380   -4.8821670   -0.7901730  
C     0.4375720   -2.4988980   -0.5092480  
O     1.6593810   -2.5692540   -0.4189230  
C    -0.3147750   -1.2230790   -0.4691600  
H    -2.5882670    0.7007200    0.0339920  
H    -2.3257130   -4.7688490   -0.6946810  
H    -4.3859880   -3.0684580   -0.0281290  
C    -5.2574430   -0.4883510    0.1330970  
C    -5.6700450    0.6645910    0.7810250  
C    -7.0932280    0.6988990    0.7386990  
C    -7.5188930   -0.4665750    0.0420220  
N    -6.3908500   -1.1962850   -0.2784970  
C    -8.8661400   -0.7435580   -0.2129660  
C    -9.8029320    0.1638880    0.2570160  
O   -11.1266530   -0.0552890    0.0381240  
C    -9.3972390    1.3267510    0.9752190  
O   -10.4522250    2.1174570    1.3787020  
C    -8.0680210    1.6000940    1.2216510  
H    -5.0154350    1.3713640    1.2723460  
H    -6.3665850   -1.8968070   -1.0060510  
H    -9.1973590   -1.6270160   -0.7485990  
H   -11.6166770    0.6807730    0.4447110  
H   -10.1190560    2.8893100    1.8601190  
H    -7.7790000    2.4949310    1.7684470  
