64


C     1.4215150   -0.0932220   -1.7983240  
C     0.4023000    0.8061300   -1.6737010  
C     0.6953030    1.6331060   -0.5337230  
C     1.9464000    1.2067660   -0.0256060  
N     2.3706140    0.1241390   -0.8034080  
C     2.5745100    1.8424730    1.0543890  
C     1.9299160    2.9482900    1.5918960  
O     2.5038610    3.6438660    2.6125680  
C     0.6502090    3.3656700    1.1326950  
O     0.1278360    4.4278190    1.8207490  
C    -0.0227390    2.6751710    0.1225960  
H    -0.4563380    0.8805900   -2.3254260  
H     3.5214170    1.5148240    1.4681960  
H     1.8856500    4.3717550    2.8155940  
H    -0.4480400    4.9343650    1.1941940  
H     1.5754190   -0.8854280   -2.5159500  
C    -3.1355590   -0.3279530   -0.0714970  
C    -4.1996850    0.4515710   -0.4922180  
C    -3.7531770    1.8159640   -0.5688950  
C    -2.3209560    1.7945680   -0.1908570  
N    -2.0308600    0.5009800    0.1251280  
C    -1.4615500    2.8726650   -0.1772240  
C    -2.1011180    4.1656310   -0.3625380  
O    -1.5486740    5.2427970   -0.1165480  
C    -3.5922640    4.2237600   -0.8689100  
O    -4.0467700    5.3133840   -1.1874970  
C    -4.3617680    2.9881490   -0.9139660  
H    -5.1714490    0.1060450   -0.8088050  
H    -5.3955170    3.0481890   -1.2394390  
H    -1.1057800    0.1368490    0.3118810  
C    -6.2801060   -3.3974460    0.4289520  
C    -5.4586400   -4.4909960    0.4506000  
C    -4.1116320   -4.0046900    0.3489090  
C    -4.1807550   -2.5926370    0.2483080  
N    -5.5157530   -2.2513660    0.2818940  
C    -3.0320260   -1.7642610    0.1490680  
C    -1.7869990   -2.4320190    0.2410570  
O    -0.6421650   -1.7079800    0.2545290  
C    -1.7147900   -3.8445570    0.3263880  
O    -0.4299880   -4.3546130    0.3662170  
C    -2.8518110   -4.6297280    0.3628640  
H    -5.7702100   -5.5228910    0.5337750  
H    -5.8548120   -1.3131350    0.4275560  
H     0.1691360   -2.2437900    0.1288640  
H    -0.4821000   -5.3200090    0.4295700  
H    -2.7685820   -5.7128890    0.4288340  
H    -7.3566090   -3.3288830    0.4950400  
C     6.6492790    0.9669500   -0.6031020  
C     7.0638090   -0.3047360   -0.3025400  
C     5.8885700   -1.1262050   -0.2301420  
C     4.7825280   -0.2783140   -0.5011530  
N     5.2736880    0.9865950   -0.7342050  
C     3.4554190   -0.7429830   -0.5245460  
C     3.2553110   -2.0991600   -0.2651490  
O     1.9886740   -2.6383510   -0.2652830  
C     4.3531360   -2.9570860   -0.0107200  
O     3.9845390   -4.2726280    0.2108690  
C     5.6557550   -2.4937730    0.0126650  
H     8.0865910   -0.6212170   -0.1522000  
H     4.7046720    1.8047460   -0.8918800  
H     2.0718140   -3.5827750   -0.0428400  
H     4.7598970   -4.7813930    0.4901730  
H     6.4794060   -3.1772250    0.2073940  
H     7.2228170    1.8729010   -0.7386830  
