64


C     0.9984680    2.1193920    0.0742220  
C     1.7367250    3.2823430   -0.0264360  
C     3.1215340    2.9195690   -0.0475100  
C     3.1807280    1.5012020    0.0269410  
N     1.8825490    1.0463030    0.0902010  
C     4.3833710    0.7618620    0.0544730  
C     5.5443830    1.5358130    0.0367990  
O     6.7812580    0.9174920    0.1155430  
C     5.5145400    2.9465850   -0.0478230  
O     6.7720990    3.5265910   -0.0706630  
C     4.3251050    3.6484340   -0.1034130  
H     1.3278110    4.2798250   -0.1124710  
H     1.6281800    0.0949680    0.3064310  
H     7.4524200    1.6230500    0.0760630  
H     6.6831850    4.4898100   -0.1155580  
H     4.3250710    4.7345990   -0.1664240  
C    -1.3882320    2.7492580    0.6526040  
C    -0.4358050    1.8953750    0.1419520  
C    -1.1534380    0.7208370   -0.3047240  
C    -2.5272080    0.9242190   -0.0212520  
N    -2.6330830    2.1600800    0.5838720  
C    -3.5218880   -0.0526090   -0.2883070  
C    -3.0712090   -1.2218810   -0.9256260  
O    -3.9525460   -2.2009630   -1.2760330  
C    -1.7047260   -1.4081270   -1.2467290  
O    -1.4277410   -2.6006220   -1.8879020  
C    -0.7474990   -0.4637220   -0.9418430  
H    -3.5034660    2.6663510    0.6473410  
H    -3.4402710   -2.8946540   -1.7282050  
H    -0.4654850   -2.6835000   -1.9902370  
H     0.2854890   -0.6352160   -1.2293390  
H    -1.2684510    3.7293380    1.0916840  
C     2.3780060   -2.4275760   -2.4302390  
C     2.8451430   -1.2320230   -1.9401030  
C     3.6278990   -1.5230950   -0.7678400  
C     3.6037060   -2.9340020   -0.6044540  
N     2.8159910   -3.4562490   -1.6116720  
C     4.3087860   -3.6014050    0.4044860  
C     5.0827060   -2.8179350    1.2429560  
O     5.8240760   -3.3906580    2.2286540  
C     5.1296580   -1.4017520    1.1026710  
O     5.9372920   -0.7801410    2.0315320  
C     4.3917260   -0.7228980    0.1333680  
H     2.6771210   -0.2594510   -2.3799350  
H     2.7124000   -4.4398300   -1.8072490  
H     4.2934690   -4.6796990    0.5251060  
H     6.2981070   -2.6522970    2.6580660  
H     6.4776990   -0.1128640    1.5543210  
H     1.8101810   -2.6393690   -3.3267030  
C    -6.4811140   -2.6042500    1.8987190  
C    -5.3260540   -2.1463250    1.3666210  
C    -5.6632840   -0.8633570    0.7536580  
C    -7.1224460   -0.7134980    1.0300200  
N    -7.5984910   -1.7284060    1.6915980  
C    -7.8657490    0.4438270    0.6006070  
C    -7.1811250    1.4212180   -0.0316250  
O    -7.7314410    2.5717190   -0.4631260  
C    -5.7002410    1.3238220   -0.2734080  
O    -5.1622610    2.3182200   -0.7678710  
C    -4.9442290    0.0855180    0.0911340  
H    -4.3527210   -2.6119820    1.3802450  
H    -8.9284970    0.5160340    0.8030190  
H    -6.9902450    3.0850570   -0.8510860  
H    -6.6460840   -3.5242870    2.4464640  
