62


C     3.6543030   -0.5131560    0.0011600  
C     3.9587910   -1.8561060    0.0691350  
C     5.3581360   -2.0030080   -0.2042790  
C     5.8737970   -0.6999130   -0.4341590  
N     4.8283890    0.1909430   -0.2693880  
C     7.2166720   -0.4622730   -0.7467300  
C     8.0612570   -1.5600820   -0.8232900  
O     9.3811410   -1.3839340   -1.1300740  
C     7.5678610   -2.8687190   -0.5820350  
O     8.5312560   -3.8568540   -0.6855360  
C     6.2396950   -3.1004520   -0.2732690  
H     3.2629710   -2.6409900    0.3333650  
H     4.8337920    1.1443950   -0.5999080  
H     7.6130980    0.5314330   -0.9297730  
H     9.7915140   -2.2656420   -1.1420840  
H     8.1183100   -4.7226180   -0.5523460  
H     5.8861070   -4.1142980   -0.0945240  
C     1.1550550   -0.2812140   -0.2233650  
C     2.3889320    0.1830630    0.1658580  
C     2.1670690    1.4879020    0.7553790  
C     0.7784920    1.7513570    0.6879790  
N     0.1688950    0.6521340    0.0824900  
C     0.2020970    2.9142170    1.2128890  
C     1.0502660    3.8374720    1.8056850  
O     0.5399740    4.9882520    2.3289750  
C     2.4459690    3.5893540    1.8859580  
O     3.1546620    4.5915810    2.5179950  
C     3.0078910    2.4330100    1.3760430  
H    -0.8626040    3.1138210    1.1719360  
H     1.2852770    5.4971350    2.6921020  
H     4.0923700    4.3519890    2.5581310  
H     4.0744030    2.2471720    1.4806590  
H     0.8922630   -1.1877950   -0.7488200  
C    -1.9755480   -0.5332060    0.3174740  
C    -1.2044560    0.4829960   -0.1543890  
C    -2.0428360    1.3059610   -1.0138840  
C    -3.3804920    0.6719240   -0.9974700  
N    -3.2796260   -0.4619720   -0.1789150  
C    -4.4614110    1.1764150   -1.6379190  
C    -4.2955650    2.3962450   -2.4308280  
O    -5.2191650    2.9250010   -3.0281470  
C    -2.8684630    3.0474810   -2.5055830  
O    -2.7058880    4.0478950   -3.1846030  
C    -1.7853610    2.4260380   -1.7354260  
H    -5.4414630    0.7151360   -1.6169020  
H    -0.8079480    2.8964220   -1.7573870  
H    -1.6931470   -1.3508640    0.9661380  
C    -4.7874060   -1.8938060    3.6784830  
C    -4.1281570   -1.2050120    2.7073340  
C    -4.6076830   -1.6969990    1.4363270  
C    -5.6104090   -2.7431900    1.7457500  
N    -5.6601610   -2.8187930    3.1256380  
C    -6.3248120   -3.4390220    0.8241170  
C    -6.0893980   -3.1554130   -0.5845970  
O    -6.7078520   -3.6862430   -1.4925740  
C    -4.9766550   -2.1070720   -0.9597050  
O    -4.6835690   -1.9493470   -2.1304470  
C    -4.3056660   -1.3742240    0.1390910  
H    -3.4018040   -0.4219460    2.8640490  
H    -7.0662940   -4.1881420    1.0824770  
H    -4.7121540   -1.7987650    4.7536030  
H    -6.2834110   -3.4168480    3.6453740  
