60


C    -3.5041380    1.3338720    2.4952110  
C    -2.2801860    1.2801100    1.8713960  
C    -2.2608900    2.3174730    0.8729930  
C    -3.5125310    2.9845740    0.9622390  
N    -4.2481860    2.3535990    1.9452830  
C    -3.8410950    4.1006700    0.1869480  
C    -2.8666490    4.5694310   -0.6797590  
O    -3.1046550    5.6648720   -1.4470890  
C    -1.6053150    3.9238370   -0.7989920  
O    -0.7778670    4.5023970   -1.7309290  
C    -1.2883540    2.7715000   -0.0705480  
H    -1.4743530    0.6085560    2.1310680  
H    -5.1846160    2.6041450    2.2227390  
H    -4.7935800    4.6148130    0.2632330  
H    -2.2755520    5.8286450   -1.9370480  
H     0.1268150    4.5244110   -1.3405560  
H    -3.9105500    0.7209520    3.2868700  
C    -0.6677580   -1.5085570   -0.7790500  
C     0.7074390   -1.5317340   -0.8617210  
C     1.1812300   -0.1937800   -0.6784010  
C    -0.0147140    0.6529280   -0.4800490  
N    -1.0915460   -0.2039200   -0.5397460  
C    -0.0339030    2.0157460   -0.2928560  
C     1.2803880    2.6596880   -0.3748510  
O     1.4411990    3.8786240   -0.3819240  
C     2.5887440    1.7898510   -0.4869080  
O     3.6631760    2.3660540   -0.4861690  
C     2.4453800    0.3425330   -0.6510560  
H     1.3200440   -2.4146750   -0.9679030  
H    -2.0500320    0.1097520   -0.4953530  
C    -1.3985700   -3.7376130   -1.6391560  
C    -1.6112220   -2.5955110   -0.9077770  
C    -2.9431270   -2.7277990   -0.3124610  
C    -3.4709210   -4.0337450   -0.7762030  
N    -2.4749090   -4.5887680   -1.5678290  
C    -4.6853320   -4.5386310   -0.4524690  
C    -5.5499820   -3.7521270    0.4293920  
O    -6.6655730   -4.1155430    0.7617270  
C    -4.9947990   -2.3878080    0.9720190  
O    -5.6755020   -1.7327740    1.7442570  
C    -3.6632950   -1.9476840    0.5339800  
H    -5.0479760   -5.4994080   -0.8044010  
H    -3.3041860   -1.0077200    0.9423620  
H    -0.5366310   -3.9986670   -2.2388110  
H    -2.5540420   -5.4649370   -2.0619840  
C     3.8574630   -1.1553430   -2.0570190  
C     5.0508800   -1.7960820   -2.0033780  
C     5.6376150   -1.5066380   -0.7123030  
C     4.6725130   -0.6270050   -0.0082500  
N     3.5944180   -0.4467380   -0.8776920  
C     4.8466090   -0.1612710    1.2522990  
C     6.0679650   -0.5298060    1.9667960  
O     6.3025140   -0.1675560    3.1092830  
C     7.1139680   -1.4439880    1.2307060  
O     8.1404820   -1.7587560    1.8126230  
C     6.8018200   -1.8935150   -0.1276780  
H     5.4916090   -2.3973470   -2.7855670  
H     4.1343170    0.4816590    1.7564280  
H     7.5209620   -2.5382950   -0.6238790  
H     3.1337510   -1.1110910   -2.8601150  
