64


C    -0.0695270    1.7509490   -0.4723790  
C     1.2317210    1.3143170   -0.3398170  
C     1.1951160   -0.0869960   -0.0474960  
C    -0.1679620   -0.4671060   -0.0070520  
N    -0.9128250    0.6688760   -0.2363100  
C    -0.6179760   -1.8034180    0.1565440  
C     0.4061080   -2.7650970    0.3159130  
O     0.1046830   -4.0568510    0.5769820  
C     1.7696610   -2.3946180    0.2980920  
O     2.6286070   -3.4641600    0.5000700  
C     2.2041770   -1.0747820    0.1263640  
H     2.1094050    1.9360380   -0.4322430  
H    -1.8918800    0.6518640   -0.4848270  
H     0.9537230   -4.5190080    0.7060140  
H     3.4863220   -3.1269120    0.8148340  
C    -0.0480770    3.9549080   -1.6953270  
C    -0.6037980    3.0619470   -0.8033930  
C    -1.7981960    3.6940470   -0.2835090  
C    -1.9035670    4.9629990   -0.9070840  
N    -0.8193240    5.0950620   -1.7532990  
C    -2.9439390    5.8589080   -0.6319470  
C    -3.8948120    5.4697260    0.2980800  
O    -4.9300620    6.3042740    0.6026780  
C    -3.7963320    4.2103210    0.9478700  
O    -4.8077000    3.9749580    1.8595750  
C    -2.7681590    3.3279050    0.6718500  
H    -0.6441320    5.8836420   -2.3560320  
H    -3.0260940    6.8306940   -1.1080040  
H    -5.4689780    5.8599030    1.2797520  
H    -4.6472400    3.1349470    2.3141790  
H    -2.7009990    2.3809940    1.2033280  
H     0.8326580    3.8469480   -2.3119800  
C     3.6202240   -0.7300540    0.1544600  
C     4.2570560    0.3946400    0.6355910  
C     5.6667080    0.2216240    0.4530650  
C     5.8537900   -1.0434740   -0.1580390  
N     4.6054110   -1.6430640   -0.2773190  
C     7.1135370   -1.5310560   -0.5168910  
C     8.2115190   -0.7287590   -0.2399760  
O     9.4629900   -1.1541550   -0.5708240  
C     8.0458430    0.5330120    0.3932970  
O     9.2327320    1.2040830    0.6104440  
C     6.7974140    1.0121260    0.7430630  
H     3.7660890    1.2251720    1.1227210  
H     4.4047330   -2.3277880   -0.9956190  
H     7.2612900   -2.4964990   -0.9897990  
H    10.0876210   -0.4622520   -0.2920900  
H     9.0527760    2.0517790    1.0431900  
H     6.6936250    1.9831380    1.2229230  
C    -2.0244920   -2.1414050    0.1493180  
C    -3.0916370   -1.3552780    0.5334960  
C    -4.2718290   -2.1348510    0.2846910  
C    -3.7446410   -3.4134910   -0.2980890  
N    -2.4467090   -3.4193930   -0.3665650  
C    -4.6306430   -4.4711570   -0.7138190  
C    -5.9584550   -4.2817900   -0.5341560  
O    -6.9032290   -5.1752780   -0.8611260  
C    -6.5184760   -3.0104880    0.0699150  
O    -7.7464090   -2.9483000    0.1862590  
C    -5.6052730   -1.9459910    0.4673130  
H    -3.0566010   -0.3958740    1.0303450  
H    -4.2270370   -5.3818320   -1.1420860  
H    -7.7516330   -4.7430980   -0.6075260  
H    -6.0429140   -1.0444990    0.8852210  
