60


C     6.4330410   -1.6617520   -2.7551160  
C     6.7467390   -2.8273310   -2.1093410  
C     5.9251900   -2.8948150   -0.9337610  
C     5.1247020   -1.7215960   -0.9264490  
N     5.4431880   -0.9956200   -2.0524190  
C     4.1883670   -1.4678910    0.0946450  
C     4.0580410   -2.4170060    1.1085120  
O     3.1571390   -2.2156530    2.1112010  
C     4.8475600   -3.5937100    1.0958930  
O     4.5917850   -4.4304870    2.1630790  
C     5.7716020   -3.8406620    0.0980950  
H     7.4744710   -3.5583380   -2.4326410  
H     5.0986570   -0.0723100   -2.2662380  
H     3.2435210   -2.9643310    2.7281070  
H     5.2194560   -5.1682870    2.1607020  
H     6.3619970   -4.7540920    0.1091660  
H     6.8290240   -1.2402430   -3.6679220  
C     1.9949050   -0.3094070    0.1703260  
C     1.4638080    0.9613740    0.1717240  
C     2.6071490    1.8765050    0.1053620  
C     3.8171230    1.0233650    0.0785250  
N     3.3716720   -0.3028020    0.0986980  
C     5.0928670    1.4857320    0.0557120  
C     5.3015910    2.9339080    0.0319340  
O     6.4114270    3.4422110    0.0090810  
C     4.0333190    3.8584170    0.0311050  
O     4.1852520    5.0682340   -0.0106950  
C     2.7061800    3.2293260    0.0837400  
H     5.9631260    0.8394440    0.0799870  
H     1.8275370    3.8622690    0.1074230  
H     1.4800690   -1.2582050    0.2166670  
C     0.0684640    1.2875630    0.2198410  
C    -1.0213590    0.4388770    0.3030610  
C    -2.1762470    1.2740520    0.3088790  
C    -1.6202990    2.6605230    0.2136550  
N    -0.3171800    2.6626290    0.1690620  
C    -2.4624380    3.8242390    0.1645060  
C    -3.7976870    3.6178640    0.1821540  
O    -4.7101960    4.5952460    0.1251450  
C    -4.4044030    2.2304540    0.2694950  
O    -5.6377610    2.1946690    0.2805080  
C    -3.5395580    1.0358570    0.3554990  
H    -1.0053950   -0.6403820    0.3322590  
H    -2.0272970    4.8152410    0.1025970  
H    -5.5803520    4.1363570    0.1656900  
C    -3.5531310   -1.3116320    1.2627990  
C    -4.1170730   -0.2812470    0.5502670  
C    -5.3722110   -0.8749420    0.0188780  
C    -5.3535340   -2.2746070    0.5304860  
N    -4.2935240   -2.5064050    1.2639530  
C    -6.3944060   -3.2167940    0.2273840  
C    -7.4084330   -2.8062820   -0.5727720  
O    -8.4415550   -3.5783800   -0.9441520  
C    -7.4489300   -1.4115310   -1.1246980  
O    -8.3942840   -1.1093080   -1.8515740  
C    -6.3716070   -0.4569230   -0.7812280  
H    -6.3445140   -4.2228980    0.6287020  
H    -8.9999240   -3.0076490   -1.5170700  
H    -6.4623170    0.5464240   -1.1770860  
H    -2.6375790   -1.2694500    1.8392030  
