62


C     1.9840090   -0.4058750   -0.8533000  
C     1.0272500    0.3213730   -0.1861630  
C     1.6972360    1.4827630    0.3673370  
C     3.0610430    1.3999680    0.0028170  
N     3.2099060    0.2338410   -0.7418410  
C     4.0171450    2.3489070    0.3747770  
C     3.5798410    3.4165540    1.1435550  
O     4.4608430    4.3791470    1.5327510  
C     2.2165790    3.5171090    1.5341750  
O     1.9419480    4.6273870    2.3058040  
C     1.2808570    2.5687530    1.1641480  
H     5.0596380    2.2727660    0.0873050  
H     3.9629310    5.0369950    2.0485500  
H     0.9890020    4.6852700    2.4703230  
H     0.2466400    2.6639280    1.4853950  
H     1.9036390   -1.3181100   -1.4262150  
C    -0.8662080   -1.2819770    0.2907880  
C    -0.3797060   -0.0559750   -0.0523810  
C    -1.5487460    0.7841300   -0.3074440  
C    -2.7431580   -0.0645310   -0.0728110  
N    -2.2606360   -1.3064510    0.2606710  
C    -4.0416450    0.3517570   -0.2254520  
C    -4.2485640    1.7699030   -0.5842130  
O    -5.3494680    2.2929680   -0.5923070  
C    -2.9947970    2.6534530   -0.9123670  
O    -3.1672380    3.7987890   -1.2961590  
C    -1.6642000    2.0709280   -0.7277960  
H    -0.8021020    2.6929100   -0.9451190  
H    -0.3180290   -2.1728050    0.5670360  
H    -2.8352280   -2.0709970    0.5834100  
C    -5.5288660   -2.4579550    2.9598430  
C    -4.7599440   -1.5512980    2.3030050  
C    -5.4501350   -1.3131960    1.0395110  
C    -6.6591590   -2.1870850    1.1249360  
N    -6.6942240   -2.8558180    2.2460710  
C    -7.6451200   -2.2285180    0.0777250  
C    -7.4399530   -1.4496300   -1.0089370  
O    -8.2690640   -1.3933070   -2.0618570  
C    -6.2035170   -0.6008290   -1.1590010  
O    -6.0301080   -0.0562320   -2.2424600  
C    -5.2088850   -0.5165170   -0.0372270  
H    -3.8612900   -1.0649600    2.6555820  
H    -8.5160200   -2.8667600    0.1765850  
H    -7.8358830   -0.7929500   -2.7076860  
H    -5.3577190   -2.8812090    3.9430270  
C     4.8440340    0.1493740   -2.5689800  
C     6.0334370   -0.4828230   -2.7939650  
C     6.3341300   -1.2726860   -1.6284850  
C     5.2788300   -1.0826600   -0.7040170  
N     4.3772060   -0.2082890   -1.3036460  
C     5.2327420   -1.7008900    0.5486140  
C     6.2879690   -2.5386050    0.8773910  
O     6.3012870   -3.1721110    2.0853290  
C     7.3592050   -2.7464450   -0.0325590  
O     8.3306740   -3.6077740    0.4405390  
C     7.3939810   -2.1288380   -1.2692440  
H     6.6334850   -0.3981330   -3.6896990  
H     4.4230140   -1.5432960    1.2522750  
H     7.1213390   -3.6936700    2.1281880  
H     9.0444580   -3.6806820   -0.2100450  
H     8.2252500   -2.3037580   -1.9494530  
H     4.2660180    0.8297300   -3.1770560  
