60


C     2.2430300   -2.9842480    0.0002550  
C     3.3648240   -3.6851180   -0.4155150  
C     4.4197660   -2.7492510   -0.5917890  
C     3.8991220   -1.4656610   -0.2639950  
N     2.5616370   -1.6224010    0.0489960  
C     4.6782070   -0.3049580   -0.2954170  
C     6.0031770   -0.4404750   -0.6810250  
O     6.8033920    0.6503670   -0.7327620  
C     6.5384120   -1.7178620   -1.0342640  
O     7.8633860   -1.6688450   -1.4005880  
C     5.7692820   -2.8600950   -0.9982110  
H     3.3947860   -4.7464540   -0.6212510  
H     2.0508120   -0.9567960    0.6120710  
H     4.2931340    0.6776830   -0.0437770  
H     7.6869130    0.3614370   -1.0220340  
H     8.1812480   -2.5573430   -1.6206200  
H     6.1939300   -3.8243870   -1.2673120  
C     0.9245790   -3.4664760    0.2785850  
C     0.4813830   -4.7244150    0.6056080  
C    -0.9443220   -4.6747810    0.7380520  
C    -1.3393640   -3.2762640    0.4808150  
N    -0.1790910   -2.5832090    0.2558440  
C    -2.6439770   -2.8138060    0.4088380  
C    -3.7078870   -3.8048860    0.7471040  
O    -4.8696450   -3.4983060    0.9196910  
C    -3.2963000   -5.2988370    0.9806030  
O    -4.1773720   -6.1299300    1.1416420  
C    -1.8787100   -5.6367980    1.0025200  
H     1.1046700   -5.5921270    0.7651700  
H    -1.6104500   -6.6734230    1.1826010  
H    -0.1808770   -1.7055280   -0.2514370  
C    -2.9694400   -1.4631300    0.0489570  
C    -2.2005030   -0.3104390    0.2260310  
C    -2.9628680    0.7616000   -0.3105820  
C    -4.2033040    0.0896210   -0.8322680  
N    -4.1989050   -1.1949060   -0.6204980  
C    -5.2528920    0.8218780   -1.4789380  
C    -5.1260750    2.1671540   -1.5370850  
O    -6.0430820    2.9798850   -2.0732010  
C    -3.9222750    2.8903800   -0.9790230  
O    -3.9685520    4.1265020   -1.0568890  
C    -2.7911520    2.1357070   -0.4072040  
H    -1.3159980   -0.2243520    0.8380320  
H    -6.1227120    0.3025570   -1.8643430  
H    -5.6934140    3.8908860   -1.9518210  
C    -1.5906660    2.8404330    0.0005900  
C    -0.3362180    2.3394380    0.2996860  
C     0.5223100    3.4377540    0.6270000  
C    -0.3096610    4.6598600    0.4972170  
N    -1.5647000    4.2309800    0.1306130  
C     0.1469030    5.9199420    0.7132210  
C     1.5426340    6.0982050    1.1037270  
O     2.0403040    7.1935820    1.3164770  
C     2.4411930    4.8160340    1.2566720  
O     3.6106860    4.9465400    1.5893320  
C     1.8352160    3.5133760    0.9929150  
H    -0.0367370    1.3063550    0.2408710  
H    -0.4745230    6.8041610    0.6116480  
H     2.4664520    2.6360830    1.1037770  
H    -2.3493280    4.8063570   -0.1443370  
