60


C     6.0532440    3.1578110    0.9738680  
C     5.3331740    4.2277450    1.4365310  
C     3.9470510    3.9225220    1.2250500  
C     3.8882960    2.6459680    0.6134700  
N     5.1855330    2.2097560    0.4627120  
C     2.6737370    1.9817310    0.2994320  
C     1.4943530    2.6798830    0.6210680  
O     0.2819880    2.1684710    0.3012940  
C     1.5477650    3.9660220    1.2197280  
O     0.2995480    4.5193430    1.4438920  
C     2.7421690    4.5906130    1.5194990  
H     5.7396270    5.1264140    1.8795620  
H     5.4361070    1.2776550    0.1684830  
H    -0.3884760    2.7962780    0.6239780  
H     0.3968510    5.3550200    1.9234150  
H     2.7475170    5.5784450    1.9761660  
H     7.1205710    2.9895020    0.9529040  
C     2.6678540    0.6642390   -0.3113090  
C     3.5698720    0.1454270   -1.2086610  
C     3.1425110   -1.2050770   -1.4671800  
C     1.9314500   -1.3784170   -0.5947630  
N     1.6575760   -0.2933370    0.0632740  
C     1.2103980   -2.6409690   -0.5231300  
C     1.6707410   -3.6339460   -1.3402010  
O     1.0892540   -4.8306760   -1.4487150  
C     2.8664020   -3.4707690   -2.2495960  
O     3.1726530   -4.4440230   -2.9423060  
C     3.5909130   -2.2038900   -2.2644730  
H     4.3747750    0.6648130   -1.7107530  
H     1.6485880   -5.3301470   -2.0878430  
H     4.4583110   -2.1283960   -2.9128320  
C    -2.7133260   -0.5821730    0.1872280  
C    -1.4663050   -0.9482360   -0.2706300  
C    -1.0315980   -2.0858920    0.4879150  
C    -2.1210190   -2.3838780    1.4495910  
N    -3.0970730   -1.4471630    1.2229120  
C    -2.1178520   -3.4106670    2.3408130  
C    -0.9656610   -4.2918280    2.3675300  
O    -0.8697770   -5.2601170    3.1081690  
C     0.2271680   -3.9812870    1.3921180  
O     1.2422790   -4.6474410    1.4915710  
C     0.0982730   -2.8641870    0.4158150  
H    -0.9196310   -0.4359960   -1.0425710  
H    -2.9422870   -3.6139970    3.0170980  
H    -3.9738470   -1.3736670    1.7162070  
C    -2.2112730    2.3601880   -3.0569980  
C    -3.3392420    3.0951190   -2.9397950  
C    -4.0709510    2.4959570   -1.8299980  
C    -3.1958600    1.3676590   -1.3760130  
N    -2.1220400    1.2958230   -2.1021620  
C    -3.5746750    0.4966770   -0.2545730  
C    -4.7885250    0.7853550    0.3214410  
O    -5.3158060    0.0997270    1.3603680  
C    -5.6723670    1.8989770   -0.1244890  
O    -6.7375050    2.0547260    0.4817410  
C    -5.2545280    2.7555860   -1.2431000  
H    -3.6532430    3.9438080   -3.5312030  
H    -6.1794740    0.5428030    1.5384040  
H    -5.9279480    3.5540160   -1.5397170  
H    -1.3996340    2.4802540   -3.7637000  
