60


C     2.1462180   -2.4032490   -1.0685390  
C     2.9907270   -1.5012930   -0.4399060  
C     4.3010470   -2.1234130   -0.4008710  
C     4.1689610   -3.3938750   -1.0112420  
N     2.8463690   -3.5272750   -1.4049740  
C     5.2387160   -4.2812020   -1.1687570  
C     6.4793070   -3.8727640   -0.7048250  
O     7.5543810   -4.6954860   -0.8317280  
C     6.6404270   -2.5917670   -0.1096240  
O     7.9336840   -2.3239280    0.2805100  
C     5.5770990   -1.7199480    0.0434280  
H     2.4531750   -4.3427550   -1.8504470  
H     5.1349520   -5.2527840   -1.6403090  
H     8.3291830   -4.2241770   -0.4788080  
H     8.0057690   -1.4088620    0.5907380  
H     5.7425460   -0.7324250    0.4668410  
H     1.0869110   -2.3251950   -1.2662960  
C     2.5906260   -0.2172290    0.0757560  
C     1.5562830    0.6121530   -0.2988710  
C     1.5690280    1.7681160    0.5479100  
C     2.7053200    1.5748210    1.4805430  
N     3.3091620    0.3808120    1.1180080  
C     3.0598290    2.4348180    2.4655570  
C     2.2993550    3.6721880    2.6086550  
O     2.5606060    4.5182410    3.4486390  
C     1.0946450    3.9167440    1.6343620  
O     0.3922590    4.8972600    1.8163550  
C     0.8070050    2.9151150    0.5841910  
H     0.9031410    0.4503030   -1.1433540  
H     3.9022550    2.2687040    3.1302440  
H     3.9055840   -0.1463930    1.7390510  
C    -2.9926730    0.7804960   -0.4187960  
C    -1.7748460    1.1445780    0.0895250  
C    -1.3927150    2.3942210   -0.5182550  
C    -2.4929510    2.7569970   -1.4370070  
N    -3.4630420    1.7687740   -1.3008450  
C    -2.5239610    3.8646660   -2.2187950  
C    -1.4048010    4.7936300   -2.1350770  
O    -1.3515640    5.8377700   -2.7653860  
C    -0.2079140    4.4269470   -1.1863410  
O     0.7949020    5.1139470   -1.2249670  
C    -0.2973240    3.2009700   -0.3391650  
H    -1.2302050    0.6203270    0.8603880  
H    -3.3545810    4.1135330   -2.8718920  
H    -4.1216180    1.5615200   -2.0394380  
C    -3.8031970   -0.3714030   -0.1129450  
C    -3.4300650   -1.5936850    0.3801740  
C    -4.6127470   -2.4051230    0.5011300  
C    -5.7399800   -1.5588120    0.0408210  
N    -5.1840180   -0.3542100   -0.3820600  
C    -7.0384170   -1.9420820    0.0546000  
C    -7.3591420   -3.2935110    0.5186680  
O    -8.4997590   -3.7250770    0.5592670  
C    -6.1745060   -4.2244670    0.9671140  
O    -6.4232120   -5.3605680    1.3405510  
C    -4.8152080   -3.6833710    0.9258920  
H    -2.4170780   -1.9059260    0.5899930  
H    -7.8551580   -1.3068800   -0.2743870  
H    -4.0063100   -4.3265460    1.2588750  
H    -5.7131060    0.5079920   -0.3638960  
