62


C    -4.9326240   -0.1551060    2.2322280  
C    -6.1268710   -0.7941380    2.0865440  
C    -6.2680500   -1.1333580    0.6958430  
C    -5.1139510   -0.6545770    0.0279140  
N    -4.2983190   -0.0417680    0.9897240  
C    -4.8952200   -0.8759530   -1.3355070  
C    -5.8736010   -1.5627840   -2.0414170  
O    -5.7053220   -1.7938370   -3.3782040  
C    -7.0424860   -2.0290040   -1.3927390  
O    -7.9239600   -2.6937130   -2.2254290  
C    -7.2461210   -1.8258620   -0.0382830  
H    -6.8295820   -1.0077350    2.8804830  
H    -4.0149420   -0.5258510   -1.8576360  
H    -6.4909280   -2.2773220   -3.6859430  
H    -8.7021400   -2.9661760   -1.7173940  
H    -8.1416540   -2.2082950    0.4479620  
H    -4.4504520    0.2395650    3.1116620  
C    -0.6491170   -0.4242180    3.2754420  
C     0.2011360    0.3593960    2.5697360  
C    -0.5911270    0.8815350    1.4608960  
C    -1.9418280    0.2901140    1.6754780  
N    -1.9676120   -0.4728910    2.7312410  
C    -3.0583030    0.5786030    0.7831640  
C    -2.8167260    1.4634000   -0.2295500  
O    -3.7546950    1.8670730   -1.1056290  
C    -1.4653170    2.0364600   -0.4856560  
O    -1.3326300    2.7453340   -1.4816610  
C    -0.3248050    1.7313260    0.4374610  
H     1.2372200    0.5850950    2.7778630  
H    -3.2801900    2.4557020   -1.7340260  
H    -0.4476870   -0.9836820    4.1813190  
C     3.7963620    0.0951630   -0.2700390  
C     2.4425710    0.1941360   -0.0071660  
C     2.1378060    1.5907800   -0.0085000  
C     3.4570660    2.2507620   -0.2962720  
N     4.4120380    1.3821220   -0.4498700  
C     3.5811010    3.6799060   -0.3837040  
C     2.4560120    4.4154410   -0.2227680  
O     2.4185420    5.7521240   -0.2755630  
C     1.1101520    3.7890060    0.0727690  
O     0.1790240    4.5653870    0.2863550  
C     0.9901660    2.3222200    0.1539080  
H     1.7256810   -0.6100930    0.0665490  
H     4.5462380    4.1325830   -0.5809940  
H     1.4795460    5.9889060   -0.0961740  
C     3.3024150   -3.7229470    1.8720600  
C     4.3854130   -4.3716730    1.3401510  
C     5.0098460   -3.4595920    0.4267060  
C     4.2493440   -2.2645410    0.4358050  
N     3.2134420   -2.4576670    1.3219550  
C     4.5974330   -1.1072070   -0.3181610  
C     5.7662940   -1.2207420   -1.1056250  
O     6.1563990   -0.2148970   -1.9168310  
C     6.5224250   -2.4227310   -1.1215880  
O     7.6220690   -2.3643600   -1.9562540  
C     6.1634750   -3.5289940   -0.3788360  
H     4.7048540   -5.3781140    1.5723010  
H     2.5595100   -1.7435030    1.6054700  
H     6.9666710   -0.5101300   -2.3708900  
H     8.0731970   -3.2211600   -1.9663060  
H     6.7644380   -4.4354790   -0.4155260  
H     2.5707590   -4.0566920    2.5938830  
