62


C     0.3247700    4.3131050    2.2197650  
C    -0.0876820    3.2345770    1.4459450  
C     0.9613760    3.0244730    0.4615190  
C     1.9624780    3.9934270    0.6967260  
N     1.5360350    4.7635010    1.7725870  
C     3.1353420    4.0755680   -0.0629260  
C     3.3023060    3.1423600   -1.0792060  
O     4.4257970    3.1756970   -1.8544800  
C     2.3132060    2.1550280   -1.3108680  
O     2.6080590    1.2535790   -2.3324350  
C     1.1555640    2.0853700   -0.5637260  
H     2.0392410    5.5462810    2.1625180  
H     3.9009080    4.8253160    0.1079750  
H     4.3091220    2.5139130   -2.5575170  
H     1.8019540    0.7452890   -2.5359130  
H     0.4019420    1.3293640   -0.7437930  
H    -0.1711750    4.7949080    3.0504770  
C    -1.2839580    2.4540490    1.5828150  
C    -2.2641290    2.4258910    2.5506210  
C    -3.1791350    1.3925960    2.1568210  
C    -2.6033210    0.8578790    0.8759520  
N    -1.5246240    1.4897540    0.5417600  
C    -3.2165510   -0.2155040    0.1161520  
C    -4.3768180   -0.7090250    0.6229940  
O    -5.0846860   -1.6945200    0.0648740  
C    -4.9874070   -0.1941590    1.9159520  
O    -6.0382460   -0.7380680    2.2703330  
C    -4.3353190    0.8774330    2.6544390  
H    -2.3294740    3.0300510    3.4451250  
H    -5.8532520   -1.8187050    0.6711120  
H    -4.8138860    1.2180780    3.5671580  
C     0.7988910   -1.8116010   -0.6632230  
C     0.8743160   -1.6701120   -2.0348810  
C    -0.4509920   -1.2930710   -2.4596940  
C    -1.2120000   -1.1246890   -1.1760180  
N    -0.4927580   -1.4514240   -0.1452810  
C    -2.5843640   -0.6422070   -1.1503680  
C    -3.1980970   -0.5348170   -2.3602140  
O    -4.4603210   -0.1204070   -2.5234050  
C    -2.4865080   -0.8043230   -3.6674240  
O    -3.1493190   -0.6582020   -4.6980990  
C    -1.0702220   -1.1593770   -3.6598070  
H     1.6887350   -1.9859170   -2.6739630  
H    -4.6045610   -0.1359960   -3.4979080  
H    -0.5857060   -1.3035470   -4.6207210  
C     5.1709840   -1.0982630   -0.6182870  
C     5.4722030   -1.9053850    0.4467070  
C     4.2338870   -2.4638610    0.9053360  
C     3.2092550   -1.9678620    0.0590920  
N     3.8127750   -1.1479790   -0.8694210  
C     1.8329310   -2.2725970    0.2457170  
C     1.5310450   -3.1020560    1.3467470  
O     0.2614250   -3.5099510    1.5758490  
C     2.5575080   -3.6024830    2.1891460  
O     2.0871780   -4.4187380    3.2017150  
C     3.8889280   -3.3059890    1.9800770  
H     6.4552640   -2.0771660    0.8629140  
H     3.3321850   -0.4889950   -1.4729520  
H     0.2804600   -4.0740140    2.3697680  
H     2.8307300   -4.7432390    3.7302910  
H     4.6537710   -3.7101250    2.6406130  
H     5.8137180   -0.4838130   -1.2328120  
