60


C    -3.0464000   -2.8137940    1.9879060  
C    -3.5779100   -3.7288120    1.1220300  
C    -4.3360140   -2.9993170    0.1425260  
C    -4.2168490   -1.6234540    0.4643300  
N    -3.4021120   -1.5328860    1.5810050  
C    -4.8489170   -0.5979550   -0.2744600  
C    -5.6186270   -1.0111160   -1.3671360  
O    -6.2071730   -0.0796210   -2.1634840  
C    -5.7478290   -2.3841860   -1.6972010  
O    -6.5291690   -2.6118070   -2.8136780  
C    -5.1172880   -3.3740340   -0.9669650  
H    -3.4395250   -4.8002060    1.1672580  
H    -3.3304080   -0.7091020    2.1593040  
H    -6.7694240   -0.5549450   -2.8000850  
H    -6.7032640   -3.5606560   -2.9006870  
H    -5.2259950   -4.4196990   -1.2472070  
H    -2.4067010   -2.9555320    2.8473450  
C    -1.2839480    1.9033860    0.0745520  
C    -1.8573230    3.1087440    0.3597880  
C    -3.2852670    2.8972370    0.4195050  
C    -3.5003920    1.4603170    0.1497180  
N    -2.2356560    0.8905080   -0.0090170  
C    -4.7062940    0.8356290    0.0505160  
C    -5.8967570    1.6795870    0.3372190  
O    -7.0198130    1.2216830    0.4216070  
C    -5.6903350    3.2169550    0.6045430  
O    -6.6788290    3.9176120    0.7590250  
C    -4.3283640    3.7403150    0.6523730  
H    -1.3365680    4.0311750    0.5719230  
H    -4.1977230    4.8009030    0.8429740  
H    -2.0985110    0.0323440   -0.5270760  
C     0.9764090    2.4865830   -0.7044390  
C     2.2320550    1.9702170   -0.6939590  
C     2.1760920    0.6768780   -0.0609920  
C     0.7579130    0.4590330    0.2948140  
N     0.0620370    1.6066760   -0.1207340  
C     0.2770020   -0.6318720    0.9437680  
C     1.2138950   -1.7010630    1.2599700  
O     0.9030350   -2.6970110    1.8917980  
C     2.6892090   -1.5677220    0.7540140  
O     3.3990810   -2.5614700    0.8250150  
C     3.1522130   -0.2647130    0.2140230  
H     3.0978850    2.4292050   -1.1432110  
H    -0.7549630   -0.7524610    1.2500210  
H     0.6148170    3.4168420   -1.1199760  
C     4.5716830   -0.0395280   -0.0007730  
C     5.2717050    1.1492180   -0.0783760  
C     6.6634930    0.8357600   -0.2396040  
C     6.7532130   -0.6453570   -0.2480310  
N     5.4623610   -1.1078110   -0.1167440  
C     7.9137170   -1.3392470   -0.3668760  
C     9.1606970   -0.5910610   -0.5008260  
O    10.2519160   -1.1279830   -0.6146880  
C     9.0880890    0.9805070   -0.4991750  
O    10.1209020    1.6233000   -0.6126870  
C     7.7758800    1.6147840   -0.3602320  
H     4.8656250    2.1411870    0.0414650  
H     7.9622220   -2.4235740   -0.3686450  
H     7.7375610    2.7000260   -0.3567720  
H     5.1704660   -2.0600580    0.0632320  
