60


C     4.6948650   -3.4876950   -1.6808700  
C     4.2403200   -2.2080540   -1.4776660  
C     5.1901180   -1.5453840   -0.6208910  
C     6.2148240   -2.4911380   -0.3500370  
N     5.8764640   -3.6646660   -0.9935760  
C     7.3507010   -2.1929850    0.4091660  
C     7.4651720   -0.8959340    0.8814950  
O     8.5520130   -0.5267840    1.6069750  
C     6.4603630    0.0792880    0.6284660  
O     6.7274710    1.2978810    1.1992660  
C     5.2940490   -0.2241790   -0.0835780  
H     3.3555210   -1.7815510   -1.9280050  
H     6.4425400   -4.4987360   -1.0112180  
H     8.1361050   -2.9147950    0.6081730  
H     8.4358500    0.4253430    1.7922570  
H     6.4657370    1.9905950    0.5473920  
H     4.2739210   -4.2896100   -2.2706430  
C     1.0111420   -0.7147810    0.5886990  
C     0.5321860    0.5090290    0.1943290  
C     1.6965960    1.2952690   -0.2075590  
C     2.8749990    0.4203770   -0.0070460  
N     2.3798860   -0.7729500    0.4808130  
C     4.1883250    0.7476980   -0.2493480  
C     4.3997470    2.1421270   -0.6581050  
O     5.5060030    2.6756440   -0.7222820  
C     3.1643570    3.0461140   -1.0207260  
O     3.3770510    4.1394300   -1.5166900  
C     1.8259430    2.5482760   -0.7204960  
H     0.9834000    3.1874060   -0.9604650  
H     0.4567220   -1.5582210    0.9781090  
H     2.9520940   -1.5928070    0.6300490  
C    -0.8582110    0.9063280    0.2054860  
C    -1.9835200    0.1352410    0.0776790  
C    -3.1330270    0.9839050    0.2201410  
C    -2.6022770    2.3510350    0.4361760  
N    -1.2203980    2.2536100    0.3611490  
C    -3.3580780    3.4553590    0.6474660  
C    -4.8077180    3.3040400    0.6383280  
O    -5.5764080    4.2390810    0.7976150  
C    -5.4053660    1.8693950    0.4046590  
O    -6.6153570    1.7348050    0.4722410  
C    -4.4816560    0.7372810    0.1576680  
H    -2.0017210   -0.9250770   -0.1193070  
H    -2.9422970    4.4472260    0.7959410  
H    -0.6049780    2.9398190    0.7739060  
C    -4.0444730   -3.1044420    2.3054880  
C    -4.9241960   -3.8974440    1.6531350  
C    -5.4790750   -3.0572580    0.5970060  
C    -4.7864140   -1.7361050    0.7757320  
N    -3.9493090   -1.7776930    1.7725950  
C    -5.0713320   -0.5940850   -0.0802180  
C    -5.9847560   -0.8053200   -1.0732000  
O    -6.3179430    0.1224430   -1.9775710  
C    -6.6855160   -2.1210070   -1.2753110  
O    -7.4848380   -2.2044900   -2.2058360  
C    -6.3909640   -3.2496770   -0.3736790  
H    -5.1826000   -4.9269530    1.8585160  
H    -7.0081860   -0.2916390   -2.5414010  
H    -6.9260270   -4.1786340   -0.5458350  
H    -3.4292820   -3.3562040    3.1615660  
