62


C    -2.8163500   -0.3717750    0.1357510  
C    -2.5042520   -1.6859030   -0.1200290  
C    -3.6703220   -2.4561310    0.1975660  
C    -4.6688540   -1.5465290    0.6370870  
N    -4.1273370   -0.2740880    0.5747700  
C    -5.9468610   -1.9566250    1.0300910  
C    -6.2248750   -3.3142430    0.9775840  
O    -7.4519130   -3.7694640    1.3545060  
C    -5.2419380   -4.2399330    0.5308690  
O    -5.6759930   -5.5499030    0.5306780  
C    -3.9811170   -3.8300740    0.1416120  
H    -1.5729940   -2.0424750   -0.5374190  
H    -4.5317030    0.5593250    0.9750430  
H    -6.7117020   -1.2649110    1.3672270  
H    -7.4502560   -4.7360660    1.2433900  
H    -4.9655020   -6.1300480    0.2193330  
H    -3.2453430   -4.5564300   -0.1969470  
C    -0.7122490    0.8370970    0.4665280  
C    -0.1815140    2.1046900    0.2374850  
C    -1.2564310    2.8757480   -0.3771600  
C    -2.3657260    2.0101170   -0.5137570  
N    -2.0121390    0.7673610    0.0374140  
C    -3.5574430    2.3774060   -1.1457930  
C    -3.6436610    3.6733710   -1.6352120  
O    -4.7835710    4.0923810   -2.2472370  
C    -2.5483200    4.5634060   -1.5001190  
O    -2.7801900    5.8153670   -2.0266050  
C    -1.3664980    4.1806650   -0.8929920  
H    -4.3883150    1.6949480   -1.2810530  
H    -4.6475750    5.0199420   -2.5093130  
H    -2.0283660    6.3950650   -1.8310700  
H    -0.5518180    4.8861760   -0.7836620  
H    -0.2835110    0.0044560    1.0029620  
C     3.6065050   -0.2452120    0.2729070  
C     2.3192110    0.2253930    0.0532080  
C     2.2261540    1.5524790    0.5658890  
C     3.5663710    1.8795440    1.0934910  
N     4.3344110    0.7544820    0.9226090  
C     3.9301760    3.0797170    1.6270320  
C     2.9437480    4.1334790    1.6634020  
O     3.1520670    5.2604030    2.0923060  
C     1.5034810    3.8293950    1.0975770  
O     0.6943750    4.7417680    1.1070910  
C     1.1740200    2.4637070    0.5956090  
H     1.5562790   -0.2928700   -0.5036700  
H     4.9254380    3.2818770    2.0090130  
H     5.3350550    0.6819380    1.0507370  
C     2.0134810   -4.2503670   -0.9965320  
C     2.0611380   -2.9901290   -0.4776000  
C     3.4639040   -2.6280350   -0.4799710  
C     4.1365490   -3.8295530   -1.0336470  
N     3.2812790   -4.7714260   -1.3491260  
C     5.5644770   -3.9081540   -1.1774270  
C     6.3057460   -2.8578820   -0.7535830  
O     7.6518110   -2.8249580   -0.7952130  
C     5.6742750   -1.6370190   -0.1700080  
O     6.4443670   -0.7625880    0.2493890  
C     4.1837620   -1.5074040   -0.1178720  
H     1.2345440   -2.4121620   -0.0922700  
H     6.0190990   -4.8012350   -1.5918830  
H     7.9089390   -1.9629600   -0.4052280  
H     1.1370860   -4.8703950   -1.1461010  
