62


C     0.6130250   -3.1172370   -1.2817830  
C     1.6184850   -2.4320880   -0.6226710  
C     2.5303260   -3.4444090   -0.1189260  
C     2.0139050   -4.7039580   -0.5158610  
N     0.8520760   -4.4667460   -1.2279780  
C     2.6175570   -5.9218260   -0.1832390  
C     3.7741320   -5.8735700    0.5785710  
O     4.4111390   -7.0290710    0.9309630  
C     4.3016790   -4.6259520    0.9983510  
O     5.4538550   -4.7338700    1.7579260  
C     3.6991560   -3.4262990    0.6683570  
H     0.2756430   -5.1757140   -1.6534240  
H     2.2168400   -6.8813220   -0.4943860  
H     5.2007460   -6.7738890    1.4386640  
H     5.8116260   -3.8486160    1.9204940  
H     4.1369520   -2.4876900    0.9904930  
H    -0.2532110   -2.7237980   -1.7890230  
C    -1.6206480    0.4852400   -0.1812940  
C    -0.9233950    1.6681530   -0.1184320  
C     0.4594660    1.3107680   -0.2099530  
C     0.4566450   -0.1862770   -0.3445880  
N    -0.7590710   -0.6542980   -0.3188100  
C     1.6774220   -0.9747750   -0.4910330  
C     2.8269690   -0.2349710   -0.5110910  
O     4.0543270   -0.7668950   -0.6648100  
C     2.8712320    1.2551940   -0.3440360  
O     3.9935060    1.7669630   -0.2866310  
C     1.6230990    2.0324470   -0.2218280  
H    -1.3262970    2.6650100   -0.0168100  
H     4.6592080    0.0115900   -0.6244780  
C     0.1534620    4.9971850    2.7704960  
C     0.4286770    3.8561010    2.0872630  
C     1.1685460    4.2300800    0.8994240  
C     1.3104540    5.7050690    0.9542030  
N     0.6566500    6.1085330    2.1025620  
C     1.9853840    6.4608790    0.0487410  
C     2.6175180    5.7845000   -1.0728570  
O     3.2838310    6.3620820   -1.9187110  
C     2.4190520    4.2319250   -1.2053420  
O     2.7916820    3.6852570   -2.2271320  
C     1.7214160    3.4933600   -0.1163930  
H     0.1430540    2.8552530    2.3719230  
H     2.0964740    7.5375440    0.1334750  
H    -0.3768600    5.1258870    3.7048170  
H     0.6357780    7.0553210    2.4471880  
C    -3.0217410    0.2206090   -0.1293770  
C    -4.1341560    1.0574990   -0.0482670  
C    -5.2856820    0.2325190   -0.0233250  
C    -4.8327900   -1.1243920   -0.0885460  
N    -3.4678510   -1.0945980   -0.1563820  
C    -5.7153710   -2.2126800   -0.0802380  
C    -7.0695980   -1.9345650   -0.0089640  
O    -7.9719180   -2.9509830    0.0012280  
C    -7.5409060   -0.5863790    0.0535530  
O    -8.9153620   -0.4917670    0.1193750  
C    -6.6765580    0.4850620    0.0473650  
H    -4.1049210    2.1381060   -0.0201410  
H    -2.8228310   -1.8713470   -0.1913330  
H    -5.3799230   -3.2431420   -0.1276970  
H    -8.8593180   -2.5541870    0.0498850  
H    -9.1784110    0.4403480    0.1412910  
H    -7.0562360    1.5033900    0.0959740  
