60


C    -4.6249940   -1.3108120    2.8210170  
C    -4.1060850   -1.0384220    1.5720090  
C    -4.9647020   -1.7076800    0.6175490  
C    -5.9785170   -2.3631810    1.3603500  
N    -5.7399520   -2.1073150    2.6977230  
C    -6.9872600   -3.1266820    0.7600090  
C    -6.9712400   -3.2339690   -0.6212410  
O    -7.9331540   -3.9587690   -1.2580440  
C    -5.9548530   -2.5964190   -1.3838270  
O    -6.0671280   -2.8090630   -2.7427780  
C    -4.9583730   -1.8477940   -0.7860730  
H    -6.3249800   -2.4096300    3.4610430  
H    -7.7654490   -3.6258910    1.3281090  
H    -7.7550490   -3.9014590   -2.2128760  
H    -5.4032660   -2.2835450   -3.2134590  
H    -4.1866280   -1.3810530   -1.3933860  
H    -4.2920360   -0.9675350    3.7904310  
C    -1.7055940   -0.3456850    1.9537340  
C    -2.9038770   -0.2496880    1.3124100  
C    -2.7568170    0.8449640    0.3521480  
C    -1.3716670    1.3576360    0.4918750  
N    -0.7985280    0.6096460    1.4852800  
C    -0.8496900    2.4144620   -0.2193750  
C    -1.7268410    3.0196240   -1.2462630  
O    -1.3250400    3.8343630   -2.0580810  
C    -3.2169370    2.5431040   -1.3391700  
O    -3.9695090    3.1118400   -2.1120460  
C    -3.6429220    1.4177240   -0.5030100  
H    -4.6719000    1.0833260   -0.5850100  
H    -1.4039880   -1.0394740    2.7267310  
H     0.1668310    0.6839370    1.7703270  
C     3.3256000    0.7124670   -0.0180850  
C     1.9601470    0.8084150   -0.1403440  
C     1.6572990    2.2100130    0.0145180  
C     2.9890750    2.8513850    0.2198400  
N     3.9551380    1.9713910    0.2051090  
C     3.1411680    4.2718860    0.3761710  
C     2.0197090    5.0274760    0.3337370  
O     2.0073500    6.3579810    0.4675750  
C     0.6456220    4.4158450    0.1853460  
O    -0.3087330    5.1698160    0.3332790  
C     0.4996170    2.9430700   -0.0380460  
H     1.2642220    0.0122370   -0.3632510  
H     4.1253990    4.7046010    0.5150580  
H     1.0591180    6.6181280    0.4534640  
C     4.1769120   -0.4450630   -0.0974580  
C     3.8843350   -1.7746500   -0.3025740  
C     5.1240310   -2.5005440   -0.2862530  
C     6.1937480   -1.4924040   -0.0533010  
N     5.5522850   -0.2799310    0.0533580  
C     7.5165140   -1.7884700    0.0270010  
C     7.9290660   -3.1805160   -0.1205030  
O     9.0949700   -3.5411890   -0.0604790  
C     6.8146950   -4.2637090   -0.3655310  
O     7.1417920   -5.4347610   -0.4885710  
C     5.4206360   -3.8232650   -0.4351300  
H     2.9004170   -2.1955290   -0.4518520  
H     8.2848480   -1.0407190    0.1966740  
H     4.6603360   -4.5794590   -0.6061760  
H     5.9683250    0.6290920    0.1978920  
