62


C    -4.9250340   -0.9564270    3.4406160  
C    -4.3729240   -0.2503320    2.4008850  
C    -4.7375550   -0.9247280    1.1804720  
C    -5.5314990   -2.0395460    1.5596250  
N    -5.6133530   -2.0408410    2.9381510  
C    -6.1203490   -2.9098720    0.6361250  
C    -5.9201430   -2.6248120   -0.7039170  
O    -6.4805360   -3.4082370   -1.6628630  
C    -5.1273600   -1.5182910   -1.1199530  
O    -5.0154740   -1.4094460   -2.4837750  
C    -4.4914710   -0.6732640   -0.2048630  
H    -3.8130700    0.6689180    2.4974660  
H    -6.1480360   -2.6973690    3.4850610  
H    -6.7341440   -3.7561030    0.9272170  
H    -6.2366880   -2.9932440   -2.5132460  
H    -5.0809260   -0.4484250   -2.7035990  
H    -4.8917330   -0.7688500    4.5045440  
C    -0.4690240    0.3156570    1.2024720  
C    -0.2018690    1.4491310    0.4901610  
C    -1.3709010    1.6757740   -0.3591750  
C    -2.3294700    0.5856760   -0.0585440  
N    -1.7103330   -0.2109270    0.8752070  
C    -3.5733930    0.4130190   -0.6263250  
C    -3.8872060    1.3512770   -1.7019740  
O    -4.8624370    1.2406140   -2.4483550  
C    -2.9306890    2.5689640   -1.9825370  
O    -3.2889590    3.4080640   -2.7925140  
C    -1.6515010    2.6299080   -1.2820440  
H    -0.9889800    3.4594820   -1.4970980  
H     0.1435890   -0.1778070    1.9459960  
H    -2.1842910   -0.9497960    1.3758070  
C     4.0019890    0.1581540    0.0998090  
C     4.5826580    1.4185290    0.2734430  
C     3.5390580    2.3559960    0.4562260  
C     2.3122030    1.6301780    0.3974950  
N     2.6230210    0.3163530    0.1857860  
C     1.0430450    2.2351720    0.5370420  
C     1.0539440    3.6155970    0.7389260  
O    -0.1178690    4.2823040    0.9088290  
C     2.2736190    4.3579840    0.7923220  
O     2.0731870    5.7059470    0.9989230  
C     3.5029070    3.7549560    0.6620790  
H     5.6414540    1.6225290    0.3148560  
H     1.9829650   -0.4626600    0.1185120  
H     0.0963330    5.2241500    1.0349960  
H     2.9257180    6.1643550    1.0398780  
H     4.4188910    4.3390950    0.7097700  
C     8.1048430   -1.2792360   -1.0394770  
C     7.0433930   -0.4538490   -0.8435040  
C     5.9403290   -1.3255670   -0.4593110  
C     6.5374270   -2.6764830   -0.4909560  
N     7.8051400   -2.6496200   -0.8158910  
C     5.7746510   -3.8646410   -0.2004140  
C     4.4603790   -3.7202510    0.0780780  
O     3.6255610   -4.7508900    0.3287490  
C     3.8121040   -2.3763770    0.1083540  
O     2.5925150   -2.3588170    0.3165290  
C     4.6271300   -1.1261980   -0.1029250  
H     7.0105070    0.6141510   -0.9972030  
H     6.2530880   -4.8372360   -0.2346170  
H     2.7424740   -4.3487740    0.4637770  
H     9.1078750   -1.0100900   -1.3483560  
