62


C     1.6207320    0.2262340   -0.4795560  
C     1.2237210   -1.0967650   -0.4174280  
C     2.3883700   -1.9004980   -0.7487490  
C     3.4550090   -1.0071370   -0.9915300  
N     2.9511780    0.2838540   -0.8229980  
C     4.7392760   -1.4147800   -1.3564140  
C     4.9531970   -2.7787940   -1.4868810  
O     6.1822530   -3.2405640   -1.8379320  
C     3.8921300   -3.7000800   -1.2702010  
O     4.2559110   -5.0145050   -1.4588720  
C     2.6232940   -3.2811020   -0.9094310  
H     5.5459780   -0.7139120   -1.5379030  
H     6.1284200   -4.2105170   -1.8942710  
H     3.4850840   -5.5921730   -1.3548310  
H     1.8243550   -4.0081880   -0.7874760  
H     1.0755580    1.1345030   -0.2693580  
C    -0.0988340   -1.5426060   -0.0601940  
C    -1.3145630   -0.9019540   -0.1746160  
C    -2.3293330   -1.7473550    0.3705770  
C    -1.6281350   -2.9577820    0.8512230  
N    -0.2940660   -2.8115040    0.4964200  
C    -2.2049010   -3.9738450    1.5380450  
C    -3.6364560   -3.8943330    1.8077780  
O    -4.2313670   -4.7236530    2.4774750  
C    -4.4438560   -2.7081150    1.1720370  
O    -5.6585180   -2.7825930    1.1841960  
C    -3.6990460   -1.5964130    0.5259240  
H    -1.4659300    0.0640250   -0.6297440  
H    -1.6542240   -4.8308440    1.9145040  
H     0.4482990   -3.3024560    0.9747550  
C    -4.4173820   -0.4266280    0.0677510  
C    -4.1711680    0.3567570   -1.0346200  
C    -5.1674920    1.3971320   -1.0132160  
C    -5.9627840    1.1138810    0.2266020  
N    -5.5348630    0.0572670    0.8474340  
C    -7.0587350    1.9622710    0.6257590  
C    -7.3638610    3.0110020   -0.1726670  
O    -8.3597260    3.8791760    0.0634510  
C    -6.5908180    3.3101600   -1.4372240  
O    -6.9473290    4.2933200   -2.0912180  
C    -5.4715210    2.4468090   -1.8160100  
H    -3.4415110    0.1864400   -1.8133470  
H    -7.6141690    1.7410180    1.5302650  
H    -8.3240430    4.5138930   -0.6878210  
H    -4.9326420    2.6998830   -2.7240580  
C     3.8585570    2.1581650   -2.1187950  
C     4.6652520    3.2282340   -1.8600040  
C     5.0156350    3.1855400   -0.4638940  
C     4.3876450    2.0487460    0.0979530  
N     3.6783030    1.4389060   -0.9346780  
C     4.5071840    1.6878930    1.4426040  
C     5.2879680    2.5053200    2.2464920  
O     5.4444130    2.2065540    3.5661570  
C     5.9280920    3.6544650    1.7078460  
O     6.6659620    4.3622000    2.6349050  
C     5.8017000    4.0001600    0.3750950  
H     4.9771620    3.9708160   -2.5816160  
H     4.0251700    0.8131450    1.8646680  
H     6.0174950    2.8908400    3.9533750  
H     7.0725320    5.1322280    2.2106560  
H     6.3011760    4.8845870   -0.0150000  
H     3.3813650    1.8200810   -3.0268730  
