60


C    -3.8066300    3.3109770    1.3910920  
C    -2.4582750    3.1982140    1.1485050  
C    -2.2198480    1.8821080    0.6326770  
C    -3.4792590    1.2394180    0.5858110  
N    -4.4282740    2.1377450    1.0318210  
C    -3.6759120   -0.1046240    0.1929190  
C    -2.5248460   -0.8105460   -0.1502210  
O    -2.6230640   -2.0938860   -0.5773810  
C    -1.2391540   -0.2078310   -0.1221850  
O    -0.2516740   -1.0545650   -0.4991090  
C    -1.0456830    1.1532170    0.2394020  
H    -1.7361600    3.9704030    1.3582290  
H    -5.3914640    1.9031000    1.2182690  
H    -1.7112830   -2.4207640   -0.6878480  
H     0.6177400   -0.5578480   -0.3871770  
H    -4.3744500    4.1390470    1.7905110  
C     0.2643640    1.7467930    0.1846910  
C     0.6999090    3.0422010    0.3675470  
C     2.1141640    3.0349220    0.1743070  
C     2.4543420    1.6088140   -0.1445750  
N     1.3775310    0.8793000   -0.1348920  
C     3.8076290    1.1580840   -0.4192460  
C     4.7546260    2.1438310   -0.3838650  
O     6.0468160    1.9408410   -0.6546730  
C     4.4489690    3.5912190   -0.0528010  
O     5.4158910    4.3609830   -0.0595040  
C     3.0833380    3.9901280    0.2237930  
H     0.1103590    3.9172460    0.5832200  
H     6.4655090    2.8296760   -0.5425020  
H     2.8950190    5.0337740    0.4526320  
C     3.3143550   -1.0661420   -1.5024060  
C     4.0891820   -0.2492780   -0.7250220  
C     5.1998420   -1.0749530   -0.2473290  
C     4.9990180   -2.4235110   -0.8345770  
N     3.8454270   -2.3407260   -1.5904180  
C     5.8111270   -3.4906750   -0.6284930  
C     6.9694480   -3.3217700    0.2427100  
O     7.7605570   -4.2203340    0.4854130  
C     7.1913530   -1.9115160    0.8986490  
O     8.1449050   -1.7489860    1.6435160  
C     6.2414270   -0.8359900    0.5908370  
H     5.6371720   -4.4665010   -1.0715960  
H     6.4235460    0.1313310    1.0421040  
H     2.3986490   -0.8282440   -2.0249540  
H     3.4229480   -3.1116210   -2.0838940  
C    -7.3071530    0.9438020   -2.0479650  
C    -8.1405800   -0.0376990   -1.6179770  
C    -7.3982260   -0.8541450   -0.6791150  
C    -6.0448010   -0.2538900   -0.5933110  
N    -6.0631870    0.8469260   -1.4304020  
C    -5.0093840   -0.7360090    0.1581300  
C    -5.2949480   -1.9318120    0.9841970  
O    -4.4928430   -2.3977720    1.7720670  
C    -6.7156140   -2.6007550    0.8771510  
O    -6.9289190   -3.6207360    1.5128180  
C    -7.7236180   -1.9707550    0.0254530  
H    -9.1665520   -0.1879900   -1.9206970  
H    -8.7020950   -2.4377320   -0.0314100  
H    -7.4919380    1.7397050   -2.7574180  
H    -5.2458030    1.3883690   -1.6681130  
