62


C    -0.2102350    2.0908490   -0.1630150  
C     0.9383930    1.2963460   -0.1704270  
C     0.5382640   -0.0431780   -0.4334350  
C    -0.8750540   -0.0223560   -0.5704480  
N    -1.2961490    1.2707270   -0.4033830  
C    -1.6438680   -1.1802410   -0.7964910  
C    -0.9509560   -2.3894050   -0.8890110  
O    -1.6264760   -3.5357030   -1.1573700  
C     0.4569170   -2.4368700   -0.7290980  
O     0.9656870   -3.7049230   -0.8748960  
C     1.2333960   -1.2884870   -0.5091420  
H     1.9535300    1.6483320   -0.0769640  
H    -2.2340630    1.6381280   -0.5205700  
H    -0.9680680   -4.2507890   -1.2200650  
H     1.9403260   -3.6650700   -0.9239240  
C     2.3995590    5.0926510    1.7230360  
C     1.6784600    6.2108060    1.4584290  
C     0.4815910    5.7968910    0.7570120  
C     0.5759110    4.3287970    0.6160920  
N     1.7779310    3.9641680    1.1883740  
C    -0.3707930    3.5208730    0.0270010  
C    -1.6125000    4.2046780   -0.3893180  
O    -2.6114520    3.6079840   -0.7721350  
C    -1.6846840    5.7771060   -0.3387490  
O    -2.6728900    6.3179040   -0.8095190  
C    -0.5833660    6.4998860    0.2789540  
H     1.9410450    7.2244210    1.7239010  
H    -0.6547910    7.5806380    0.3457760  
H     3.3412750    4.9868910    2.2450820  
H     1.9875390    3.0143480    1.4604290  
C     2.6773780   -1.3673060   -0.3967260  
C     3.6514120   -0.4886780   -0.7903010  
C     4.9393330   -1.0421540   -0.4667710  
C     4.6710440   -2.3468860    0.1754180  
N     3.2819530   -2.5512190    0.1258970  
C     5.6219860   -3.1534570    0.6955630  
C     7.0237450   -2.7325470    0.5891990  
O     7.9445920   -3.3996850    1.0310750  
C     7.3365820   -1.3758160   -0.1387790  
O     8.5016090   -1.0201070   -0.2435960  
C     6.2130640   -0.5898150   -0.6414460  
H     3.4801600    0.4302720   -1.3320540  
H     5.4086510   -4.1057730    1.1719120  
H     6.4369360    0.3563840   -1.1247240  
H     2.8375530   -3.0023240    0.9202280  
C    -3.6960480   -0.2434250   -1.8360980  
C    -5.0477000   -0.3528370   -1.6782490  
C    -5.2802440   -1.3159710   -0.6380020  
C    -4.0130800   -1.7719510   -0.1969110  
N    -3.0426200   -1.1053120   -0.9485240  
C    -3.8664510   -2.6925770    0.8464340  
C    -5.0220860   -3.1770250    1.4393790  
O    -4.9334160   -4.0839590    2.4572710  
C    -6.3000690   -2.7420230    1.0017920  
O    -7.3527890   -3.3163220    1.6897160  
C    -6.4401720   -1.8225040   -0.0210410  
H    -5.7951120    0.1858430   -2.2445630  
H    -2.9015170   -3.0448810    1.1889930  
H    -5.8422140   -4.2984400    2.7294370  
H    -8.1898950   -2.9803450    1.3370320  
H    -7.4284450   -1.4921600   -0.3349210  
H    -3.1179850    0.3442190   -2.5350460  
