62


C     0.0818290    1.5474270   -0.5661180  
C    -0.0027940    2.8759020   -0.9225340  
C    -1.3807990    3.2570110   -0.8542450  
C    -2.1124650    2.1086520   -0.4612050  
N    -1.2067260    1.0753040   -0.3170780  
C    -3.5156950    2.1141320   -0.2543160  
C    -4.1548790    3.3507600   -0.4420690  
O    -5.4954880    3.4639200   -0.2488560  
C    -3.4316850    4.4977400   -0.8571380  
O    -4.2264820    5.6147880   -1.0173980  
C    -2.0676150    4.4674430   -1.0712910  
H     0.8253730    3.4966570   -1.2360520  
H    -1.4170350    0.2202800    0.1790640  
H    -5.7440120    4.3762680   -0.4835540  
H    -3.6970120    6.3502350   -1.3592600  
H    -1.5369610    5.3646800   -1.3820310  
C     2.4935100    1.0568480   -0.0427960  
C     1.2414190    0.6817740   -0.4358880  
C     1.3193450   -0.7468530   -0.7315380  
C     2.7200100   -1.1530300   -0.4576680  
N     3.3928950   -0.0133260   -0.0566120  
C     3.1909180   -2.4249800   -0.5979580  
C     2.2724120   -3.4653370   -1.0585950  
O     2.6006120   -4.6332200   -1.1916610  
C     0.7978790   -3.0458190   -1.3952450  
O     0.0156230   -3.8828740   -1.8136430  
C     0.4093580   -1.6452270   -1.1857630  
H     4.1975000   -2.7185600   -0.3144240  
H    -0.6145930   -1.3766880   -1.4225870  
H     2.8474550    2.0316780    0.2628350  
C     5.5130330    1.3782280    3.5852140  
C     4.5387100    1.0017030    2.6974840  
C     5.2082220    0.5788130    1.4997690  
C     6.6040330    0.7189890    1.7251010  
N     6.7557150    1.2129610    3.0035670  
C     7.5707010    0.3706530    0.7747720  
C     7.1221050   -0.1287470   -0.4385950  
O     8.0148480   -0.4871200   -1.3999780  
C     5.7336530   -0.2591530   -0.7096680  
O     5.4372090   -0.6903410   -1.9860620  
C     4.7817070    0.0929810    0.2444840  
H     3.4741140    1.0130390    2.8828410  
H     7.6387670    1.3958160    3.4541270  
H     8.6362810    0.4651360    0.9556520  
H     7.4959500   -0.8235920   -2.1533190  
H     4.6584940   -1.2756610   -1.9771810  
H     5.4255860    1.7507770    4.5959040  
C    -4.2518070    0.9162810    0.1232870  
C    -5.4112580    0.7618610    0.8321660  
C    -5.7036900   -0.6436160    0.9325590  
C    -4.6227670   -1.3405520    0.1994660  
N    -3.7154890   -0.3586310   -0.2114980  
C    -4.5710450   -2.6776330    0.0001720  
C    -5.6360470   -3.5048680    0.5749300  
O    -5.6717260   -4.7179080    0.4466210  
C    -6.7656710   -2.7906480    1.4038750  
O    -7.6482950   -3.4728000    1.9044460  
C    -6.7151080   -1.3359860    1.5272200  
H    -5.9906240    1.5639540    1.2614080  
H    -3.7750300   -3.1743320   -0.5473160  
H    -7.5118590   -0.8481430    2.0804760  
H    -3.2406840   -0.4697420   -1.1001910  
