58


C     5.1229730   -2.1645550   -1.5592750  
C     6.4197690   -2.5446540   -1.5669580  
C     7.1392140   -1.6795450   -0.6574760  
C     6.1430680   -0.7282000   -0.1097250  
N     4.9097320   -1.0555140   -0.7164860  
C     6.4286690    0.1867940    0.8434560  
C     7.8127200    0.2910410    1.3233760  
O     8.1454850    1.0952320    2.1771580  
C     8.8895390   -0.6702460    0.7127970  
O    10.0468030   -0.5844220    1.0879530  
C     8.4427660   -1.6514960   -0.2800090  
H     6.8464600   -3.3392650   -2.1622890  
H     5.7057980    0.8743130    1.2627620  
H     9.1791150   -2.3467050   -0.6712510  
H     4.2864340   -2.5543810   -2.1214900  
C     0.9193320   -2.7867080   -0.0317670  
C     2.2587430   -2.6823030   -0.2181340  
C     2.5159330   -1.2553320   -0.3404270  
C     1.1794810   -0.6277750   -0.2079970  
N     0.2567060   -1.5318120   -0.0220830  
C     0.9848790    0.8274390   -0.2527730  
C     2.1350150    1.5653140   -0.3957160  
O     2.1580440    2.9155580   -0.4539530  
C     3.4870580    0.9725580   -0.5401770  
O     4.4245780    1.7481700   -0.7435050  
C     3.6482590   -0.5082060   -0.4835240  
H     2.9886200   -3.4788670   -0.2287940  
H     3.1028900    3.1517100   -0.6066950  
H     0.3329030   -3.6847140    0.1168850  
C    -0.3305040    1.4206470   -0.1528730  
C    -1.5632300    0.7940260   -0.0492500  
C    -2.5706930    1.7999510    0.0122800  
C    -1.8648900    3.0952620   -0.0913520  
N    -0.5229730    2.8007810   -0.1631430  
C    -2.4674330    4.3122300   -0.1440830  
C    -3.9209640    4.3620610   -0.0967760  
O    -4.5603820    5.3950740   -0.2199500  
C    -4.6999900    3.0230450    0.1533510  
O    -5.8755610    3.0963520    0.4527610  
C    -3.9549830    1.7292040    0.1062520  
H    -1.6954880   -0.2737010   -0.0399440  
H    -1.9205800    5.2433860   -0.2556930  
H     0.2253950    3.4685160   -0.2774860  
C    -4.6796870    0.4857710    0.2125000  
C    -4.2824410   -0.6867400    0.8157180  
C    -5.3740260   -1.6109060    0.6388960  
C    -6.3904450   -0.8321790   -0.1384510  
N    -5.9926580    0.3804990   -0.3788080  
C    -7.6393930   -1.4253930   -0.5454060  
C    -7.8754400   -2.7073750   -0.1796670  
O    -8.9939310   -3.3841300   -0.4784350  
C    -6.8761440   -3.5114740    0.6180600  
O    -7.1813830   -4.6719250    0.8979720  
C    -5.6047860   -2.8935870    1.0099080  
H    -3.3778470   -0.8661000    1.3785430  
H    -8.3572060   -0.8434520   -1.1124600  
H    -8.8696390   -4.2747840   -0.0798440  
H    -4.9059520   -3.5049000    1.5727310  
