58


C    -4.9050100   -0.2211450    2.1017460  
C    -5.9841560   -1.0398180    2.1007350  
C    -5.9955680   -1.7410800    0.8348040  
C    -4.8169560   -1.2508090    0.0798640  
N    -4.1792730   -0.3166070    0.9047440  
C    -4.4564100   -1.7065800   -1.1434640  
C    -5.2889700   -2.7289690   -1.7784150  
O    -5.0293910   -3.2067920   -2.8715440  
C    -6.5599930   -3.2387370   -1.0081020  
O    -7.2689050   -4.0864070   -1.5274700  
C    -6.8300120   -2.6809610    0.3188950  
H    -6.7130320   -1.1383610    2.8923220  
H    -3.5920070   -1.3460690   -1.6884550  
H    -7.6959940   -3.0541860    0.8571720  
H    -4.5690400    0.4756200    2.8577650  
C    -0.4486050    0.2023860    3.1281090  
C    -1.6605260   -0.2347940    2.6907420  
C    -1.9430750    0.4557530    1.4529300  
C    -0.7865910    1.3387730    1.1958100  
N     0.0899970    1.1268140    2.2467370  
C    -0.6389050    2.1783360    0.1263110  
C    -1.7274830    2.1551480   -0.8723880  
O    -1.6493530    2.7102330   -1.9519990  
C    -3.0250240    1.3220110   -0.5691460  
O    -3.9888820    1.4512070   -1.3004920  
C    -3.0215460    0.4253520    0.6062140  
H    -2.2827590   -0.9759300    3.1691440  
H     0.1039830   -0.0841620    4.0129970  
H     0.9350900    1.6565840    2.3945810  
C     3.6908960    1.3196680   -0.2413220  
C     4.1387680    2.6017070   -0.4513600  
C     2.9966990    3.4751170   -0.4170350  
C     1.8181280    2.6090410   -0.1634900  
N     2.3089600    1.3280270   -0.0333270  
C     0.5244760    3.0491030   -0.0961670  
C     0.3095240    4.5076250   -0.2384120  
O    -0.7796970    5.0265580   -0.0742870  
C     1.5433160    5.4299040   -0.5451090  
O     1.3552990    6.6234210   -0.7207530  
C     2.8707500    4.8210780   -0.5959350  
H     5.1630310    2.9008690   -0.6212100  
H     3.7186730    5.4683100   -0.7975920  
H     1.7723200    0.4716440   -0.0061200  
C     4.3862830    0.0595900   -0.2117090  
C     5.7150900   -0.2153050   -0.3842660  
C     5.8268770   -1.6507020   -0.2626670  
C     4.4218650   -2.1157050   -0.0075400  
N     3.5898010   -1.1148840    0.0223340  
C     4.1071540   -3.5074280    0.1720700  
C     5.1285610   -4.3947660    0.1037960  
O     4.9866530   -5.7147310    0.2519090  
C     6.5568500   -3.9576840   -0.1513750  
O     7.4136260   -4.8372060   -0.1938480  
C     6.8533550   -2.5296380   -0.3329890  
H     6.5198190    0.4799610   -0.5776080  
H     3.0842470   -3.8188360    0.3510590  
H     5.8886500   -6.0938340    0.1494380  
H     7.8872590   -2.2541370   -0.5158410  
