60


C     2.6053280   -0.4281880   -0.1253530  
C     1.3790660   -0.9052770    0.3548800  
C     1.0203620   -2.0460230   -0.4091930  
C     2.0760050   -2.2503930   -1.3506750  
N     2.9978850   -1.2578840   -1.1638630  
C     2.1039370   -3.3286600   -2.2390170  
C     1.0614480   -4.2362960   -2.1488150  
O     1.0296160   -5.3246750   -2.9557680  
C    -0.0069720   -4.0655700   -1.2164800  
O    -0.9547600   -5.0547990   -1.2903910  
C    -0.0792590   -2.9636140   -0.3645240  
H     0.8534540   -0.5213320    1.2145220  
H     3.9075110   -1.1595610   -1.5988340  
H     2.9089860   -3.4884750   -2.9480180  
H     0.2402030   -5.8320930   -2.6815180  
H    -1.2071670   -5.2787330   -0.3612280  
C    -2.5943350    0.6111110    0.1811260  
C    -3.4137600    0.1494890    1.1937150  
C    -3.0197660   -1.1954370    1.5041860  
C    -1.8899760   -1.5143570    0.5987650  
N    -1.6809900   -0.3864250   -0.1579710  
C    -1.2326570   -2.7237540    0.5335170  
C    -1.7943670   -3.7723660    1.3899250  
O    -1.4782490   -4.9607550    1.3081290  
C    -2.8847310   -3.4153330    2.4655140  
O    -3.2006780   -4.2753370    3.2741400  
C    -3.4876020   -2.0947090    2.4166630  
H    -4.1499950    0.7196050    1.7408850  
H    -4.2831190   -1.8675270    3.1191510  
H    -0.9069920   -0.2237070   -0.7920770  
C    -5.8024810    3.5626270   -0.3868280  
C    -5.1082420    4.5313720   -1.0302210  
C    -3.7481640    4.0549760   -1.1829510  
C    -3.7043550    2.7168630   -0.5480580  
N    -4.9657590    2.4893560   -0.0620410  
C    -2.5973870    1.8929420   -0.5000900  
C    -1.4129150    2.3697860   -1.2383270  
O    -0.4194810    1.6825590   -1.4320070  
C    -1.4085760    3.8314840   -1.8139160  
O    -0.3730920    4.2645330   -2.2883060  
C    -2.6503490    4.6024910   -1.7675530  
H    -5.4924950    5.4793060   -1.3770980  
H    -2.6508380    5.5910570   -2.2158530  
H    -6.8456490    3.5302880   -0.1028270  
H    -5.2828240    1.5798730    0.2439180  
C     1.8243040    3.1555680    2.4247240  
C     1.6804170    2.0564710    1.6364320  
C     2.9906770    1.6928790    1.1467480  
C     3.9209300    2.6897740    1.7054370  
N     3.1609190    3.5262470    2.4976130  
C     5.2653230    2.7477210    1.4759970  
C     5.8352620    1.7735830    0.5791630  
O     7.0228330    1.7047000    0.2908250  
C     4.8623390    0.7300210   -0.0902160  
O     5.3413140    0.0083420   -0.9556240  
C     3.4323300    0.6654850    0.3275380  
H     0.7470580    1.5845370    1.3779120  
H     5.9177250    3.4843730    1.9335650  
H     1.0743590    3.7283160    2.9534050  
H     3.5143570    4.3504760    2.9572790  
