62


C    -0.6668850    1.2833840    0.0619240  
C    -1.7393100    0.3996240   -0.0159390  
C    -2.9444230    1.1612530    0.0087530  
C    -2.5539480    2.5282700    0.0805800  
N    -1.1815510    2.5678930    0.1326700  
C    -3.4719620    3.5808590    0.0608540  
C    -4.8114510    3.2425410   -0.0627690  
O    -5.7588210    4.2150990   -0.1082370  
C    -5.2357780    1.8873810   -0.1444660  
O    -6.5997300    1.7469680   -0.2333340  
C    -4.3318670    0.8212860   -0.0693290  
H    -1.6669930   -0.6662370   -0.1664710  
H    -0.5969240    3.3898960    0.0766580  
H    -3.1767110    4.6237330    0.1088820  
H    -6.6070390    3.7476940   -0.2380050  
H    -6.7715010    1.0375180   -0.8962390  
C     1.5492590   -2.3368020    1.2319470  
C     2.8085140   -1.8945370    0.9242690  
C     2.6797860   -0.5563600    0.4152670  
C     1.2967420   -0.2453790    0.4385640  
N     0.6300510   -1.3571370    0.9144890  
C     0.7636950    1.0170900    0.0815700  
C     1.7314520    1.9868940   -0.2163210  
O     1.3562080    3.2686190   -0.5180030  
C     3.1179940    1.7072130   -0.2443730  
O     3.8772650    2.7898570   -0.6205570  
C     3.6317560    0.4302130    0.0127040  
H     3.7225030   -2.4548270    1.0520150  
H    -0.3366710   -1.3487100    1.2047570  
H     2.1959660    3.7504880   -0.6648710  
H     4.6778000    2.7909430   -0.0411570  
H     1.2243590   -3.2815280    1.6447400  
C     5.7442360   -2.9101380   -2.0071000  
C     4.8224080   -2.0096570   -1.5744350  
C     5.5132610   -1.0333220   -0.7638450  
C     6.9376650   -1.4429710   -0.7627950  
N     7.0062000   -2.5998850   -1.5122770  
C     7.9411810   -0.7881190   -0.1201560  
C     7.5968800    0.4279190    0.5876090  
O     8.3919930    1.0924390    1.2345250  
C     6.1124780    0.9475850    0.4886840  
O     5.9096490    2.0848070    0.9135330  
C     5.0656440    0.0959390   -0.1046190  
H     3.7679020   -2.0159220   -1.7994780  
H     8.9690550   -1.1349370   -0.0945510  
H     5.6134200   -3.7731100   -2.6463610  
H     7.8610540   -3.0772740   -1.7512080  
C    -3.2831330   -2.5711200    2.5962960  
C    -3.4459100   -1.3437440    2.0342500  
C    -4.2682630   -1.5094420    0.8543120  
C    -4.5762210   -2.9567760    0.7765070  
N    -3.9239460   -3.5479540    1.8414470  
C    -5.3388600   -3.5456670   -0.1822670  
C    -5.9291670   -2.6830580   -1.1862690  
O    -6.6037750   -3.0843690   -2.1220430  
C    -5.7182360   -1.1282330   -1.0424900  
O    -6.4114190   -0.4178280   -1.7678050  
C    -4.7519770   -0.5962990   -0.0605670  
H    -3.0608990   -0.4095760    2.4112520  
H    -5.5105920   -4.6152720   -0.2451110  
H    -2.7594850   -2.8476790    3.5020530  
H    -4.0248490   -4.5153280    2.1060650  
