62


C    -1.2790430   -0.2887310    1.1952520  
C    -0.7579150    0.7453480    0.4452610  
C    -1.8923220    1.4440920   -0.1181110  
C    -3.0581630    0.7765600    0.3319750  
N    -2.6581970   -0.2627690    1.1429570  
C    -4.3524590    1.1859170   -0.0452720  
C    -4.4548120    2.2967150   -0.8809390  
O    -5.6839590    2.7428490   -1.2660080  
C    -3.2902710    2.9774820   -1.3180260  
O    -3.5664330    4.0625290   -2.1264960  
C    -2.0223660    2.5665520   -0.9570940  
H    -3.2717660   -0.9551310    1.5443690  
H    -5.5379060    3.5063890   -1.8524580  
H    -2.7372260    4.4534540   -2.4395060  
H    -1.1455890    3.1156770   -1.2857990  
H    -0.7680390   -1.0175920    1.8090080  
C     2.4665320   -1.9633030   -0.7720730  
C     3.5302030   -1.0820390   -0.7017970  
C     2.9704880    0.1896510   -0.2885700  
C     1.5774900   -0.0013560   -0.1183960  
N     1.3055720   -1.3232960   -0.4158700  
C     0.6773230    1.0212790    0.2516470  
C     1.2443870    2.2850290    0.4275640  
O     0.4604040    3.3429270    0.7966540  
C     2.6330720    2.5032250    0.2360770  
O     3.0168800    3.8170420    0.4368180  
C     3.4982910    1.4843570   -0.1145270  
H     0.3798160   -1.7242420   -0.4217740  
H     1.0561340    4.1022280    0.9249160  
H     3.9835540    3.8780580    0.4272440  
H     4.5537780    1.6899700   -0.2729410  
H     2.4691900   -3.0161020   -1.0162240  
C     5.3910110   -2.2120140   -2.0094180  
C     4.9103690   -1.4129950   -1.0156010  
C     6.1244470   -1.0223750   -0.2588610  
C     7.2425360   -1.6898040   -0.9824680  
N     6.8046000   -2.3851380   -1.9948740  
C     8.6088330   -1.5530770   -0.5487390  
C     8.8533480   -0.8207430    0.5649570  
O    10.0797090   -0.6135280    1.0809050  
C     7.7456410   -0.1663550    1.3330730  
O     8.0421420    0.4891560    2.3328160  
C     6.3498040   -0.3172290    0.8653320  
H     9.4036070   -2.0401960   -1.1030850  
H     9.9338790   -0.0570830    1.8766490  
H     5.5748800    0.1612240    1.4560420  
H     4.8185970   -2.6972200   -2.7910080  
C    -6.5802560    1.1376010    1.0955250  
C    -7.5489840    0.2481260    1.4220970  
C    -7.1306430   -1.0457130    0.9288180  
C    -5.8166130   -0.8283660    0.2698630  
N    -5.5184570    0.5204420    0.4175790  
C    -5.1023890   -1.8074300   -0.3482230  
C    -5.6386530   -3.1654100   -0.3502440  
O    -5.0600890   -4.1071970   -0.8723150  
C    -7.0186210   -3.4197080    0.3588930  
O    -7.4743280   -4.5525700    0.3782740  
C    -7.7031130   -2.2776780    0.9697410  
H    -8.4667890    0.4646310    1.9492210  
H    -4.1658280   -1.6248600   -0.8632230  
H    -8.6651750   -2.4602640    1.4390710  
H    -6.5272720    2.2010720    1.2794380  
