62


C    -0.5056620    0.9178830    1.2536570  
C    -1.7922000    0.5467740    0.9375500  
C    -2.3128630    1.5841000    0.0729200  
C    -1.2887760    2.5478110   -0.0928240  
N    -0.1851250    2.1275070    0.6479490  
C    -1.4439670    3.6858440   -0.8924090  
C    -2.6656920    3.8630370   -1.5212110  
O    -2.8708370    4.9545170   -2.3135340  
C    -3.7141890    2.9206010   -1.3469470  
O    -4.8736270    3.2452050   -2.0228930  
C    -3.5547870    1.7960250   -0.5596370  
H    -0.6602880    4.4225420   -1.0193280  
H    -3.7762470    4.8890920   -2.6635020  
H    -5.5143410    2.5238030   -1.9353430  
H    -4.3728240    1.0909870   -0.4363850  
H     0.2185130    0.4204860    1.8838820  
C     3.6178030    0.4192450   -0.5875960  
C     4.4081900    1.5026980   -0.2919860  
C     3.5389780    2.5249530    0.2169460  
C     2.2269290    1.9898110    0.2147130  
N     2.2956790    0.7035980   -0.2779890  
C     1.1060110    2.7120390    0.6638970  
C     1.3288360    4.0073780    1.1281480  
O     0.2898390    4.7522320    1.5897410  
C     2.6398000    4.5568120    1.1199600  
O     2.6881610    5.8481050    1.6034320  
C     3.7370860    3.8409630    0.6808640  
H     5.4837920    1.5444860   -0.3912220  
H     1.5023010    0.1196920   -0.5002440  
H     0.6490950    5.6182410    1.8517600  
H     3.6031030    6.1660070    1.6004420  
H     4.7282970    4.2883450    0.6921100  
C     4.7199740   -1.0110020   -2.2983760  
C     4.9525400   -2.3241840   -2.5360200  
C     4.3232650   -3.0771500   -1.4706100  
C     3.7017170   -2.0758600   -0.5697600  
N     3.9637930   -0.8246170   -1.1307420  
C     3.0338400   -2.3806070    0.5711460  
C     2.8953590   -3.7880860    0.9393720  
O     2.3103630   -4.1544310    1.9472400  
C     3.5305360   -4.8684220   -0.0096710  
O     3.4210290   -6.0488880    0.2805400  
C     4.2391180   -4.4075310   -1.2077760  
H     5.4975740   -2.7362510   -3.3728390  
H     2.6045770   -1.6333880    1.2293560  
H     4.6856080   -5.1612230   -1.8492360  
H     5.0130370   -0.1384580   -2.8664270  
C    -2.4748020   -1.1181520    2.7118160  
C    -2.4717800   -0.6520630    1.4289440  
C    -3.2330600   -1.6228330    0.6449640  
C    -3.6769340   -2.6783560    1.5913980  
N    -3.1785830   -2.3135350    2.8237550  
C    -4.4195710   -3.7608520    1.2436990  
C    -4.8108660   -3.9159520   -0.1529510  
O    -5.4885840   -4.8482550   -0.5589190  
C    -4.3306470   -2.8242960   -1.1785330  
O    -4.6429000   -2.9375510   -2.3540790  
C    -3.5289090   -1.7032190   -0.6792800  
H    -4.7327360   -4.5214920    1.9523270  
H    -3.1979340   -0.9604870   -1.3975870  
H    -2.0259010   -0.6720950    3.5894570  
H    -3.2951870   -2.8428850    3.6733070  
