58


C    -3.2830600    0.9859870   -1.9745770  
C    -4.5578220    1.4395520   -2.0223040  
C    -5.2917640    0.7894900   -0.9580440  
C    -4.3257210   -0.1044070   -0.2736450  
N    -3.1046070    0.0442020   -0.9483370  
C    -4.6238620   -0.8394930    0.8235670  
C    -5.9906850   -0.7881910    1.3473920  
O    -6.3413080   -1.4176860    2.3325520  
C    -7.0378790    0.1214110    0.6115970  
O    -8.1830830    0.1687170    1.0316270  
C    -6.5823180    0.8932310   -0.5467180  
H    -4.9588710    2.1436680   -2.7371600  
H    -3.9144150   -1.4828650    1.3295280  
H    -7.3012120    1.5442940   -1.0347960  
H    -2.4414920    1.2218370   -2.6115360  
C     1.0113700    1.5859760   -0.4251370  
C    -0.3629120    1.5410120   -0.5423300  
C    -0.7088310    0.1447050   -0.5162340  
C     0.5975420   -0.5544960   -0.3340270  
N     1.5918120    0.2813790   -0.3059510  
C     0.6967600   -1.9985950   -0.2127730  
C    -0.4606400   -2.6970810   -0.3535110  
O    -0.5369680   -4.0320490   -0.2729960  
C    -1.7900560   -2.0365450   -0.5998020  
O    -2.7631340   -2.7698320   -0.7632480  
C    -1.8709330   -0.5569250   -0.6451790  
H    -1.0358610    2.3667880   -0.7272410  
H    -1.4789070   -4.2545710   -0.4432680  
C     0.3444710    5.4924590    1.4341070  
C     1.5354460    6.0823290    1.1631070  
C     2.3266790    5.1264970    0.4155390  
C     1.4811990    3.9228390    0.2583810  
N     0.2877550    4.2164490    0.8730400  
C     1.8705030    2.7475720   -0.3472230  
C     3.2312610    2.7370200   -0.9425660  
O     3.6475830    1.8351480   -1.6428090  
C     4.1571420    3.9888230   -0.7257610  
O     5.3100430    3.9402150   -1.1215190  
C     3.5984630    5.1695040   -0.0653010  
H     1.8443750    7.0753660    1.4549300  
H     4.2419390    6.0362650    0.0514810  
H    -0.5066400    5.8740530    1.9820460  
H    -0.4164640    3.5190910    1.0712920  
C     3.4412540   -1.7231130    3.1991720  
C     4.4819930   -2.4891760    2.8014580  
C     4.0984210   -2.9950770    1.4868700  
C     2.7509000   -2.3860250    1.2426830  
N     2.3677170   -1.6589910    2.2489500  
C     2.0023330   -2.6465980    0.0246520  
C     2.5639250   -3.5110930   -0.8625980  
O     1.9986690   -3.8586510   -2.0263930  
C     3.9113880   -4.1450850   -0.6316380  
O     4.3340450   -4.9034030   -1.5021520  
C     4.6597420   -3.8384080    0.5997640  
H     5.4001260   -2.7032390    3.3304260  
H     2.6374510   -4.4750670   -2.4499520  
H     5.6241260   -4.3201850    0.7285510  
H     3.3344890   -1.1749850    4.1277700  
