60


C     0.4779630    2.6506570   -0.0171690  
C     1.3825050    3.7089060   -0.0360870  
C     2.6772490    3.1556840   -0.1823280  
C     2.5262060    1.7338010   -0.2397140  
N     1.1913140    1.4599350   -0.1066400  
C     3.6269640    0.8455450   -0.3471030  
C     4.8779600    1.4616670   -0.4818450  
O     5.9966400    0.7095490   -0.6641050  
C     5.0345440    2.8792450   -0.4384930  
O     6.3484070    3.2836970   -0.5679590  
C     3.9657950    3.7267920   -0.2716600  
H     1.1301460    4.7562280    0.0569520  
H     0.7638640    0.5982720   -0.4238790  
H     6.7377750    1.3276050   -0.7985560  
H     6.3847110    4.2432710   -0.6963630  
H     4.1071960    4.8038820   -0.2229880  
C    -0.9462360    2.6403050    0.0690970  
C    -1.8382540    3.6860280    0.1118870  
C    -3.1350070    3.0946080    0.2041350  
C    -2.8796310    1.6076750    0.1822250  
N    -1.5969770    1.3616140    0.1188860  
C    -3.9480320    0.6305130    0.2398530  
C    -5.1979760    1.1639070    0.4312710  
O    -6.2878430    0.4334460    0.6331600  
C    -5.4864750    2.6562410    0.4593470  
O    -6.6689250    2.9751040    0.6180640  
C    -4.3943190    3.5967110    0.3185050  
H    -1.6157240    4.7432300    0.0819140  
H    -7.0246180    1.0884790    0.6993160  
H    -4.6265230    4.6563390    0.3371370  
C    -0.9465310   -2.2408590    1.8237410  
C    -1.4649430   -3.3971730    1.3354460  
C    -2.6389660   -3.0472090    0.5658080  
C    -2.7672260   -1.5713880    0.6711320  
N    -1.7348970   -1.1435430    1.4905200  
C    -3.7536430   -0.8247630    0.0850000  
C    -4.6534330   -1.5656870   -0.8359530  
O    -5.4116030   -1.0088420   -1.6100430  
C    -4.6066440   -3.1367140   -0.8526230  
O    -5.4701590   -3.7366460   -1.4753310  
C    -3.5288240   -3.8021090   -0.1330100  
H    -1.0788490   -4.3948340    1.4866050  
H    -3.4736800   -4.8852900   -0.1812170  
H    -0.0588970   -2.0924420    2.4258600  
H    -1.3695250   -0.2005200    1.3529580  
C     5.6856020   -2.2643620    2.0706010  
C     5.2292330   -1.0950350    1.5519860  
C     4.2742850   -1.4193630    0.5166550  
C     4.2070810   -2.9034930    0.4801290  
N     5.0949470   -3.3516920    1.4374500  
C     3.4205560   -3.6298660   -0.3538290  
C     2.5555320   -2.9014410   -1.2663680  
O     1.8311080   -3.4403030   -2.0873610  
C     2.5322900   -1.3290980   -1.1736630  
O     1.6681110   -0.7450140   -1.8134750  
C     3.5099850   -0.6309670   -0.3122290  
H     5.5279440   -0.1046380    1.8549280  
H     3.4165470   -4.7148220   -0.3858600  
H     6.4033550   -2.4287480    2.8634430  
H     5.2640390   -4.3207000    1.6561880  
