60


C     1.0355130    1.6498640   -0.2582790  
C    -0.3474070    1.5025810   -0.4099010  
C    -0.6373610    0.1143540   -0.4401180  
C     0.6045430   -0.5702170   -0.2951200  
N     1.5865340    0.3772500   -0.1992020  
C     0.7194340   -1.9756510   -0.2707150  
C    -0.4800250   -2.6804310   -0.3773840  
O    -0.4670290   -4.0330300   -0.3127540  
C    -1.7316820   -2.0158320   -0.5246330  
O    -2.7879030   -2.8929390   -0.6411720  
C    -1.8450490   -0.6317420   -0.5646320  
H    -1.0699760    2.3035810   -0.4125740  
H     2.5720230    0.2332080   -0.0164190  
H    -1.3740420   -4.3462590   -0.4778060  
H    -3.6158100   -2.4060350   -0.7758590  
C     0.3598180    5.9699160   -1.1885240  
C     0.2557530    4.6150480   -1.1232450  
C     1.4348800    4.1147750   -0.4530950  
C     2.2525050    5.3005210   -0.1389680  
N     1.5356420    6.3926410   -0.5834630  
C     3.4694980    5.2935220    0.4799710  
C     4.0341820    4.0153110    0.8324160  
O     5.1029130    3.8603530    1.4092670  
C     3.2296610    2.7199810    0.4353880  
O     3.8008550    1.6482570    0.5923240  
C     1.8484040    2.8358670   -0.1139670  
H    -0.5418990    4.0262220   -1.5456560  
H     4.0207500    6.1961980    0.7226330  
H    -0.3131010    6.6928470   -1.6294860  
H     1.8656970    7.3442620   -0.5480700  
C    -3.4342290    0.9866760   -1.6943630  
C    -3.1462050    0.0329080   -0.7587590  
C    -4.3778070   -0.1657100    0.0059900  
C    -5.3919380    0.7474330   -0.5799190  
N    -4.7474340    1.4245050   -1.5972790  
C    -6.6741220    0.8521060   -0.1499470  
C    -7.1005330    0.0221540    0.9744830  
O    -8.2350850    0.0434990    1.4247820  
C    -6.0384790   -0.9339100    1.6297740  
O    -6.3677210   -1.6190190    2.5840940  
C    -4.6835440   -0.9646780    1.0651010  
H    -7.3998750    1.5266100   -0.5940680  
H    -3.9587000   -1.6229150    1.5336440  
H    -2.7807970    1.3953920   -2.4537530  
H    -5.1865300    2.0881050   -2.2161120  
C     4.0464160   -1.8416720    2.6817560  
C     2.8654250   -1.6751330    2.0323270  
C     2.9178280   -2.4769680    0.8267550  
C     4.2420620   -3.1480800    0.8397450  
N     4.8740570   -2.7180040    1.9896030  
C     4.6831940   -4.0183230   -0.1047210  
C     3.8021660   -4.3182890   -1.2227430  
O     4.0821670   -5.1178430   -2.1034370  
C     2.4240860   -3.5637040   -1.3070910  
O     1.7486520   -3.7073860   -2.3100900  
C     2.0200550   -2.6711600   -0.1889980  
H     2.0408160   -1.0586160    2.3553670  
H     5.6492240   -4.5115980   -0.0593850  
H     4.3855260   -1.4017560    3.6100850  
H     5.8080630   -2.9782250    2.2642350  
