64


C    -2.2384650   -0.6972110    0.2995810  
C    -3.3569030    0.0687120    0.0305010  
C    -2.9382910    1.4533380    0.1259410  
C    -1.5644390    1.4438580    0.4651600  
N    -1.1557660    0.1098150    0.5564590  
C    -0.8222670    2.6160090    0.6556930  
C    -1.4782700    3.8254270    0.4758750  
O    -0.8012590    4.9945550    0.6489730  
C    -2.8474570    3.8551330    0.1028660  
O    -3.3516180    5.1277020   -0.0611340  
C    -3.5782580    2.6926950   -0.0719090  
H     0.2214450    2.6087300    0.9480630  
H    -1.4257420    5.7213920    0.4805880  
H    -4.2802230    5.0823150   -0.3336140  
H    -4.6192880    2.7440770   -0.3812350  
H    -2.1408900   -1.7701630    0.3656510  
C     2.6518970    0.8291350   -1.4692350  
C     3.4513690    0.0925270   -0.6226740  
C     2.5742590   -0.4486020    0.3945960  
C     1.2656230    0.0055570    0.0964630  
N     1.3379560    0.7638180   -1.0512140  
C     0.1511100   -0.3487960    0.8793380  
C     0.3676780   -1.1880710    1.9710110  
O    -0.6778470   -1.5662080    2.7572540  
C     1.6719510   -1.6687770    2.2550820  
O     1.7161470   -2.5033740    3.3534090  
C     2.7670060   -1.3128750    1.4902090  
H     0.5721870    1.2880380   -1.4465420  
H    -0.3177490   -2.1456030    3.4519970  
H     2.6211820   -2.8215060    3.4879130  
H     3.7515670   -1.7152870    1.7158820  
H     2.9276620    1.4116610   -2.3362650  
C     4.8867540   -0.1041630   -0.7504240  
C     5.6780080   -0.2540010   -1.8684330  
C     7.0365550   -0.3872790   -1.4294960  
C     7.0226390   -0.3140040   -0.0118150  
N     5.7021410   -0.1792460    0.3806340  
C     8.1861750   -0.3935660    0.7610760  
C     9.3902190   -0.5579040    0.0920300  
O    10.5565990   -0.6369840    0.7989450  
C     9.4228320   -0.6490680   -1.3240290  
O    10.6937510   -0.8205130   -1.8429780  
C     8.2706880   -0.5693960   -2.0850990  
H     5.3153880   -0.3130500   -2.8857940  
H     5.4106480    0.1467990    1.2901570  
H     8.1805910   -0.3322030    1.8447540  
H    11.2752450   -0.7487040    0.1531050  
H    10.6440300   -0.8587350   -2.8093900  
H     8.3227120   -0.6402570   -3.1699900  
C    -4.6685690   -0.4536750   -0.2639550  
C    -5.0464400   -1.6477660   -0.8261780  
C    -6.4812010   -1.7021790   -0.8578210  
C    -6.9504760   -0.4291650   -0.2560370  
N    -5.8129670    0.3152850    0.0244060  
C    -8.2514670   -0.1149680   -0.0461090  
C    -9.2744590   -1.0692670   -0.4720500  
O   -10.4703250   -0.8639060   -0.3285230  
C    -8.8031030   -2.4054820   -1.1549680  
O    -9.6522440   -3.2054840   -1.5247440  
C    -7.3707760   -2.6349960   -1.3049240  
H    -4.3741190   -2.3917330   -1.2293380  
H    -8.5770430    0.8165320    0.4076160  
H    -7.0562680   -3.5698940   -1.7589710  
H    -5.8000550    1.0264950    0.7421750  
