58


C     0.5156610    2.1253930    0.2117920  
C    -0.8193230    1.9653890   -0.0658990  
C    -1.1127250    0.5585090   -0.0835120  
C     0.1562720   -0.1255830    0.2289660  
N     1.1010360    0.8693990    0.3698530  
C     0.3431260   -1.4844670    0.3543230  
C    -0.8540620   -2.3033210    0.0996710  
O    -0.8578510   -3.5225180    0.1548360  
C    -2.2183960   -1.5997120   -0.2581030  
O    -3.1735120   -2.3247280   -0.4860150  
C    -2.2837290   -0.1311030   -0.3302830  
H    -1.5173050    2.7644360   -0.2636600  
H     2.0576660    0.7021010    0.6406070  
C     0.8123320    4.5235370    0.8658550  
C     1.2904820    3.3380860    0.3702820  
C     2.7014070    3.5602410    0.0521110  
C     2.9868070    4.9695340    0.4173510  
N     1.7910760    5.4913440    0.8893270  
C     4.1907380    5.5754370    0.2840820  
C     5.3007750    4.7986990   -0.2704440  
O     6.4214200    5.2560230   -0.4178470  
C     5.0160830    3.3162900   -0.7024510  
O     5.9148110    2.6572220   -1.1957990  
C     3.6643130    2.7755950   -0.4980160  
H     4.3737070    6.6101240    0.5570290  
H     3.4897770    1.7558450   -0.8261130  
H    -0.1814120    4.7437250    1.2330060  
H     1.6797460    6.4183310    1.2714880  
C    -3.6328150    1.5227430   -1.6610040  
C    -3.5284580    0.5249460   -0.7300190  
C    -4.8922510    0.2879540   -0.2375680  
C    -5.7693060    1.2394550   -0.9632390  
N    -4.9390160    1.9596530   -1.8026830  
C    -7.1116080    1.3460610   -0.7958520  
C    -7.7569240    0.4812080    0.1859680  
O    -8.9568890    0.5052070    0.4129260  
C    -6.8468910   -0.5136460    0.9923290  
O    -7.3564530   -1.2247680    1.8424990  
C    -5.4069300   -0.5481300    0.6979670  
H    -7.7275280    2.0497200   -1.3476160  
H    -4.8061790   -1.2710200    1.2366770  
H    -2.8511420    1.9534130   -2.2725860  
H    -5.2580330    2.6161900   -2.4983030  
C     2.5274340   -1.5822400    1.6407180  
C     1.6114040   -2.0811780    0.7502010  
C     2.2500690   -3.3309180    0.2630230  
C     3.5539170   -3.3765770    0.9811070  
N     3.6960810   -2.3572580    1.7886900  
C     4.5001830   -4.4402690    0.7806890  
C     4.1799230   -5.4146010   -0.1046370  
O     4.9675660   -6.4611960   -0.3963600  
C     2.8784210   -5.3931420   -0.8536610  
O     2.6591410   -6.3037650   -1.6496600  
C     1.9136230   -4.2946970   -0.6143770  
H     5.4373300   -4.4389920    1.3260570  
H     4.4706710   -6.9851550   -1.0626450  
H     0.9689780   -4.3435870   -1.1416650  
H     2.4163230   -0.7058530    2.2705740  
