58


C    -5.4614980    0.0969530   -0.0806210  
C    -5.8056480   -1.1821950    0.2964260  
C    -7.2322950   -1.2242820    0.4626160  
C    -7.7293160    0.1396870    0.1559100  
N    -6.6188300    0.8847340   -0.1632860  
C    -9.0363850    0.5066990    0.2020850  
C   -10.0273360   -0.4967660    0.5750340  
O   -11.2245780   -0.2618040    0.6432370  
C    -9.5231640   -1.9506850    0.9036610  
O   -10.3377880   -2.8052740    1.2171530  
C    -8.0861290   -2.2245420    0.8197030  
H    -5.1109170   -1.9945620    0.4318560  
H    -9.3827780    1.5101650   -0.0250430  
H    -7.7484030   -3.2307850    1.0486130  
H    -6.6122720    1.8608820   -0.4177740  
C    -1.5031110   -1.8124380   -0.0800440  
C    -0.6693770   -0.7747300   -0.3771930  
C    -1.5810800    0.3769350   -0.5496950  
C    -2.9406190   -0.1804430   -0.2939930  
N    -2.8723100   -1.4546610   -0.0318680  
C    -4.1480370    0.6472770   -0.3682740  
C    -3.9375880    1.9555170   -0.7332660  
O    -4.9188430    2.8739940   -0.8585990  
C    -2.5928330    2.5162860   -1.0387220  
O    -2.5297980    3.7042740   -1.3644340  
C    -1.4040170    1.6524340   -0.9372840  
H    -4.4596160    3.7024300   -1.1336960  
H    -0.4453640    2.0978060   -1.1827760  
H    -1.2250040   -2.8364200    0.1366230  
C     1.5049060   -1.8030060   -1.1393020  
C     0.7673990   -0.8145160   -0.5542390  
C     1.7793690    0.1601620   -0.0959260  
C     3.0838980   -0.4321230   -0.5123300  
N     2.9015530   -1.5781310   -1.1113810  
C     4.3668290    0.2115450   -0.2379720  
C     4.2891550    1.4155570    0.4143570  
O     5.3597290    2.1891450    0.6791990  
C     3.0061260    2.0044170    0.8806560  
O     3.0396360    3.0892380    1.4648690  
C     1.7317830    1.3020950    0.6098690  
H     5.0029860    2.9716730    1.1561790  
H     0.8253690    1.7623440    0.9900940  
H     1.1298200   -2.6971180   -1.6228280  
C     5.7351700   -1.2248170   -1.7732920  
C     5.6104610   -0.4279580   -0.6609780  
C     6.9263150   -0.4258770   -0.0134240  
C     7.8087890   -1.2589990   -0.8691970  
N     7.0199880   -1.6954870   -1.9186890  
C     9.1148590   -1.5264980   -0.6233910  
C     9.7187490   -0.9759270    0.5866590  
O    10.8867400   -1.1573730    0.8925200  
C     8.8007970   -0.1254380    1.5334490  
O     9.2725500    0.3288640    2.5635590  
C     7.4015590    0.0964720    1.1474110  
H     9.7292990   -2.1428140   -1.2726250  
H     6.7977800    0.7013010    1.8104860  
H     4.9683200   -1.5017030   -2.4804150  
H     7.3303920   -2.3116500   -2.6543350  
