58


C     6.0377110   -1.5121490   -0.6528420  
C     7.3100400   -1.0535100   -0.5927640  
C     7.2592860    0.3144190   -0.1220170  
C     5.8254060    0.6266480    0.0871520  
N     5.1131860   -0.5308220   -0.2572570  
C     5.3697910    1.8041200    0.5756350  
C     6.3428930    2.8532690    0.8858420  
O     6.0181260    3.9410020    1.3342640  
C     7.8646190    2.5535040    0.6390170  
O     8.6883100    3.4198530    0.8851060  
C     8.2313970    1.2276600    0.1340420  
H     8.2002530   -1.6025590   -0.8643030  
H     4.3212880    2.0243110    0.7372230  
H     9.2866210    1.0156220   -0.0087130  
H     5.6666220   -2.4748390   -0.9765930  
C     2.6193860   -3.7280950    1.3574750  
C     3.6573950   -2.8999000    1.0735950  
C     3.1154380   -1.7917700    0.3238750  
C     1.6553640   -2.0333030    0.2061080  
N     1.4228760   -3.2097550    0.8804530  
C     0.7264500   -1.1853870   -0.3856500  
C     1.3110130    0.0337240   -0.9429470  
O     0.6713690    0.9996120   -1.3582810  
C     2.8723180    0.2105730   -1.0249380  
O     3.3122150    1.0921420   -1.7371440  
C     3.7210690   -0.6997280   -0.2393060  
H     4.6854160   -3.0277120    1.3767140  
H     2.6169330   -4.6665580    1.8957720  
H     0.6203860   -3.7808660    0.6337260  
C    -2.8280670    1.4285850    0.1579010  
C    -3.8425990    0.5160870    0.0642200  
C    -3.1960550   -0.7704680   -0.2070630  
C    -1.7298040   -0.5069610   -0.2338820  
N    -1.5899160    0.8333710    0.0307240  
C    -0.7350150   -1.4519640   -0.4326970  
C    -1.2351030   -2.8054520   -0.7141180  
O    -0.5081560   -3.7804580   -0.8921840  
C    -2.7811330   -3.0820530   -0.7806470  
O    -3.1483780   -4.2075970   -1.0707030  
C    -3.7041350   -1.9981960   -0.4697400  
H    -4.7635260   -2.2208810   -0.4591170  
H    -2.8961340    2.4910730    0.3496880  
H    -0.7386210    1.3165870   -0.2528430  
C    -6.4190920    3.8470010   -1.4051790  
C    -5.3562630    3.0231710   -1.2362780  
C    -5.8336660    1.9582420   -0.3588200  
C    -7.2575670    2.3186890   -0.1038970  
N    -7.5929150    3.4235860   -0.7093050  
C    -8.1167580    1.5005870    0.7137760  
C    -7.5911810    0.3741930    1.2449090  
O    -8.2788010   -0.4891320    2.0124890  
C    -6.1566920   -0.0158140    1.0200740  
O    -5.7650940   -1.0448440    1.5667840  
C    -5.2621380    0.8454450    0.1815830  
H    -4.3755090    3.1073050   -1.6818280  
H    -9.1486050    1.7906760    0.8773130  
H    -7.6389350   -1.1898560    2.2629650  
H    -6.4713990    4.7514210   -1.9994630  
