62


C    -1.8473660    0.3114310    3.5223750  
C    -3.1044180    0.1753460    2.9920600  
C    -3.0023070    0.4827800    1.5927960  
C    -1.6433250    0.7914110    1.3288400  
N    -0.9621790    0.6687490    2.5229900  
C    -1.1435000    1.1368570    0.0566810  
C    -2.0812180    1.1730370   -0.9762870  
O    -1.6884900    1.4689550   -2.2405210  
C    -3.4562530    0.8995750   -0.7415710  
O    -4.2603020    1.0541100   -1.8509600  
C    -3.9228110    0.5564760    0.5247460  
H    -3.9923730   -0.1215770    3.5318840  
H     0.0083330    0.9126380    2.6520790  
H    -2.4892030    1.4370860   -2.7959040  
H    -4.9798350    0.3965600   -1.8474940  
H    -1.5018220    0.1711220    4.5367370  
C     2.3098270   -1.5339130    0.4866260  
C     3.3247350   -0.6342430    0.1657170  
C     2.6649250    0.6282740   -0.1242530  
C     1.2787370    0.4205360    0.0469910  
N     1.1027360   -0.9062230    0.4215160  
C     0.2987470    1.4112540   -0.1600730  
C     0.7758020    2.6602450   -0.5610140  
O    -0.0934720    3.6854900   -0.7601730  
C     2.1665830    2.8850080   -0.7412780  
O     2.4682070    4.1735770   -1.1324650  
C     3.1115140    1.8990570   -0.5276390  
H     0.2045250   -1.3429600    0.5706780  
H     0.4276920    4.4479880   -1.0674380  
H     3.4221350    4.2481960   -1.2854060  
H     4.1728130    2.0792860   -0.6647360  
H     2.3770760   -2.5776290    0.7583300  
C    -6.1177650    1.0638000    1.6186180  
C    -7.4130920    0.6727640    1.5535510  
C    -7.4916260   -0.3922770    0.5752300  
C    -6.1061590   -0.5942720    0.0783690  
N    -5.3086530    0.3184260    0.7442140  
C    -5.7544520   -1.5244930   -0.8558230  
C    -6.7976770   -2.3859520   -1.4079940  
O    -6.5723740   -3.2646040   -2.2255620  
C    -8.2736690   -2.1686730   -0.9130380  
O    -9.1649570   -2.8557480   -1.3845260  
C    -8.5213450   -1.1443470    0.1086460  
H    -8.2373360    1.0831020    2.1186280  
H    -4.7253720   -1.7150800   -1.1465260  
H    -9.5418540   -1.0227480    0.4593800  
H    -5.6545470    1.8379780    2.2148980  
C     4.7256430   -0.9301940    0.1365770  
C     5.3798220   -2.1167150    0.3976340  
C     6.7711450   -1.8512690    0.2240230  
C     6.8243380   -0.3943560   -0.1597490  
N     5.6370540    0.1338130   -0.2088240  
C     8.0723010    0.2703500   -0.4256840  
C     9.2029300   -0.4659730   -0.3181070  
O    10.4358970    0.0036160   -0.5319680  
C     9.1833540   -1.9388360    0.0671150  
O    10.2854360   -2.4940410    0.1303760  
C     7.9135590   -2.5878970    0.3306880  
H     4.9400160   -3.0646800    0.6753320  
H     8.0878340    1.3191840   -0.7004850  
H    11.0249590   -0.7728970   -0.3740820  
H     7.9328250   -3.6385140    0.6025810  
