64


C     2.8882200   -0.3727770    0.2737440  
C     1.7746360    0.2492020   -0.2355000  
C     1.5459550    1.4143090    0.5708220  
C     2.5700950    1.4559410    1.5528610  
N     3.3833640    0.3556730    1.3455230  
C     2.6750600    2.4778300    2.5018250  
C     1.7187690    3.4814800    2.4634260  
O     1.7569450    4.4938940    3.3770230  
C     0.6933430    3.4674750    1.4833880  
O    -0.1827010    4.5277950    1.5732840  
C     0.5837410    2.4552230    0.5272180  
H     1.2119280   -0.0662910   -1.1015120  
H     4.1074210    0.0292130    1.9673520  
H     3.4565130    2.5077060    3.2540780  
H     0.9872990    5.0639530    3.2043480  
H    -0.9313280    4.3636410    0.9735050  
C     2.8087200   -2.7330240   -0.4525080  
C     3.6937220   -3.7159530   -0.7929900  
C     5.0142790   -3.1640950   -0.6646370  
C     4.8659470   -1.8183580   -0.2437980  
N     3.4980620   -1.5702180   -0.1082670  
C     5.9602160   -0.9633820   -0.0553960  
C     7.2266040   -1.4867500   -0.2706990  
O     8.3246410   -0.6948430   -0.0976310  
C     7.3942500   -2.8373260   -0.6732740  
O     8.7141100   -3.2103810   -0.8412170  
C     6.3105770   -3.6720390   -0.8757990  
H     3.4379090   -4.7229720   -1.0931250  
H     5.8558670    0.0788390    0.2239020  
H     9.1051760   -1.2331160   -0.3149180  
H     8.7544360   -4.1235550   -1.1614670  
H     6.4606550   -4.7009450   -1.1971430  
H     1.7300620   -2.7399690   -0.3981360  
C    -2.9964010   -0.2178870   -0.1887360  
C    -1.8405310    0.3544820    0.3022420  
C    -1.5465260    1.4998760   -0.5032970  
C    -2.5695290    1.5923210   -1.4835210  
N    -3.4494940    0.5524380   -1.2575820  
C    -2.6105550    2.6056540   -2.4481490  
C    -1.5959310    3.5493260   -2.4205580  
O    -1.5718800    4.5515380   -3.3441720  
C    -0.5717600    3.4865700   -1.4378510  
O     0.3645580    4.4917600   -1.5422980  
C    -0.5227260    2.4830340   -0.4700360  
H    -1.2903740    0.0189300    1.1698660  
H    -4.1754900    0.2645310   -1.8959530  
H    -3.3889040    2.6742550   -3.2011110  
H    -0.7701250    5.0771680   -3.1761790  
H     1.1007430    4.2946810   -0.9369330  
C    -3.1409620   -2.5336720    0.7797630  
C    -3.7047300   -1.4103700    0.2433690  
C    -5.1484750   -1.6462990    0.2254070  
C    -5.3586820   -3.0041180    0.7902710  
N    -4.1050750   -3.4725720    1.1258960  
C    -6.5692330   -3.6026270    0.9274100  
C    -7.7596210   -2.8700290    0.5075880  
O    -8.8886830   -3.3298160    0.5827480  
C    -7.5666730   -1.4171900   -0.0604080  
O    -8.5482430   -0.7780000   -0.4028900  
C    -6.2035420   -0.8823890   -0.1615010  
H    -6.6986090   -4.5975050    1.3425160  
H    -6.0943650    0.1311520   -0.5336890  
H    -2.0931810   -2.7461050    0.9439500  
H    -3.9131550   -4.3930730    1.4888460  
