62


C    -1.6852600   -1.7315810    0.1048930  
C    -3.0245340   -1.4835440    0.1150000  
C    -3.2103200   -0.0634260   -0.0384120  
C    -1.9177580    0.5087890   -0.1376730  
N    -0.9808030   -0.5313320   -0.0219190  
C    -1.7148630    1.8578070   -0.4307220  
C    -2.8463330    2.6427190   -0.6083170  
O    -2.7136180    3.9647940   -0.9024090  
C    -4.1509990    2.1043550   -0.4985290  
O    -5.1506930    3.0294540   -0.6803200  
C    -4.3668340    0.7555590   -0.1797070  
H    -3.7961980   -2.2333130    0.2075140  
H    -0.7343540    2.3012930   -0.5325770  
H    -3.6242520    4.2956060   -1.0263280  
H    -5.8376190    2.5993980   -1.2417490  
H    -1.1440700   -2.6607750    0.1686910  
C     1.8213240   -2.9889240   -2.1525270  
C     3.0032750   -2.4035440   -1.8207190  
C     2.6623980   -1.3157130   -0.9166870  
C     1.1979680   -1.3882070   -0.8261330  
N     0.7078630   -2.3731230   -1.5394100  
C     0.4141690   -0.4328470   -0.0476660  
C     1.1111780    0.5358500    0.6201220  
O     0.5239580    1.4665520    1.4102540  
C     2.5742200    0.6488080    0.5311900  
O     3.0913270    1.5987910    1.1462760  
C     3.3898100   -0.3714890   -0.2248100  
H     3.9809320   -2.6530080   -2.2042190  
H     1.2630750    2.0297760    1.7251790  
H     1.6544180   -3.8277520   -2.8172380  
C     4.8237910   -0.3071860   -0.1522440  
C     5.7875770   -1.2565800   -0.5245510  
C     7.0596420   -0.7232550   -0.2290180  
C     6.8462660    0.5731440    0.3372130  
N     5.4999950    0.7926850    0.3685660  
C     7.9024750    1.3929180    0.7568840  
C     9.1867700    0.8998570    0.6050560  
O    10.2499320    1.6470000    0.9938730  
C     9.4198430   -0.3964500    0.0406660  
O    10.7566000   -0.7214340   -0.0345540  
C     8.3855390   -1.2027120   -0.3713530  
H     5.5819290   -2.2399080   -0.9172970  
H     5.0010280    1.5693380    0.7845610  
H     7.7499400    2.3767290    1.1870540  
H    11.0558380    1.1337790    0.8067610  
H    10.8600850   -1.6018240   -0.4256740  
H     8.5812500   -2.1838870   -0.7980280  
C    -6.1061820   -1.7223420    3.0594180  
C    -5.3134780   -0.9219840    2.3004300  
C    -6.0450330   -0.6004540    1.0952200  
C    -7.3545690   -1.2878290    1.2204000  
N    -7.3179090   -1.9676220    2.4203390  
C    -8.3522970   -1.2437770    0.2988530  
C    -8.1339190   -0.4306340   -0.8813270  
O    -8.9308350   -0.3344350   -1.8018300  
C    -6.8029960    0.4084410   -0.9663070  
O    -6.7523170    1.2561530   -1.8558390  
C    -5.7179580    0.1792180    0.0056230  
H    -4.3210340   -0.5812800    2.5490190  
H    -9.2827260   -1.7948610    0.3893180  
H    -5.9137910   -2.1551730    4.0321350  
H    -8.0907620   -2.4833200    2.8106310  
