58


C     5.1994960    0.0318650    0.0741020  
C     6.1604880    0.9974780   -0.1477380  
C     7.4382380    0.3448280   -0.2136130  
C     7.1732080   -1.1015440   -0.0206050  
N     5.8126750   -1.2198320    0.1635100  
C     8.1324490   -2.0616950   -0.0357360  
C     9.5193340   -1.6561130   -0.2483490  
O    10.4494930   -2.4466140   -0.2777410  
C     9.8234380   -0.1257770   -0.4477960  
O    10.9759400    0.2354520   -0.6256680  
C     8.7004660    0.8171500   -0.4152960  
H     5.9830460    2.0484920   -0.3108450  
H     7.9222490   -3.1171790    0.1049260  
H     8.9202500    1.8709690   -0.5575710  
H     5.2774350   -2.0774040    0.1560090  
C     2.4514330    3.4729340    0.8100320  
C     3.5693340    2.7072660    0.7828480  
C     3.1161480    1.3685550    0.4540560  
C     1.6270510    1.4948440    0.3661060  
N     1.2651820    2.7412270    0.5378810  
C     0.7450270    0.3629030    0.1233700  
C     1.3917590   -0.8125700   -0.1774000  
O     0.7478680   -1.9200480   -0.5562680  
C     2.8689780   -0.9786910   -0.0968340  
O     3.3088260   -2.1206280   -0.2743180  
C     3.7578990    0.1938510    0.1707430  
H     4.5789280    3.0177510    1.0017810  
H     1.4222870   -2.6309520   -0.6100480  
H     2.3716570    4.5321820    1.0212840  
C    -2.3686890    3.3163960   -1.0567490  
C    -3.4812350    2.5688430   -0.8082570  
C    -3.0431300    1.3339460   -0.2107550  
C    -1.5624300    1.4078810   -0.1789400  
N    -1.2197810    2.6269780   -0.7201000  
C    -0.7201470    0.4006350    0.2368610  
C    -1.3965290   -0.7172180    0.9414650  
O    -0.7991230   -1.5086460    1.6468700  
C    -2.9574030   -0.8602370    0.8551120  
O    -3.4574920   -1.8301910    1.3896050  
C    -3.7439280    0.2237790    0.2187770  
H    -4.4987940    2.8441960   -1.0341720  
H    -2.2952740    4.3119280   -1.4748050  
H    -0.3112400    3.0366950   -0.4817660  
C    -5.1854960    0.0983790    0.1179570  
C    -6.1404050    1.0697960    0.2837320  
C    -7.4107650    0.4128030    0.0798910  
C    -7.0412280   -1.0047110   -0.2353770  
N    -5.7559190   -1.1884200   -0.2058630  
C    -8.0460660   -1.9949030   -0.5325570  
C    -9.3421640   -1.6071860   -0.4935010  
O   -10.3817680   -2.4187290   -0.7379740  
C    -9.7446510   -0.1892540   -0.1620460  
O   -10.9490320    0.0676940   -0.1542210  
C    -8.7047520    0.8073700    0.1226970  
H    -5.9925340    2.0962090    0.5875520  
H    -7.7527560   -3.0126930   -0.7639270  
H   -11.1799190   -1.8538840   -0.6321830  
H    -9.0324930    1.8180840    0.3462790  
