64


C     1.0597920    1.6857440   -0.2143250  
C    -0.3180080    1.5652280   -0.4105920  
C    -0.6159160    0.1781150   -0.5059450  
C     0.6103990   -0.5276830   -0.3596540  
N     1.5999030    0.4095110   -0.1890190  
C     0.7133160   -1.9344440   -0.3867590  
C    -0.4867060   -2.6243470   -0.5643470  
O    -0.4953860   -3.9809900   -0.5704020  
C    -1.7257000   -1.9429100   -0.7384850  
O    -2.7972370   -2.7796900   -0.9423230  
C    -1.8065800   -0.5578690   -0.7105800  
H    -1.0462110    2.3620740   -0.3754260  
H     2.5803180    0.2427960    0.0050840  
H    -1.4180220   -4.2618540   -0.7044560  
H    -3.6285790   -2.2827420   -0.8573610  
C     3.5259980   -1.9831070    3.0228010  
C     4.4785370   -2.8003400    2.4736380  
C     4.0258500   -3.1518690    1.1573000  
C     2.7758730   -2.5082070    0.9626910  
N     2.4976100   -1.8022840    2.1158150  
C     2.0123980   -2.6314460   -0.2174210  
C     2.5579900   -3.4315620   -1.2218470  
O     1.9015850   -3.5774910   -2.4085080  
C     3.8057990   -4.0828310   -1.0417560  
O     4.2012560   -4.8340400   -2.1363170  
C     4.5401130   -3.9553720    0.1214180  
H     5.3996550   -3.1106370    2.9474670  
H     1.6578080   -1.2692680    2.2783010  
H     2.4343940   -4.1823120   -2.9530660  
H     5.0593760   -5.2422490   -1.9502570  
H     5.4951200   -4.4661930    0.2295210  
H     3.4939150   -1.4995680    3.9888030  
C     0.3531080    5.9050130   -1.2263580  
C     1.4830100    6.4501770   -0.7055560  
C     2.2706990    5.3683900   -0.1553200  
C     1.4908950    4.1380370   -0.3840100  
N     0.3187040    4.5321300   -1.0038750  
C     1.8850870    2.8643970   -0.0386480  
C     3.2544260    2.7613610    0.5139150  
O     3.8161050    1.6924000    0.7156580  
C     4.0551070    4.0751070    0.8595680  
O     5.1278210    3.9518320    1.4330090  
C     3.4871840    5.3505380    0.4643550  
H     1.7506760    7.4968020   -0.7028760  
H     4.0566830    6.2511500    0.6697100  
H    -0.4702950    6.3852770   -1.7383520  
H    -0.2805570    3.8848670   -1.4955290  
C    -3.3386920    0.9701680   -1.9578410  
C    -4.6399320    1.3865130   -1.8808910  
C    -5.2218900    0.7490160   -0.7338470  
C    -4.2062650   -0.0483950   -0.1436220  
N    -3.0531080    0.0969160   -0.9115410  
C    -4.4182500   -0.8041340    1.0203230  
C    -5.6837510   -0.7626500    1.5877790  
O    -5.9427130   -1.4782780    2.7197890  
C    -6.7137590    0.0217280    1.0046510  
O    -7.9156260   -0.0436470    1.6833140  
C    -6.4967570    0.7740260   -0.1354100  
H    -5.1324550    2.0606740   -2.5685080  
H    -3.6345760   -1.3835660    1.4964540  
H    -6.8698540   -1.3106540    2.9616770  
H    -8.5657310    0.5265660    1.2471260  
H    -7.2999150    1.3743960   -0.5586340  
H    -2.5701990    1.1913980   -2.6844450  
