62


C    -3.8488280    0.2245570    0.0267840  
C    -2.4583700    0.2640290    0.0996710  
C    -2.0474310    1.6090630   -0.0939490  
C    -3.2376100    2.3772150   -0.2564240  
N    -4.3025780    1.5164090   -0.1901050  
C    -3.2308680    3.7635840   -0.4377640  
C    -1.9954180    4.3889190   -0.4322760  
O    -1.9088620    5.7355350   -0.5915090  
C    -0.7889180    3.6523460   -0.2576970  
O     0.3455810    4.4345050   -0.3126360  
C    -0.7782150    2.2606080   -0.1118850  
H    -1.8107600   -0.5675310    0.3245580  
H    -5.2884560    1.7428130   -0.1522710  
H    -4.1372110    4.3460930   -0.5640110  
H    -0.9564990    5.9447160   -0.5368220  
H     0.9080010    4.2042560    0.4581210  
C     0.7815390   -1.3182040   -2.2114220  
C     2.0123210   -1.4548080   -1.6642380  
C     2.1230710   -0.3642660   -0.6997330  
C     0.8113070    0.3394470   -0.7897720  
N     0.0361700   -0.2297410   -1.6719330  
C     0.4934160    1.5194640    0.0248220  
C     1.4993500    1.9083610    0.8584370  
O     1.4110680    3.0026130    1.6690390  
C     2.8230770    1.2370610    0.9677230  
O     3.6586640    1.7644460    1.7004290  
C     3.1069180    0.0065310    0.1612070  
H     2.7616250   -2.2046610   -1.8742280  
H     2.2863280    3.0424300    2.1225700  
H     0.3205160   -1.9273250   -2.9803540  
C     6.2439980   -0.8458820   -2.8633170  
C     7.1637610   -1.3990530   -2.0126720  
C     6.5763940   -1.4033070   -0.7029380  
C     5.2807930   -0.8364360   -0.8254030  
N     5.1087770   -0.5017240   -2.1508920  
C     4.4234600   -0.6357520    0.2827680  
C     4.9039170   -1.0646040    1.5255680  
O     4.1017390   -0.9795340    2.6200680  
C     6.1892200   -1.6468300    1.6548470  
O     6.4948380   -2.0243760    2.9478680  
C     7.0251980   -1.8138100    0.5673370  
H     8.1470950   -1.7578270   -2.2832670  
H     4.2722190   -0.0979680   -2.5432800  
H     4.6281890   -1.2610090    3.3889240  
H     7.4060770   -2.3502870    2.9864170  
H     8.0096120   -2.2599700    0.6934960  
H     6.2953650   -0.6654460   -3.9276260  
C    -3.2119520   -4.0630020   -0.6261990  
C    -4.4395490   -4.5281670   -0.2721950  
C    -5.2505050   -3.3825760    0.0770640  
C    -4.3793070   -2.2048720   -0.0819870  
N    -3.1434080   -2.6830330   -0.4794840  
C    -4.7577510   -0.8973670    0.1250760  
C    -6.1935320   -0.6960450    0.4139480  
O    -6.7211920    0.4094620    0.4420470  
C    -7.1126430   -1.9482770    0.6866360  
O    -8.2626850   -1.7402860    1.0476260  
C    -6.5532450   -3.2698390    0.4741460  
H    -4.7571430   -5.5606950   -0.2594830  
H    -7.1981110   -4.1291020    0.6272880  
H    -2.3424000   -4.6091520   -0.9675230  
H    -2.4319700   -2.0901250   -0.8860530  
