60


C    -2.4284720    3.7059960   -1.0493110  
C    -1.3317140    3.0041040   -0.6210630  
C    -1.7584100    1.6550530   -0.3794650  
C    -3.1398530    1.5979470   -0.6982320  
N    -3.5179570    2.8590470   -1.1107720  
C    -3.9247470    0.4317710   -0.5932640  
C    -3.2533150   -0.7052140   -0.1348230  
O    -3.9347710   -1.8773000    0.0080670  
C    -1.8750770   -0.6725060    0.1821900  
O    -1.3877760   -1.8944310    0.6202240  
C    -1.0928300    0.4777670    0.0606570  
H    -0.3334140    3.4001400   -0.5056410  
H    -4.4707620    3.1357410   -1.2906880  
H    -3.3109310   -2.5244040    0.3836130  
H    -0.5992120   -1.7495910    1.1660580  
H    -2.5250500    4.7461400   -1.3265830  
C     1.0311620    1.4236580    1.0997770  
C     0.3353880    0.4846930    0.3978280  
C     1.3795170   -0.4725810   -0.0367710  
C     2.6496130    0.0763860    0.5188390  
N     2.4269630    1.1783240    1.1804100  
C     3.9461100   -0.5687580    0.3104930  
C     3.9115870   -1.7285930   -0.4182630  
O     4.9942660   -2.4983130   -0.6505000  
C     2.6629020   -2.2768800   -1.0126470  
O     2.7385590   -3.3275190   -1.6542690  
C     1.3750800   -1.5830750   -0.7956920  
H     4.6629630   -3.2466870   -1.1962570  
H     0.4886990   -2.0255630   -1.2378020  
H     0.6307770    2.3026290    1.5895070  
C     5.1955010    0.7586020    2.0331140  
C     5.1570870    0.0287500    0.8707140  
C     6.5216870    0.0497380    0.3333290  
C     7.3369070    0.8228720    1.3051140  
N     6.4688630    1.2057400    2.3106630  
C     8.6606610    1.0901570    1.1812100  
C     9.3570920    0.6054940   -0.0059370  
O    10.5472330    0.7928030   -0.2067460  
C     8.5140460   -0.1799710   -1.0716190  
O     9.0659790   -0.5778240   -2.0855040  
C     7.0875070   -0.4104540   -0.8131990  
H     9.2238280    1.6607710    1.9134870  
H     6.5360390   -0.9718940   -1.5553200  
H     4.3740930    1.0055320    2.6880320  
H     6.7209700    1.7786960    3.1012530  
C    -5.8944050    0.8416820   -2.1289330  
C    -5.3538920    0.4185170   -0.9486860  
C    -6.4794430   -0.0124390   -0.1177520  
C    -7.7049980    0.1967350   -0.9264050  
N    -7.2803940    0.7317900   -2.1275260  
C    -8.9641090   -0.0928750   -0.5097200  
C    -9.1410290   -0.6358100    0.8331900  
O   -10.2326310   -0.9257690    1.2988220  
C    -7.8571750   -0.8449420    1.7174560  
O    -7.9831400   -1.2859290    2.8486510  
C    -6.5498460   -0.5003080    1.1460080  
H    -9.8471880    0.0655940   -1.1212130  
H    -5.6706910   -0.6689850    1.7572000  
H    -5.3839390    1.2086050   -3.0102950  
H    -7.8754730    0.9001110   -2.9235500  
