62


C    -0.6231040    1.7037260    0.1371400  
C    -1.6349230    0.7484480    0.1253750  
C    -1.0201630   -0.5287110    0.0451310  
C     0.3876250   -0.3161530    0.0084630  
N     0.5942270    1.0344470    0.0618620  
C     1.3328730   -1.3744270   -0.0473420  
C     0.7779310   -2.6633870   -0.0194300  
O     1.5822340   -3.7678480   -0.0697890  
C    -0.6224740   -2.8846010    0.0240930  
O    -0.9614310   -4.2194670    0.0086320  
C    -1.5493990   -1.8468190    0.0506180  
H    -2.6927560    0.9312920    0.2197630  
H     1.4659080    1.5224360    0.2332540  
H     0.9973370   -4.5477300   -0.0981220  
H    -1.9230210   -4.3009940   -0.1172680  
C    -4.9123660   -0.7703510   -2.7570200  
C    -3.6844180   -0.9016900   -2.1608490  
C    -3.8808420   -1.6529940   -0.9524720  
C    -5.2663810   -1.9550050   -0.8726100  
N    -5.8688610   -1.4016570   -1.9835680  
C    -5.8278040   -2.6945290    0.1755690  
C    -4.9721250   -3.1370960    1.1708920  
O    -5.4641800   -3.8451360    2.2268990  
C    -3.5817100   -2.8556080    1.1101310  
O    -2.8668380   -3.3559020    2.1808330  
C    -3.0092540   -2.1256170    0.0653350  
H    -2.7490920   -0.5147390   -2.5380640  
H    -6.8492710   -1.4692590   -2.2074120  
H    -6.8876650   -2.9188030    0.2394700  
H    -4.7216410   -4.0083450    2.8346560  
H    -1.9927920   -2.9309070    2.2057250  
H    -5.1897120   -0.2796890   -3.6793600  
C    -3.8779210    4.6647850   -0.5941850  
C    -3.1263450    3.5309030   -0.5502740  
C    -1.8283630    3.8881620   -0.0254180  
C    -1.8797580    5.3449290    0.2215510  
N    -3.1568950    5.7481110   -0.1144280  
C    -0.8549560    6.1085230    0.6915060  
C     0.4104900    5.4544600    0.9426720  
O     1.4037250    6.0195340    1.3751570  
C     0.5226030    3.9156740    0.6268870  
O     1.6375450    3.4145450    0.7073880  
C    -0.6883660    3.1478920    0.2364530  
H    -3.4398370    2.5587970   -0.8955350  
H    -0.9407340    7.1727340    0.8855430  
H    -4.8936960    4.8013230   -0.9402650  
H    -3.4774470    6.7035480   -0.0975960  
C     2.7685210   -1.1324790   -0.1384850  
C     3.4445100   -0.0095490   -0.5589010  
C     4.8554980   -0.2757800   -0.4719840  
C     4.9792910   -1.6633360    0.0386390  
N     3.6943440   -2.1121190    0.2424910  
C     6.1600210   -2.3033240    0.2411060  
C     7.3963800   -1.5883300   -0.0548930  
O     8.5048850   -2.0827080    0.0930360  
C     7.2892890   -0.1116340   -0.5895520  
O     8.3178950    0.4993730   -0.8422020  
C     5.9586410    0.4678230   -0.7658530  
H     3.0109090    0.8969860   -0.9513970  
H     6.2305880   -3.3205130    0.6141480  
H     5.8968100    1.4871020   -1.1350000  
H     3.4277210   -3.0672700    0.4295660  
