62


C     1.4845920   -0.0201910   -0.3732460  
C     0.6805140    1.0852960   -0.2945340  
C     1.5248520    2.1708520    0.1817070  
C     2.8277800    1.6546580    0.3699420  
N     2.7920600    0.2960290    0.0112640  
C     3.8678000    2.4241160    0.9048250  
C     3.5934170    3.7506250    1.2122430  
O     4.5788090    4.5373070    1.7219330  
C     2.2959270    4.2879320    1.0130250  
O     2.1797680    5.6119040    1.3716670  
C     1.2628700    3.5133480    0.5158600  
H     4.8531730    2.0289110    1.1184640  
H     4.1945830    5.4143860    1.8955990  
H     1.2664470    5.9095940    1.2437420  
H     0.2668090    3.9302420    0.3946100  
H     1.2586300   -1.0114600   -0.7358180  
C    -2.7881390   -1.4569050    0.9486460  
C    -1.5469390   -0.9145330    0.7876490  
C    -1.6749330    0.1845490   -0.1308060  
C    -3.0395250    0.2591390   -0.5037630  
N    -3.7174930   -0.7642350    0.1672950  
C    -3.5381510    1.2647330   -1.3371190  
C    -2.6320530    2.1933160   -1.8242850  
O    -3.0619450    3.1831960   -2.6588880  
C    -1.2601910    2.1262220   -1.4779210  
O    -0.4902240    3.1119820   -2.0668240  
C    -0.7531710    1.1386070   -0.6329230  
H    -0.6405940   -1.2585270    1.2649960  
H    -4.5761680    1.3258220   -1.6378720  
H    -2.2743040    3.6734340   -2.9515990  
H     0.4494850    2.9023560   -1.9419190  
H    -3.1093360   -2.3145710    1.5210390  
C    -6.6387850   -1.4400710    3.3596960  
C    -5.5146500   -1.1235180    2.6655240  
C    -5.8295000   -1.2527610    1.2582710  
C    -7.2469260   -1.6746950    1.1866450  
N    -7.6729100   -1.7829600    2.4958470  
C    -7.9513070   -1.8764700    0.0410000  
C    -7.2686250   -1.6734660   -1.2238460  
O    -7.8106370   -1.7726300   -2.3140850  
C    -5.7380780   -1.2983840   -1.1946160  
O    -5.1301220   -1.2417670   -2.2471320  
C    -5.0903750   -1.0575330    0.1207910  
H    -4.5681640   -0.8168890    3.0833890  
H    -8.9965170   -2.1680850    0.0255270  
H    -6.8049420   -1.4488040    4.4286750  
H    -8.6119250   -2.0205010    2.7743930  
C     3.8264440   -0.6186680    0.0210290  
C     3.7742340   -1.9754350    0.1904940  
C     5.1131980   -2.4801770    0.0430460  
C     5.9716670   -1.3014670   -0.2286680  
N     5.1420500   -0.1827170   -0.1734370  
C     7.2997160   -1.3597600   -0.4784050  
C     7.9532080   -2.6706910   -0.4480150  
O     9.1469630   -2.8155130   -0.6571900  
C     7.0727620   -3.9303840   -0.1174890  
O     7.6106450   -5.0277890   -0.0780090  
C     5.6452150   -3.7326630    0.1152520  
H     2.8972970   -2.5500060    0.4489670  
H     7.9110300   -0.4861860   -0.6837030  
H     5.0430880   -4.6116700    0.3237340  
H     5.3523100    0.6719000   -0.6708250  
