60


C     1.9257030   -0.4377480    0.1157670  
C     1.3935750    0.8403380    0.0292000  
C     2.5138960    1.7292820   -0.2351130  
C     3.6761970    0.9322720   -0.2946730  
N     3.2897830   -0.4060250   -0.0506690  
C     4.9309450    1.4529980   -0.6234850  
C     5.0142130    2.8200630   -0.8560100  
O     6.2172540    3.3783150   -1.1707710  
C     3.8605960    3.6374920   -0.7692070  
O     4.0999670    4.9725480   -1.0160180  
C     2.6162840    3.1094580   -0.4709950  
H     5.8224300    0.8450020   -0.7112640  
H     6.0636500    4.3273650   -1.3213840  
H     3.2622910    5.4594040   -0.9944700  
H     1.7262360    3.7284770   -0.4215360  
H     1.4278200   -1.3750660    0.3017910  
C     0.0109900    1.1774570    0.1779190  
C    -1.0836370    0.3449000    0.3215310  
C    -2.2236720    1.1961210    0.4274590  
C    -1.6543830    2.5799950    0.3265070  
N    -0.3601920    2.5648630    0.1829830  
C    -2.4852350    3.7532300    0.3733290  
C    -3.8163310    3.5597860    0.5004270  
O    -4.7208860    4.5443980    0.5482270  
C    -4.4310680    2.1756120    0.6151100  
O    -5.6560930    2.1511870    0.7657560  
C    -3.5786270    0.9791420    0.5667930  
H    -1.0837030   -0.7352250    0.2990510  
H    -2.0460640    4.7415710    0.2982820  
H    -5.5863780    4.0863080    0.6619270  
C    -3.6170760   -1.3401980    1.5149420  
C    -4.1688230   -0.3476820    0.7502670  
C    -5.3855150   -0.9216790    0.1608370  
C    -5.4708150   -2.3179880    0.6588750  
N    -4.3701210   -2.4995370    1.4741310  
C    -6.4517700   -3.2012230    0.3437990  
C    -7.5057810   -2.7697700   -0.5669570  
O    -8.4327870   -3.4886790   -0.9082020  
C    -7.4249960   -1.3073070   -1.1338630  
O    -8.2823560   -0.9268270   -1.9147730  
C    -6.3171390   -0.4444660   -0.7025220  
H    -6.4854130   -4.2160100    0.7284590  
H    -6.3019460    0.5689570   -1.0837530  
H    -2.7227240   -1.2962240    2.1215030  
H    -4.1672930   -3.3430770    1.9876280  
C     7.1221430   -1.2650890    1.9609770  
C     5.9606650   -0.6783900    1.5658170  
C     5.3070970   -1.5924940    0.6570310  
C     6.1852590   -2.7817620    0.5624990  
N     7.2776310   -2.5078260    1.3617120  
C     5.9213500   -3.9033360   -0.1595250  
C     4.6706240   -3.9654170   -0.8926780  
O     4.3171280   -4.9256510   -1.5590320  
C     3.6939810   -2.7326690   -0.8062830  
O     2.6147860   -2.8045020   -1.3670610  
C     4.1229730   -1.5391700   -0.0357460  
H     5.5977520    0.2894810    1.8734200  
H     6.5919900   -4.7552010   -0.2061210  
H     7.8772740   -0.8958840    2.6419750  
H     8.0385290   -3.1470510    1.5302080  
