60


C     3.6085160   -2.0020220    2.4952330  
C     2.3827390   -1.7442210    1.9759160  
C     2.2553990   -2.5156540    0.7556340  
C     3.5305030   -3.2613160    0.6100130  
N     4.3256240   -2.8743280    1.6739700  
C     3.8070230   -4.1493830   -0.3792790  
C     2.7896340   -4.3813060   -1.3930790  
O     2.9251150   -5.1752220   -2.3115800  
C     1.4532110   -3.5565990   -1.3054090  
O     0.6491350   -3.6639570   -2.2134110  
C     1.2336700   -2.6543170   -0.1433320  
H     1.6459280   -1.0672520    2.3779720  
H     4.7393760   -4.7019190   -0.4452190  
H     4.0664340   -1.6172950    3.3969940  
H     5.1723270   -3.3503470    1.9453420  
C     0.2898290    1.6467510    0.0124260  
C    -1.0954490    1.6123080    0.0165840  
C    -1.4597090    0.2417150   -0.0128840  
C    -0.1395040   -0.4932630   -0.0280790  
N     0.8654620    0.3336830   -0.0133610  
C    -0.0534750   -1.9375390   -0.0516770  
C    -1.2497730   -2.5952000   -0.0438040  
O    -1.3600600   -3.9194240   -0.0288420  
C    -2.5960710   -1.8927170   -0.0341070  
O    -3.5802290   -2.6332320   -0.0991410  
C    -2.6597660   -0.4336570    0.0085080  
H    -1.7723230    2.4540050    0.0273180  
H    -2.3321120   -4.0928110   -0.0672350  
C    -4.8352700    2.6640640   -2.4086840  
C    -3.8656180    1.8217400   -1.9766940  
C    -4.4247500    1.1717310   -0.7961700  
C    -5.7896950    1.7671050   -0.6724560  
N    -6.0236880    2.6372500   -1.6149460  
C    -6.7037820    1.3680110    0.3666110  
C    -6.2860540    0.4266580    1.2426870  
O    -7.0248880   -0.0332180    2.2664340  
C    -4.9068730   -0.1719970    1.1697990  
O    -4.5771700   -0.9265900    2.0796100  
C    -3.9793650    0.2108340    0.0565580  
H    -2.8885370    1.6499530   -2.4041250  
H    -7.6884140    1.8182830    0.4262990  
H    -6.4443980   -0.6679280    2.7409550  
H    -4.8068780    3.3242050   -3.2677680  
C     0.7815180    4.1087200    0.0843370  
C     1.1715510    2.7685030    0.0346540  
C     2.6254810    2.7733640    0.0138920  
C     3.0364540    4.1244700    0.0545440  
N     1.8837630    4.9038110    0.0971020  
C     4.3773710    4.5193370    0.0469320  
C     5.3313370    3.5126370   -0.0052400  
O     6.6549320    3.8321760   -0.0184950  
C     4.9370130    2.1492360   -0.0462930  
O     5.9942210    1.2636710   -0.0916290  
C     3.6072080    1.7686920   -0.0371470  
H     1.8672040    5.9127520    0.1283300  
H     4.6905740    5.5577810    0.0740040  
H     7.1527610    2.9987910   -0.0863400  
H     5.6527310    0.3649600   -0.2145680  
H     3.3101820    0.7255490   -0.0675720  
H    -0.2112410    4.5346050    0.1127400  
