58


C     2.0828320   -0.4335490    0.2035890  
C     3.3686240   -0.0435300   -0.0142880  
C     3.3415230    1.4146740   -0.1431740  
C     1.9259170    1.8273600   -0.0074570  
N     1.1830140    0.6421190    0.1911990  
C     1.5125400    3.1146920   -0.0073410  
C     2.5091370    4.1703970   -0.2152420  
O     2.2141360    5.3537680   -0.2286780  
C     4.0007290    3.7474160   -0.4322580  
O     4.8385410    4.6053980   -0.6523300  
C     4.3292670    2.3186210   -0.3518220  
H     0.4802970    3.4188420    0.1049930  
H     5.3730460    2.0379480   -0.4271690  
H     1.6957150   -1.4301370    0.3658130  
C    -1.0479820   -1.6245940    3.2433530  
C    -0.0156820   -1.0801060    2.5532790  
C    -0.6396210   -0.3115220    1.4844970  
C    -2.0952200   -0.5219200    1.6772060  
N    -2.3219480   -1.2931640    2.7069160  
C    -3.1127970    0.0850410    0.8130040  
C    -2.6298540    0.9247670   -0.1544960  
O    -3.4239770    1.6343700   -0.9861780  
C    -1.1856140    1.1505490   -0.3953880  
O    -0.8607580    1.8584040   -1.3504300  
C    -0.1725210    0.4999470    0.4978350  
H     1.0401700   -1.1577760    2.7702500  
H    -2.8136740    2.1043040   -1.5953860  
H    -1.0031030   -2.2490030    4.1271830  
C    -5.0769730   -0.4917700    2.2592460  
C    -4.5253370   -0.2042730    1.0321170  
C    -5.6190050   -0.3121840    0.0606030  
C    -6.8346530   -0.6504970    0.8435480  
N    -6.4277120   -0.7286250    2.1637700  
C    -8.0709190   -0.8531530    0.3258780  
C    -8.2395410   -0.7581700   -1.1215560  
O    -9.3120830   -0.9222670   -1.6813280  
C    -6.9644110   -0.4471020   -1.9813720  
O    -7.0695440   -0.3898170   -3.1963510  
C    -5.6840540   -0.2370350   -1.2945740  
H    -8.9373870   -1.1006330    0.9315830  
H    -4.8266270   -0.0027710   -1.9107460  
H    -4.5726780   -0.5548330    3.2111730  
H    -7.0291090   -0.9641910    2.9385340  
C     4.0187960   -3.6060420   -2.5065770  
C     5.2575440   -3.9607550   -2.0839220  
C     5.6648950   -2.9960320   -1.0828910  
C     4.5394690   -2.0382060   -0.9516940  
N     3.5603080   -2.4833890   -1.8165270  
C     4.5270710   -0.9391650   -0.1343780  
C     5.7346950   -0.7126090    0.6823210  
O     5.8419540    0.2226440    1.4585600  
C     6.9310420   -1.7288770    0.5667610  
O     7.9260170   -1.5319610    1.2443690  
C     6.8020640   -2.8595310   -0.3510050  
H     5.8374610   -4.8047760   -2.4275280  
H     7.6371310   -3.5490110   -0.4262120  
H     3.3865330   -4.0700220   -3.2519400  
H     2.7505500   -1.9378960   -2.0719330  
