58


C     5.4447510   -3.9015080   -1.9971890  
C     4.5976550   -2.9101370   -1.6104850  
C     5.2583430   -2.1513140   -0.5724980  
C     6.5837890   -2.7861610   -0.3895520  
N     6.6229180   -3.8530110   -1.2646580  
C     7.5466930   -2.3653090    0.4738220  
C     7.2707360   -1.1873080    1.2731450  
O     8.0635840   -0.7029350    2.0664090  
C     5.8714300   -0.4827720    1.1043400  
O     5.6558690    0.5093190    1.7807930  
C     4.8724110   -1.0447250    0.1575620  
H     3.6223860   -2.7142160   -2.0276050  
H     8.5083690   -2.8562500    0.5843040  
H     5.3106030   -4.6611660   -2.7556240  
H     7.4215180   -4.4526420   -1.4017900  
C     2.3631910   -1.1554090   -0.1039670  
C     3.5370280   -0.4723780    0.0714240  
C     3.1113730    0.9493800    0.1047930  
C     1.6332820    0.8916480   -0.0857810  
N     1.2146020   -0.3422490   -0.1910050  
C     0.8043330    2.0816520   -0.1488250  
C     1.4546960    3.2755480   -0.0286660  
O     0.8355130    4.4603100   -0.0254370  
C     2.9426860    3.3641080    0.1498260  
O     3.4366760    4.4857220    0.2431330  
C     3.7497800    2.1285760    0.2136500  
H     1.5508170    5.1314970    0.0464820  
H     4.8144570    2.2391060    0.3757960  
H     2.2371380   -2.2303940   -0.1440460  
C    -2.5694400    0.0608730    1.9421920  
C    -1.3582820    0.5329270    1.5738340  
C    -1.5294300    1.3037870    0.3553100  
C    -2.9703430    1.2526540    0.0250140  
N    -3.5547550    0.4782830    1.0266400  
C    -3.5656860    1.8673520   -1.0242490  
C    -2.7181040    2.6501860   -1.9159320  
O    -3.1489050    3.2748960   -2.8712750  
C    -1.1726610    2.6862570   -1.6298140  
O    -0.4498780    3.2477120   -2.4314590  
C    -0.6449640    2.0048220   -0.4148990  
H    -0.4230160    0.3529960    2.0799520  
H    -4.6306420    1.8165560   -1.2235950  
H    -2.8632680   -0.5549570    2.7811640  
C    -5.8535530    0.9617740    1.7471280  
C    -7.0666840    0.3679670    1.6731210  
C    -6.9049970   -0.8839110    0.9543240  
C    -5.4706530   -0.9847090    0.5988040  
N    -4.8800570    0.1727700    1.1082730  
C    -4.9026990   -2.0126140   -0.0735760  
C    -5.7677450   -3.1193930   -0.4868330  
O    -5.3535920   -4.0954560   -1.0900980  
C    -7.2975070   -3.0382510   -0.1283950  
O    -8.0334660   -3.9510020   -0.4649980  
C    -7.7801290   -1.8617360    0.6051900  
H    -7.9927580    0.7541630    2.0739640  
H    -3.8472940   -2.0557340   -0.3209060  
H    -8.8375090   -1.8179010    0.8479570  
H    -5.5519590    1.8986120    2.1957460  
