60


C    -0.6996270   -0.1467440   -1.6121620  
C    -0.2946310   -1.0005280   -0.5975340  
C    -1.5054670   -1.4166200    0.0829310  
C    -2.5890620   -0.7791020   -0.5661650  
N    -2.0683950   -0.0251130   -1.6000450  
C    -3.9349880   -0.9075620   -0.1611740  
C    -4.1578660   -1.7141790    0.9546220  
O    -5.4278830   -1.9107860    1.4047770  
C    -3.0815990   -2.3596860    1.6202790  
O    -3.4842000   -3.1268850    2.6945480  
C    -1.7728790   -2.2258080    1.2044630  
H    -2.6157960    0.5614400   -2.2109190  
H    -5.3726540   -2.5203090    2.1623730  
H    -2.7400110   -3.6615240    3.0098710  
H    -0.9751150   -2.7578020    1.7114580  
H    -0.1136030    0.3171800   -2.3938490  
C     3.2607360    1.5026050   -0.4233260  
C     4.2419020    0.5660520   -0.2029320  
C     3.5569840   -0.7290340   -0.1221160  
C     2.1205050   -0.4482280   -0.3293670  
N     2.0232900    0.9206990   -0.5344980  
C     1.0968660   -1.3580680   -0.3080600  
C     1.4918910   -2.7468240    0.0103220  
O     0.6921160   -3.6638850    0.1022800  
C     3.0141200   -3.0692260    0.2516430  
O     3.3200610   -4.2179890    0.5315210  
C     3.9898020   -1.9891920    0.1488800  
H     5.0335380   -2.2399990    0.2890550  
H     3.3754470    2.5710930   -0.5476120  
H     1.1412300    1.4059410   -0.6136210  
C     6.4870400    3.8566200    1.8084180  
C     5.4788240    3.0311010    1.4323530  
C     6.1127100    1.9983990    0.6176930  
C     7.5517150    2.3749870    0.6258480  
N     7.7654730    3.4636800    1.3138380  
C     8.5508340    1.5881560   -0.0520410  
C     8.1404600    0.4743260   -0.6982590  
O     8.9625800   -0.3623000   -1.3563300  
C     6.6935950    0.0688710   -0.7418600  
O     6.4175300   -0.9430680   -1.3822390  
C     5.6543780    0.9002700   -0.0506100  
H     4.4360440    3.0917050    1.7090720  
H     9.5918910    1.8899170   -0.0229810  
H     8.3833050   -1.0587090   -1.7344090  
H     6.4249050    4.7404270    2.4322750  
C    -5.3280890   -0.3662330   -2.2099260  
C    -5.0338390   -0.2409360   -0.8835670  
C    -6.0095480    0.7026550   -0.3376190  
C    -6.8857760    1.1039210   -1.4646740  
N    -6.4043970    0.4372750   -2.5753550  
C    -7.9308640    1.9640960   -1.3601450  
C    -8.2133360    2.5544890   -0.0557260  
O    -9.1279480    3.3409520    0.1380520  
C    -7.2825860    2.1593510    1.1497690  
O    -7.4920160    2.6547210    2.2454740  
C    -6.1917720    1.2075570    0.9081270  
H    -8.5636650    2.2408070   -2.1979350  
H    -5.5695060    0.9246560    1.7500130  
H    -4.8522880   -0.9982440   -2.9491590  
H    -6.8600500    0.4186460   -3.4743720  
