58


C    -2.7875600   -1.3787020    0.0646360  
C    -3.8628220   -0.5390070   -0.0310340  
C    -3.3071390    0.8145440   -0.1115660  
C    -1.8336330    0.6625890   -0.0144280  
N    -1.5868960   -0.6893170    0.1225320  
C    -0.9277770    1.6950830   -0.0242290  
C    -1.4981610    3.0284320   -0.3489980  
O    -0.8161110    3.9764530   -0.6943460  
C    -3.0518340    3.2208750   -0.2943570  
O    -3.4998980    4.3552100   -0.3272170  
C    -3.8977650    2.0313510   -0.2162330  
H    -4.9715940    2.1666950   -0.2644640  
H    -2.7834010   -2.4615320    0.0822080  
H    -0.6910610   -1.0533290   -0.2160340  
C     2.1406100   -1.2241950   -1.4264870  
C     3.3048010   -0.6142560   -1.0646260  
C     2.8659060    0.5979700   -0.3429580  
C     1.3700570    0.5545720   -0.3984640  
N     0.9768790   -0.5302000   -1.0180290  
C     0.5300010    1.5939240    0.1728750  
C     1.2062150    2.5480220    0.8975610  
O     0.5970950    3.4922190    1.6179850  
C     2.6997510    2.6257190    0.9573880  
O     3.2059180    3.5398860    1.6059550  
C     3.5133370    1.6045130    0.2671170  
H     1.3117310    4.0675900    1.9707880  
H     4.5919970    1.7075990    0.3206680  
H     2.0307410   -2.1627060   -1.9559640  
C     5.1115370   -1.5746770   -2.5431060  
C     4.6560670   -1.0371980   -1.3724810  
C     5.8419480   -1.0572010   -0.4875450  
C     6.9219230   -1.6410280   -1.3388030  
N     6.4802470   -1.9422050   -2.5297830  
C     8.2551360   -1.8405530   -0.8388950  
C     8.5063980   -1.5105820    0.4515890  
O     9.7013950   -1.6474630    1.0457400  
C     7.4320370   -0.9585400    1.3456950  
O     7.7279020   -0.6926400    2.5081190  
C     6.0690610   -0.7542050    0.8040250  
H     9.0189710   -2.2547760   -1.4875100  
H     9.5767920   -1.3377680    1.9693460  
H     5.3232320   -0.3684160    1.4918470  
H     4.5436890   -1.7158880   -3.4552580  
C    -6.0964650   -3.2166130    2.6286680  
C    -7.3100290   -3.1911080    2.0206640  
C    -7.1997800   -2.3156040    0.8725420  
C    -5.7998630   -1.8310600    0.8584420  
N    -5.1728500   -2.4456380    1.9287400  
C    -5.2734140   -0.9435770   -0.0412690  
C    -6.1968950   -0.4526740   -1.0854650  
O    -5.8534680    0.3284510   -1.9572840  
C    -7.6864460   -0.9671190   -1.0925130  
O    -8.4396310   -0.5419790   -1.9543630  
C    -8.1012320   -1.9170340   -0.0657660  
H    -8.1964650   -3.7242810    2.3319540  
H    -9.1303890   -2.2619990   -0.0777110  
H    -5.7864830   -3.7447320    3.5208580  
H    -4.2688590   -2.1620020    2.2764580  
