58


C     0.8840980   -1.4327480   -0.7009950  
C     2.2289620   -1.2202650   -0.6679090  
C     2.4498680    0.0968410   -0.1351020  
C     1.1055980    0.6544060    0.1287880  
N     0.1811170   -0.3373540   -0.2109290  
C     0.8603560    1.8798970    0.6533990  
C     1.9992270    2.7442720    0.9227790  
O     1.9000120    3.8486470    1.4311010  
C     3.4298420    2.2295170    0.5374100  
O     4.3473120    3.0379310    0.5988780  
C     3.6050420    0.8170750    0.1242710  
H     2.9776000   -1.8998400   -1.0415810  
H    -0.1331710    2.2538890    0.8696160  
H     0.3345780   -2.2893290   -1.0677860  
C    -2.8412050   -2.8073420    1.7606040  
C    -1.6676820   -2.2406010    1.3648120  
C    -2.0000160   -1.1172250    0.5219460  
C    -3.4766940   -1.0670100    0.4581940  
N    -3.9252440   -2.1113960    1.2524560  
C    -4.2161010   -0.1643810   -0.2515140  
C    -3.4530620    0.8777640   -0.9770930  
O    -3.9835140    1.8391500   -1.4982050  
C    -1.8854270    0.7870780   -1.0200270  
O    -1.2705930    1.5450080   -1.7478010  
C    -1.2269030   -0.2237950   -0.1726890  
H    -0.6761590   -2.5639590    1.6437830  
H    -3.0029200   -3.6690030    2.3948870  
H    -4.8881580   -2.4084280    1.3007670  
C    -7.3345230    0.1982780    2.8678830  
C    -8.4385000    0.1298640    2.0850040  
C    -7.9905990   -0.0375350    0.7162870  
C    -6.5091170   -0.0667330    0.7702910  
N    -6.1710720    0.0325210    2.1094660  
C    -5.6853750   -0.1595820   -0.3168300  
C    -6.3396170   -0.2877900   -1.6395250  
O    -5.7090630   -0.4828700   -2.6624880  
C    -7.9075890   -0.2382230   -1.7132770  
O    -8.4442080   -0.3006270   -2.8064850  
C    -8.6607680   -0.1284850   -0.4623980  
H    -9.4653120    0.1919880    2.4148710  
H    -9.7440950   -0.0986360   -0.5262650  
H    -7.2578780    0.3358750    3.9383700  
H    -5.2478520    0.2894240    2.4278180  
C     4.9410810    0.2594160    0.0067340  
C     5.3542320   -1.0595450    0.0283150  
C     6.7856350   -1.0799950   -0.0639750  
C     7.2125570    0.3398910   -0.1388880  
N     6.0585640    1.0887890   -0.1067880  
C     8.5061510    0.7444670   -0.2208700  
C     9.5530340   -0.2724290   -0.2401770  
O    10.7432120   -0.0037680   -0.3107990  
C     9.1225730   -1.7842900   -0.1657950  
O     9.9878280   -2.6482720   -0.1819000  
C     7.6969470   -2.0950170   -0.0784480  
H     4.7266160   -1.9250680    0.1685200  
H     8.8013730    1.7877220   -0.2728710  
H     7.4110970   -3.1413610   -0.0249490  
H     5.9806980    2.0925550   -0.0002520  
