58


C    -0.8380420   -0.8330190   -0.0302880  
C    -0.8647230   -2.2055110   -0.1057360  
C    -2.2368270   -2.6017170   -0.2258980  
C    -3.0447670   -1.3480450   -0.2091070  
N    -2.1404630   -0.3313370   -0.0552490  
C    -4.4278950   -1.2919870   -0.2711550  
C    -5.0917730   -2.5987470   -0.3797440  
O    -6.3123540   -2.7478110   -0.3878360  
C    -4.2461610   -3.9251630   -0.4636000  
O    -4.8462940   -4.9800080   -0.6015670  
C    -2.8026270   -3.8354220   -0.3437910  
H    -0.0126530   -2.8690290   -0.0782700  
H    -2.2228160   -4.7525630   -0.3669670  
H    -2.3263060    0.6334050   -0.3043590  
C     0.2664640    0.0811960    0.0585740  
C     1.6157180   -0.1866860    0.0908870  
C     2.2589840    1.0941180    0.1650140  
C     1.1259670    2.0764240    0.1457070  
N    -0.0300220    1.4757280    0.0934540  
C     1.3453120    3.4937510    0.1634140  
C     2.6284040    3.9249140    0.1931950  
O     2.9819500    5.2130760    0.2168350  
C     3.8058420    2.9731530    0.2449150  
O     4.9115990    3.4851010    0.3706660  
C     3.5710980    1.4994670    0.2044540  
H     2.0963940   -1.1520150    0.0394280  
H     0.5041580    4.1774670    0.1464430  
H     3.9645160    5.2165560    0.2733990  
C     4.7043110    0.5934100    0.2352640  
C     4.7817260   -0.6210190    0.8672460  
C     6.1118890   -1.1199870    0.5916690  
C     6.7298110   -0.0582640   -0.2647460  
N     5.9165730    0.9360990   -0.4639870  
C     8.0700020   -0.1908630   -0.7765950  
C     8.7656360   -1.3030570   -0.4408870  
O    10.0205780   -1.5546240   -0.8374300  
C     8.1739010   -2.3828560    0.4330730  
O     8.8784370   -3.3584950    0.6858360  
C     6.7980560   -2.2326930    0.9355920  
H     4.0383390   -1.0837430    1.5005990  
H     8.4928570    0.5889650   -1.3998330  
H    10.2534230   -2.4232860   -0.4405430  
H     6.4045930   -3.0336950    1.5540360  
C    -8.2252500   -0.1428020    1.7607080  
C    -8.2803430    1.1683830    1.4200000  
C    -7.1334700    1.4361130    0.5814430  
C    -6.3852940    0.1511780    0.4766410  
N    -7.0810710   -0.7513960    1.2495270  
C    -5.2068570   -0.0316780   -0.2221710  
C    -4.7429990    1.1537640   -0.9669200  
O    -3.7423610    1.1523040   -1.6756410  
C    -5.5243810    2.5182420   -0.8633460  
O    -5.0804310    3.4789600   -1.4715700  
C    -6.7213500    2.5712220   -0.0404020  
H    -9.0340360    1.8848160    1.7123860  
H    -7.2515530    3.5150750    0.0383520  
H    -8.9135560   -0.7269000    2.3575860  
H    -7.0196400   -1.7416420    1.0267250  
