58


C     2.2398930   -0.1721850   -0.3118430  
C     3.6006230   -0.1614330   -0.2407060  
C     4.0109260   -1.5423890    0.0078920  
C     2.7750030   -2.3560630    0.0562610  
N     1.7031300   -1.4545290   -0.1390420  
C     2.7662730   -3.6938280    0.2643100  
C     4.0496230   -4.3818690    0.4559370  
O     4.1242740   -5.5866860    0.6304490  
C     5.3624160   -3.5316910    0.4410940  
O     6.4387940   -4.0773960    0.6191430  
C     5.2355380   -2.0894360    0.2070750  
H     1.8528210   -4.2704850    0.2984170  
H     6.1477100   -1.5028940    0.2227500  
H     1.5736440    0.6521960   -0.5125610  
C     0.3499910   -1.7126010   -0.1730510  
C    -0.6768300   -0.8004000   -0.3433550  
C    -1.8708430   -1.5779590   -0.2956350  
C    -1.3909580   -2.9774780   -0.0819780  
N    -0.0844800   -3.0418570   -0.0188480  
C    -2.2840960   -4.0910050    0.0493110  
C    -3.6078130   -3.8187400   -0.0022280  
O    -4.5673160   -4.7374940    0.1228090  
C    -4.1435230   -2.4099500   -0.2099260  
O    -5.3731320   -2.3190070   -0.2398170  
C    -3.2195460   -1.2741240   -0.3796750  
H    -0.6106010    0.2707920   -0.4457860  
H    -1.8997390   -5.0935760    0.1976820  
H    -5.4139030   -4.2407920    0.0341200  
C    -3.1082380    0.9833310   -1.4880070  
C    -3.7256840    0.0505500   -0.6907020  
C    -4.9508320    0.7501730   -0.2259540  
C    -4.8605030    2.0962320   -0.8625540  
N    -3.7874140    2.2079280   -1.6047690  
C    -5.8539980    3.1120170   -0.6555740  
C    -6.8917180    2.8249830    0.1678900  
O    -7.8864580    3.6760950    0.4568750  
C    -7.0048390    1.4878690    0.8428390  
O    -7.9677970    1.2984400    1.5830260  
C    -5.9736170    0.4544420    0.5980820  
H    -5.7510780    4.0745260   -1.1440330  
H    -8.4768240    3.1910350    1.0747290  
H    -6.1161580   -0.5027040    1.0832460  
H    -2.1931190    0.8445470   -2.0501670  
C     5.7270300    1.0062430   -0.9406420  
C     4.4705470    0.9920030   -0.3943750  
C     4.1707310    2.3759220   -0.0240630  
C     5.3564260    3.1785250   -0.4121410  
N     6.2582880    2.2822660   -0.9563010  
C     5.4748430    4.5175410   -0.2353400  
C     4.3648560    5.2369660    0.3869930  
O     4.3747060    6.4424610    0.5756400  
C     3.1098140    4.4053160    0.8350780  
O     2.1793300    4.9769200    1.3779620  
C     3.1042740    2.9583540    0.5813280  
H     6.3549610    5.0830040   -0.5254900  
H     2.2348030    2.4027460    0.9165790  
H     6.2917100    0.1854240   -1.3606990  
H     7.1652860    2.5269630   -1.3227910  
