58


C    -2.3551980    3.9772050    2.3127390  
C    -1.3554780    3.1622630    1.8913470  
C    -0.7851360    3.7554210    0.7025980  
C    -1.5455950    5.0100630    0.4662030  
N    -2.4823720    5.0826630    1.4759740  
C    -1.3106310    5.8864180   -0.5439540  
C    -0.2396350    5.5816750   -1.4791950  
O     0.0682450    6.3108820   -2.4099330  
C     0.5582990    4.2409360   -1.2832810  
O     1.3873630    3.9357330   -2.1227170  
C     0.2492110    3.3817740   -0.1121870  
H    -1.0618790    2.2264050    2.3386670  
H    -1.8710530    6.8061490   -0.6806780  
H    -3.0178920    3.8668720    3.1607790  
H    -3.1486460    5.8297520    1.5899900  
C    -0.9466980   -0.8530040    0.0522560  
C     0.2811200   -1.4766980    0.1067450  
C     1.2590700   -0.4206610    0.1151640  
C     0.4422010    0.8313450    0.0621460  
N    -0.8329990    0.5713660    0.0211230  
C     1.0459620    2.1528020    0.0652260  
C     2.4059400    2.1845010    0.1623640  
O     3.1089850    3.3191100    0.2240540  
C     3.2605510    0.9472660    0.1884790  
O     4.4755860    1.1091460    0.1445280  
C     2.6236670   -0.4039660    0.1908640  
H     0.4785820   -2.5370860    0.1773220  
H     4.0541780    3.0492260    0.2124990  
C     2.9492960   -3.8945680   -2.4971840  
C     3.9803100   -4.5407260   -1.8973730  
C     4.3573150   -3.7619860   -0.7357450  
C     3.4430400   -2.5934820   -0.7065380  
N     2.6153380   -2.7376040   -1.7958960  
C     3.4972860   -1.5781260    0.2148620  
C     4.4948740   -1.7182310    1.3002010  
O     4.5345750   -0.9638550    2.2553000  
C     5.4935630   -2.9280790    1.2559990  
O     6.3643060   -3.0006970    2.1072030  
C     5.3325910   -3.9255330    0.1975020  
H     4.4430640   -5.4597440   -2.2256930  
H     6.0235860   -4.7628390    0.1833070  
H     2.3986440   -4.1548200   -3.3912940  
H     1.8824110   -2.0906870   -2.0463870  
C    -2.2439560   -1.4793170    0.0421020  
C    -2.5239690   -2.8252530    0.0723360  
C    -3.9610450   -2.9283710    0.0476810  
C    -4.4277320   -1.5036030    0.0001530  
N    -3.4339440   -0.6675800   -0.0020310  
C    -5.8309960   -1.1745000   -0.0361550  
C    -6.7184020   -2.1963530   -0.0244810  
O    -8.0495530   -2.0406260   -0.0541040  
C    -6.2768520   -3.6411080    0.0240080  
O    -7.1585560   -4.5000860    0.0308200  
C    -4.8430110   -3.9563280    0.0599090  
H    -1.8235920   -3.6480940    0.1113970  
H    -6.1439190   -0.1370930   -0.0728080  
H    -8.4181660   -2.9522280   -0.0365690  
H    -4.5648630   -5.0052440    0.0953290  
