64


C     0.0241420    1.6075360    0.1074810  
C    -1.1405600    0.8576770    0.2412120  
C    -0.7834900   -0.5271810    0.1979400  
C     0.6314360   -0.5737110    0.0594160  
N     1.0799190    0.7241770   -0.0183370  
C     1.3768240   -1.7732650    0.0128120  
C     0.6027190   -2.9284180    0.1215840  
O     1.2071680   -4.1653580    0.0745150  
C    -0.8057830   -2.9208980    0.2636360  
O    -1.3558030   -4.1781590    0.3305830  
C    -1.5431600   -1.7338980    0.2674430  
H    -2.1179750    1.2475720    0.4817990  
H     2.0495660    1.0116730   -0.0192890  
H     0.4821130   -4.8088920    0.2174080  
H    -2.0760480   -4.1423960    1.0076410  
C    -2.8496540    4.8538440   -0.7838440  
C    -2.0054920    5.9090170   -0.5659150  
C    -0.7289280    5.3595450   -0.2059180  
C    -0.8640680    3.9467980   -0.2098120  
N    -2.1728030    3.6697980   -0.5520540  
C     0.2027110    3.0585820    0.0813860  
C     1.4345310    3.6764150    0.3387910  
O     2.5404490    2.9103760    0.5993980  
C     1.5805690    5.0840810    0.3517330  
O     2.8666860    5.5007750    0.6462160  
C     0.5214110    5.9318880    0.0953230  
H    -2.2585340    6.9569190   -0.6497630  
H    -2.5172970    2.7490420   -0.7721220  
H     3.2849150    3.5140190    0.7670460  
H     2.8998620    6.4685330    0.6517440  
H     0.6571000    7.0111650    0.1112300  
H    -3.8910440    4.8396000   -1.0732030  
C    -4.3678430    0.4201040   -2.3047900  
C    -5.5450380    0.0813760   -1.7183560  
C    -5.2344610   -0.8059640   -0.6164660  
C    -3.7582290   -0.9460490   -0.6012130  
N    -3.2984170   -0.1832120   -1.6504780  
C    -3.0228140   -1.7091420    0.2802430  
C    -3.8263400   -2.5279020    1.1899530  
O    -3.3613170   -3.4254040    1.8951250  
C    -5.3834920   -2.3059960    1.2811580  
O    -5.9954580   -2.8875090    2.1625140  
C    -6.0193860   -1.4446870    0.2927690  
H    -6.5323010    0.3926620   -2.0268150  
H    -7.0982570   -1.3336890    0.3289010  
H    -4.1833720    1.0467510   -3.1677190  
H    -2.3185090   -0.0349050   -1.8452300  
C     4.7390020    0.2966290    2.1943860  
C     3.5109600   -0.1773700    1.8131980  
C     3.7139930   -1.0151260    0.6602820  
C     5.1111120   -1.0170590    0.4001890  
N     5.7057460   -0.1967050    1.3372310  
C     5.7001010   -1.7718850   -0.6206030  
C     4.8541890   -2.5656620   -1.3769470  
O     5.3529330   -3.3508200   -2.3718430  
C     3.4528210   -2.5867690   -1.1411660  
O     2.7549410   -3.4163090   -1.9969780  
C     2.8505270   -1.8005540   -0.1562340  
H     2.5735410    0.0381300    2.3044840  
H     6.6987150   -0.0543030    1.4332420  
H     6.7682160   -1.7762600   -0.8130210  
H     4.5812480   -3.8300980   -2.7307330  
H     2.1393680   -3.9514900   -1.4497760  
H     5.0109200    0.9451120    3.0153710  
