58


C     3.8475780    0.5635360   -0.0765960  
C     2.7486780    1.4017100    0.0093940  
C     3.2156530    2.7357830    0.2211930  
C     4.6974360    2.6519590    0.2553150  
N     5.0094090    1.3221970    0.0822150  
C     5.5149390    3.7220790    0.4262670  
C     4.9113090    5.0423180    0.5921430  
O     5.5693290    6.0594400    0.7512750  
C     3.3422400    5.1531110    0.5634390  
O     2.8205750    6.2516520    0.7035450  
C     2.5712020    3.9311440    0.3693600  
H     1.7205870    1.1102070   -0.1274270  
H     6.5977190    3.6478430    0.4464390  
H     1.4886080    4.0182080    0.3473880  
H     5.9277690    0.9237070   -0.0616620  
C     0.8404350   -2.7931400    0.0885700  
C     1.4505850   -1.5430590    0.2183360  
C     2.7870330   -1.7028130   -0.2169020  
C     2.8645180   -3.1504900   -0.6170030  
N     1.7358400   -3.7734060   -0.4434010  
C     4.0741390   -3.7325000   -1.1237590  
C     5.1756700   -2.9474880   -1.1586220  
O     6.3793060   -3.3703480   -1.5624220  
C     5.1530160   -1.4986480   -0.7300820  
O     6.2473420   -0.9163740   -0.7714790  
C     3.8905570   -0.8628060   -0.3193510  
H     1.0338130   -0.6787520    0.7075850  
H     4.0949300   -4.7740290   -1.4233720  
H     6.9784010   -2.5971640   -1.4608280  
C    -2.9642300   -0.4432620    0.2484430  
C    -1.6426700   -0.8513980    0.1239370  
C    -1.5665130   -2.2417120    0.4016150  
C    -2.9515750   -2.6704260    0.6794310  
N    -3.7491980   -1.5410280    0.5578350  
C    -3.3445140   -3.9378570    0.9540350  
C    -2.3264830   -4.9864900    0.9569350  
O    -2.5996700   -6.1655310    1.1017470  
C    -0.8270300   -4.5647110    0.7888570  
O     0.0174160   -5.3913350    1.0692960  
C    -0.5084670   -3.1592780    0.3961300  
H    -0.8369310   -0.2212270   -0.2158930  
H    -4.3791080   -4.2208920    1.1234800  
H    -4.7022850   -1.4879360    0.8851160  
C    -2.8137200    2.0468880    0.2461570  
C    -3.5221300    0.8744220    0.1000190  
C    -4.9014530    1.2603290   -0.2037130  
C    -4.9186460    2.7431380   -0.2038400  
N    -3.6138850    3.1410680    0.0679490  
C    -6.0092190    3.5083030   -0.4389940  
C    -7.2806840    2.8340650   -0.7205520  
O    -8.3174950    3.4387840   -0.9284300  
C    -7.2853140    1.2657910   -0.7614390  
O    -8.3228090    0.6781400   -1.0120170  
C    -6.0260570    0.5554490   -0.4922430  
H    -5.9918160    4.5936830   -0.4394860  
H    -6.0553040   -0.5265570   -0.5667870  
H    -1.7686510    2.1719260    0.4970250  
H    -3.3125550    4.1000800    0.1652060  
