58


C    -2.1871070   -0.5504530   -0.5520570  
C    -2.8459750    0.5969630   -0.2250720  
C    -1.9428140    1.3475570    0.6490890  
C    -0.7455470    0.4905310    0.8434900  
N    -0.9397260   -0.6588110    0.0612520  
C     0.2843300    0.7950650    1.6710960  
C     0.2545030    2.0699110    2.3870190  
O     1.1542440    2.4270900    3.1319160  
C    -0.9824220    3.0064660    2.1675510  
O    -1.0280950    4.0740050    2.7559380  
C    -2.0500670    2.5496580    1.2683730  
H     1.1333440    0.1429770    1.8354380  
H    -2.9020670    3.2027810    1.1242830  
H    -2.5049240   -1.3322630   -1.2239070  
C     3.3347050   -1.8266740   -0.2695620  
C     2.1342980   -1.1319390   -0.2735520  
C     1.0884690   -2.0424770    0.0412240  
C     1.7251740   -3.3619680    0.2394390  
N     3.0739300   -3.1725440    0.0085880  
C     1.0683370   -4.5043580    0.5659570  
C    -0.3775890   -4.4514350    0.7071600  
O    -1.0711460   -5.4218970    0.9667350  
C    -1.0994290   -3.0732750    0.4820150  
O    -2.3234060   -3.0409900    0.5892500  
C    -0.2799490   -1.8976810    0.1661540  
H     2.0093930   -0.0945990   -0.5397470  
H     1.5633650   -5.4592360    0.7087900  
H     3.7834530   -3.8394240    0.2726590  
C    -6.2372410   -2.1358880   -0.1971220  
C    -7.2120500   -1.3136360   -0.6654950  
C    -6.6044210   -0.0222120   -0.8993820  
C    -5.1744870   -0.1668750   -0.5314810  
N    -5.0165190   -1.4743110   -0.1231250  
C    -4.2411280    0.8438470   -0.5855870  
C    -4.7203660    2.1629600   -1.0262720  
O    -3.9943450    3.1432260   -1.0943720  
C    -6.2308770    2.3250330   -1.4383940  
O    -6.6137320    3.4209800   -1.8166930  
C    -7.1087160    1.1625870   -1.3412180  
H    -8.2491950   -1.5689460   -0.8260440  
H    -8.1505610    1.2907010   -1.6180360  
H    -6.2955980   -3.1741910    0.1014860  
H    -4.1605560   -1.8824840    0.2409000  
C     5.7734860   -2.1392610   -0.8177290  
C     4.6593510   -1.3744980   -0.5341390  
C     5.1572280    0.0139110   -0.5865220  
C     6.5990610   -0.1398190   -0.9360990  
N     6.9329830   -1.4080920   -1.0605890  
C     7.4710650    0.9826870   -1.0823390  
C     6.9467840    2.2197330   -0.8768020  
O     7.6417590    3.3544210   -0.9872110  
C     5.5017130    2.4125570   -0.4976790  
O     5.1026230    3.5613920   -0.3324030  
C     4.6286930    1.2290070   -0.3423490  
H     8.5125260    0.8324150   -1.3431380  
H     7.0114060    4.0795070   -0.7767100  
H     3.6088990    1.4171340   -0.0240040  
H     5.8205470   -3.2200450   -0.8983990  
