60


C    -0.4663980   -1.4635760   -0.7163510  
C    -0.8535100   -2.6811120   -1.2219970  
C    -2.2006440   -2.9046820   -0.7819750  
C    -2.5804410   -1.7694300   -0.0229010  
N    -1.5097180   -0.9001420    0.0035770  
C    -3.8520250   -1.6426750    0.5608650  
C    -4.7476270   -2.6978100    0.3867740  
O    -5.9849990   -2.6263720    0.9440730  
C    -4.3710510   -3.8430260   -0.3620090  
O    -5.3650720   -4.7956770   -0.4360880  
C    -3.1241630   -3.9549910   -0.9494960  
H    -0.2570550   -3.3219900   -1.8556670  
H    -1.4515540   -0.0570870    0.5547760  
H    -6.4671130   -3.4310870    0.6830990  
H    -5.1050740   -5.4980110   -1.0505800  
H    -2.8630840   -4.8430510   -1.5203590  
C     1.9985020   -1.5146470   -0.6654140  
C     3.0665740   -0.6785340   -0.7681810  
C     2.5221580    0.6632640   -0.9680550  
C     1.0468680    0.5233900   -0.9854010  
N     0.7798700   -0.8349620   -0.7874240  
C     0.1863960    1.5538520   -1.1836120  
C     0.7401500    2.8976850   -1.3712230  
O     0.0397980    3.8821980   -1.5362170  
C     2.3001800    3.0644050   -1.3614880  
O     2.7832870    4.1708110   -1.5323690  
C     3.1225580    1.8657200   -1.1536830  
H    -0.8912920    1.4423340   -1.2340130  
H     4.2008750    1.9870300   -1.1629430  
H     1.9828130   -2.5792710   -0.4762410  
C     5.0814270   -2.0227370   -1.4722560  
C     4.4765790   -1.0638630   -0.7123330  
C     5.5048620   -0.5439550    0.1884870  
C     6.7497350   -1.2873950   -0.1263120  
N     6.4168050   -2.1780510   -1.1305530  
C     7.9415650   -1.0901240    0.4907350  
C     8.0151080   -0.0922090    1.5553390  
O     9.0422250    0.1542410    2.1674320  
C     6.7006100    0.6852330    1.9290790  
O     6.7322800    1.5034150    2.8331620  
C     5.4760930    0.3904280    1.1734210  
H     8.8423890   -1.6425470    0.2415540  
H     4.5788560    0.9407310    1.4374890  
H     4.6515520   -2.6230860   -2.2634840  
H     7.0718230   -2.7779870   -1.6072690  
C    -4.5456140   -0.4464320    2.6540790  
C    -5.0032120    0.7734470    3.0259380  
C    -5.0273370    1.6071500    1.8421690  
C    -4.5336920    0.7570200    0.7309730  
N    -4.2201470   -0.4821810    1.2903010  
C    -4.4409330    1.1597360   -0.5613170  
C    -4.8576940    2.5218340   -0.8950400  
O    -4.8415490    2.9590300   -2.0346830  
C    -5.3572350    3.4503800    0.2714430  
O    -5.6972170    4.5941200    0.0143970  
C    -5.4084390    2.8936390    1.6268540  
H    -5.3035080    1.0690790    4.0207840  
H    -4.1077640    0.5114770   -1.3649860  
H    -5.7745710    3.5372870    2.4210480  
H    -4.4010840   -1.3405110    3.2451600  
