62


C     1.3250380   -1.6248380   -3.0286750  
C     0.2244790   -1.0775280   -2.4261010  
C     0.6919650   -0.3957750   -1.2526530  
C     2.0978610   -0.5740910   -1.1905270  
N     2.4507330   -1.3396570   -2.2780050  
C     2.9213790    0.0101910   -0.1946930  
C     2.2525100    0.8348640    0.7232410  
O     2.9433770    1.4759650    1.7098740  
C     0.8458620    0.9980350    0.7086480  
O     0.3540810    1.7313610    1.7670920  
C     0.0571620    0.3833070   -0.2612650  
H    -0.7935410   -1.1363250   -2.7830690  
H     3.4031970   -1.4908480   -2.5748810  
H     2.2817810    1.9749440    2.2282510  
H    -0.3803460    2.3076170    1.4742540  
H     1.4065130   -2.2036330   -3.9374860  
C    -2.2643970   -0.5425240   -0.1838170  
C    -3.5496350   -0.1147270   -0.0649270  
C    -3.4886900    1.3488600   -0.0417310  
C    -2.0593100    1.7151800   -0.1735010  
N    -1.3520590    0.5305560   -0.2458090  
C    -1.5930110    2.9987050   -0.2212700  
C    -2.5551600    4.0929620   -0.1162450  
O    -2.2372660    5.2701900   -0.1787900  
C    -4.0672420    3.7212650    0.0840030  
O    -4.8846490    4.6139560    0.2310920  
C    -4.4458270    2.2996140    0.0792440  
H    -0.5590090    3.2480190   -0.4440320  
H    -5.4994020    2.0578860    0.1588260  
H    -1.8817680   -1.5524600   -0.2430630  
C    -4.3979610   -3.4430220    2.7096050  
C    -5.6453480   -3.7624830    2.2431220  
C    -5.9383780   -2.8582880    1.1667600  
C    -4.8125500   -2.0071610    1.0215710  
N    -3.8834300   -2.3953030    1.9655620  
C    -4.7441750   -0.9673630    0.0682340  
C    -5.8659050   -0.8094120   -0.7483640  
O    -5.8732650    0.1603510   -1.7107010  
C    -6.9982600   -1.6532980   -0.6153150  
O    -8.0101180   -1.3581810   -1.5093800  
C    -7.0472300   -2.6697120    0.3190470  
H    -6.2826680   -4.5507300    2.6194300  
H    -3.0310800   -1.8969150    2.1691840  
H    -6.7314390    0.1042160   -2.1669860  
H    -8.7525940   -1.9650990   -1.3737460  
H    -7.9279290   -3.3036140    0.3990530  
H    -3.8184200   -3.8809900    3.5099350  
C     4.3579100   -0.2310020   -0.1426550  
C     5.0816030   -1.2957430   -0.6339270  
C     6.4697430   -1.0743910   -0.3269390  
C     6.5256430    0.2221310    0.3932550  
N     5.2285320    0.6854010    0.4509390  
C     7.6647110    0.7831610    0.8727750  
C     8.9258100    0.0753440    0.6703600  
O     9.9996310    0.5019140    1.0679470  
C     8.8911320   -1.2982870   -0.0964630  
O     9.9397030   -1.9003610   -0.2769000  
C     7.5992640   -1.7985400   -0.5633210  
H     4.6773470   -2.1949360   -1.0746680  
H     7.6868130    1.7325760    1.3988350  
H     7.5877410   -2.7493070   -1.0879830  
H     4.9024850    1.4584470    1.0126400  
