62


C    -1.6902790   -0.5624240   -0.6764420  
C    -2.8621680   -0.1612040   -0.0606640  
C    -3.3221140   -1.2930180    0.7191900  
C    -2.3955760   -2.3405930    0.5170510  
N    -1.4010050   -1.8700280   -0.3510990  
C    -2.4969930   -3.5735630    1.1678050  
C    -3.5691200   -3.7572150    2.0267550  
O    -3.7186890   -4.9438170    2.6780730  
C    -4.5083890   -2.7150310    2.2436430  
O    -5.5072230   -3.0417900    3.1351860  
C    -4.3938030   -1.4915920    1.6081960  
H    -1.7896530   -4.3792200    1.0176420  
H    -4.5203040   -4.8775610    3.2252430  
H    -6.1201530   -2.2974470    3.2292550  
H    -5.1037340   -0.6964290    1.8179090  
H    -1.0685770   -0.0412660   -1.3899420  
C     2.9340900   -0.9687770   -0.3575650  
C     1.5719750   -0.8854250   -0.1193530  
C     1.0103410   -2.0501410   -0.7076380  
C     2.1819090   -2.7820270   -1.2989730  
N     3.3001720   -2.1444420   -1.0897700  
C     2.0302030   -4.0353900   -1.9833360  
C     0.7783770   -4.5405920   -2.0818210  
O     0.4789250   -5.6974670   -2.6774030  
C    -0.4421560   -3.8272480   -1.5247950  
O    -1.5303040   -4.3736480   -1.7259200  
C    -0.2609310   -2.5655290   -0.8140830  
H     1.0479210   -0.1134040    0.4246880  
H     2.8945030   -4.5459770   -2.3922560  
H    -0.5023650   -5.7722980   -2.6096970  
C     3.9921730   -0.0966840    0.0080620  
C     4.0151810    1.1137180    0.7107760  
C     5.3585520    1.5403610    0.7759310  
C     6.1482810    0.5547820    0.0936770  
N     5.2960140   -0.4121640   -0.3535850  
C     7.5390070    0.6635850   -0.0331610  
C     8.1428100    1.7738590    0.5309570  
O     9.4848890    1.9332760    0.4400880  
C     7.3707370    2.7694500    1.2164900  
O     8.1378060    3.7989830    1.7111670  
C     6.0062790    2.6663530    1.3432550  
H     3.1504180    1.6149070    1.1233880  
H     5.5126040   -1.2529950   -0.8713500  
H     8.1437490   -0.0757160   -0.5467770  
H     9.7169490    2.7646010    0.8910670  
H     7.5744520    4.4471190    2.1602410  
H     5.4369310    3.4309220    1.8666340  
C    -3.4789420    1.1296100   -0.2105570  
C    -4.7781810    1.5320220   -0.0134860  
C    -4.8679070    2.9375640   -0.2964560  
C    -3.4988350    3.3657490   -0.6775500  
N    -2.7178620    2.2228110   -0.6662690  
C    -3.1480870    4.6432090   -0.9651940  
C    -4.1838400    5.6732390   -0.9307960  
O    -3.9573300    6.8492860   -1.1742220  
C    -5.6519240    5.2358850   -0.5740060  
O    -6.5299520    6.0879350   -0.5536270  
C    -5.8987470    3.8303320   -0.2695420  
H    -5.6057750    0.8853610    0.2370160  
H    -2.1389290    4.9400170   -1.2353130  
H    -6.9132660    3.5428770   -0.0100330  
H    -1.7125260    2.2516290   -0.5775870  
