60


C    -2.4674500   -1.1021220   -0.5849710  
C    -1.2346810   -0.5150450   -0.5650840  
C    -1.4007440    0.8554240   -0.1647070  
C    -2.7836360    1.0506240    0.0355980  
N    -3.4333740   -0.1629690   -0.2218070  
C    -3.3373300    2.2633610    0.4679760  
C    -2.4742520    3.3269970    0.6499590  
O    -2.9555960    4.5303800    1.0495590  
C    -1.0742760    3.1912500    0.4328200  
O    -0.3932760    4.3308510    0.6524300  
C    -0.4944640    1.9486800    0.0474360  
H    -0.3248870   -1.0187210   -0.8481100  
H    -4.3942030    2.3915500    0.6650380  
H    -2.1904790    5.1309490    1.1209760  
H     0.5812840    4.1442700    0.4648850  
H    -2.7645040   -2.0961980   -0.8836850  
C     0.9341390    1.8294210   -0.0897750  
C     1.7531960    0.7362700   -0.3188050  
C     3.0904770    1.2252910   -0.3301810  
C     2.9686790    2.6946640   -0.0953950  
N     1.7164140    3.0291670    0.0471130  
C     4.1032540    3.5674290   -0.0195640  
C     5.3232830    3.0003470   -0.1736830  
O     6.4731850    3.6691570   -0.1137360  
C     5.5071820    1.5146580   -0.4487190  
O     6.6619650    1.1371040   -0.6430550  
C     4.3264630    0.6450230   -0.4895040  
H     1.4671600   -0.2982750   -0.3980560  
H     3.9767970    4.6283260    0.1628390  
H     7.1764790    3.0034930   -0.2989450  
C     3.7944630   -1.3572490   -1.8534460  
C     4.1213810   -2.6686470   -1.9348070  
C     5.0813090   -2.9440690   -0.8870800  
C     5.2960720   -1.6613200   -0.1744340  
N     4.4905620   -0.7120090   -0.8185920  
C     6.0883820   -1.5252600    0.9151590  
C     6.8146190   -2.7003260    1.4010280  
O     7.5499260   -2.6631490    2.3744600  
C     6.6291710   -4.0591510    0.6364820  
O     7.2336560   -5.0462610    1.0232540  
C     5.7167230   -4.0836670   -0.5098930  
H     3.7472400   -3.3769360   -2.6600800  
H     6.2331720   -0.5900910    1.4423460  
H     5.5685340   -5.0320670   -1.0172880  
H     3.1221460   -0.7733190   -2.4670920  
C    -4.7956380   -0.4101210   -0.1958340  
C    -5.8536440    0.4023140   -0.4888060  
C    -7.0554180   -0.3693920   -0.2894680  
C    -6.6159130   -1.7169420    0.1456770  
N    -5.2212460   -1.7060810    0.1265200  
C    -7.4516260   -2.7243620    0.4856100  
C    -8.8948130   -2.4904600    0.3859260  
O    -9.7209930   -3.3429850    0.6672890  
C    -9.3841660   -1.0852940   -0.1211200  
O   -10.5844580   -0.8817690   -0.2220710  
C    -8.3757220   -0.0745160   -0.4380760  
H    -5.7981840    1.4066090   -0.8797010  
H    -7.1121110   -3.7030600    0.8107760  
H    -8.7250290    0.8985570   -0.7692920  
H    -4.6752700   -2.3013200    0.7358000  
