62


C     0.0004540    1.6264700   -0.0474900  
C     1.1559290    0.8476120   -0.1731050  
C     0.7696460   -0.5232410   -0.1290030  
C    -0.6474470   -0.5400660    0.0118120  
N    -1.0746600    0.7639920    0.0734120  
C    -1.4168540   -1.7192210    0.0483500  
C    -0.6943510   -2.9028960   -0.1105330  
O    -1.3377800   -4.0913210   -0.1460840  
C     0.7256200   -2.9177560   -0.2577250  
O     1.2428380   -4.1805240   -0.3806870  
C     1.4937120   -1.7533410   -0.2239470  
H     2.1434490    1.2121690   -0.4134420  
H    -2.0309730    1.0981960    0.1137380  
H    -0.6444700   -4.7635970   -0.2972790  
H     1.9731980   -4.1350710   -1.0451460  
C    -4.5646850   -0.0048030   -2.5447830  
C    -5.6480940   -0.3487100   -1.7804470  
C    -5.1482260   -1.0380580   -0.6245220  
C    -3.7346620   -1.0796060   -0.7452380  
N    -3.4073940   -0.4381150   -1.9230660  
C    -2.8916840   -1.6993140    0.2014440  
C    -3.5243120   -2.2834190    1.2995660  
O    -2.7801290   -2.8745820    2.2779020  
C    -4.9361750   -2.2492800    1.4347330  
O    -5.3972440   -2.8683000    2.5845760  
C    -5.7486440   -1.6397380    0.4981880  
H    -6.6822340   -0.1309320   -2.0091770  
H    -2.4757850   -0.3637360   -2.3006250  
H    -3.4064700   -3.2527580    2.9191020  
H    -6.3653230   -2.8465980    2.5934130  
H    -6.8289390   -1.6274090    0.6300060  
H    -4.5137440    0.5273000   -3.4840590  
C     2.8756430    4.9094090    0.5409360  
C     2.0506230    5.9647400    0.3196500  
C     0.7310980    5.4335030    0.0528360  
C     0.8582720    3.9665520    0.1211300  
N     2.1912410    3.7071380    0.3853550  
C    -0.1703730    3.0648690   -0.0504710  
C    -1.5108710    3.6703640   -0.2242650  
O    -2.5443240    3.0143850   -0.2408880  
C    -1.6456900    5.2322830   -0.3908010  
O    -2.7531720    5.6822760   -0.6458050  
C    -0.4580480    6.0475310   -0.2168840  
H     2.3229990    7.0099890    0.3376270  
H    -0.5585040    7.1247450   -0.3009790  
H     3.9298560    4.8979890    0.7843760  
H     2.5196520    2.8128080    0.7186300  
C     4.3604590    0.2481520    2.4178490  
C     5.5307220   -0.0894890    1.8171260  
C     5.2028190   -0.9275680    0.6818590  
C     3.7241670   -1.0392290    0.6631070  
N     3.2790600   -0.2994410    1.7351940  
C     2.9741020   -1.7599530   -0.2407260  
C     3.7604590   -2.5594660   -1.1817790  
O     3.2760450   -3.4197790   -1.9188730  
C     5.3206520   -2.3612710   -1.2691640  
O     5.9210590   -2.9201590   -2.1725620  
C     5.9741000   -1.5461070   -0.2524260  
H     6.5238770    0.1902990    2.1367170  
H     7.0548230   -1.4542070   -0.2872140  
H     4.1886890    0.8406630    3.3070880  
H     2.3036450   -0.1845470    1.9686640  
