58


C     0.3224220    4.2916620    0.3148250  
C    -0.4084320    5.4267460    0.3321050  
C    -1.7884440    5.0740750    0.0743710  
C    -1.8190360    3.6043660   -0.1034450  
N    -0.4824450    3.1597510    0.0687990  
C    -2.9382490    2.9109500   -0.4107980  
C    -4.2073510    3.6496430   -0.5258950  
O    -5.2591810    3.0876490   -0.7740070  
C    -4.1945560    5.2010680   -0.3191020  
O    -5.2347850    5.8280910   -0.4142790  
C    -2.9045860    5.8374380   -0.0232440  
H    -0.0296970    6.4225570    0.5145680  
H    -2.9485960    1.8423430   -0.5714820  
H    -2.8886090    6.9159350    0.0999410  
H     1.3797890    4.1568200    0.4851430  
C     0.0157820    1.8866850    0.0165230  
C     1.3510850    1.5034860   -0.0105620  
C     1.3289690    0.0924070   -0.0702060  
C    -0.1311120   -0.2625990   -0.0569480  
N    -0.8821060    0.8059570   -0.0053160  
C    -0.6107400   -1.6375870   -0.1123340  
C     0.3768700   -2.5678280   -0.3165950  
O     0.1455870   -3.8802440   -0.4642550  
C     1.8442340   -2.2439480   -0.3823910  
O     2.5779300   -3.2235900   -0.6074780  
C     2.3182370   -0.8803860   -0.1649770  
H     2.2155710    2.1413410   -0.0871100  
H     1.0401110   -4.2804530   -0.6033660  
C    -2.0209710   -1.9681780    0.0142330  
C    -3.0755660   -1.1673490    0.3902960  
C    -4.2662310   -1.9742390    0.3957260  
C    -3.8454570   -3.3373430   -0.0079160  
N    -2.4890700   -3.2658330   -0.2307900  
C    -4.6850050   -4.3991820   -0.1154590  
C    -6.0996050   -4.1980200    0.1823320  
O    -6.9296880   -5.0917440    0.1151460  
C    -6.5696030   -2.7589100    0.6103850  
O    -7.7480280   -2.5725290    0.8695670  
C    -5.5667540   -1.6915260    0.6860160  
H    -3.0067410   -0.1251640    0.6504430  
H    -4.3588210   -5.3910900   -0.4125030  
H    -5.9031150   -0.7000890    0.9738780  
H    -1.8887620   -4.0421300   -0.4633230  
C     3.7393490   -0.6165290   -0.0648070  
C     4.3879890    0.4978910    0.4363260  
C     5.8005100    0.2654530    0.3589470  
C     5.9641930   -1.0861030   -0.2297230  
N     4.6914910   -1.5542660   -0.4707850  
C     7.1631640   -1.6802440   -0.4563280  
C     8.3790810   -0.9502700   -0.1061700  
O     9.5004340   -1.4037050   -0.2744540  
C     8.2293360    0.4864360    0.5156080  
O     9.2346670    1.1140780    0.8124020  
C     6.8803980    1.0190460    0.7155740  
H     3.9203390    1.3640220    0.8756580  
H     7.2658720   -2.6717300   -0.8860270  
H     6.7885370    2.0103810    1.1491830  
H     4.4340210   -2.4887260   -0.7577080  
