58


C     4.2476410    0.8964340   -0.0150790  
C     4.2273820   -0.4791470   -0.0759650  
C     5.5452370   -0.9217660   -0.4390540  
C     6.3710770    0.3020660   -0.5951250  
N     5.5342230    1.3595610   -0.3323810  
C     7.6873420    0.3000310   -0.9324770  
C     8.3443350   -0.9812110   -1.1614450  
O     9.5231440   -1.0836600   -1.4692060  
C     7.4880060   -2.2923230   -1.0040150  
O     8.0222970   -3.3753110   -1.1932070  
C     6.0775170   -2.1612170   -0.6352900  
H     3.3661580   -1.0954270    0.1267940  
H     8.2762960    1.2055580   -1.0413560  
H     5.4956050   -3.0716410   -0.5282600  
H     5.7956260    2.3336960   -0.3154080  
C    -0.0153550    0.1426390    0.8141540  
C    -0.4498470    1.4165000    1.0861760  
C     0.7012540    2.2682440    0.9482950  
C     1.8111100    1.3365350    0.5705320  
N     1.3924980    0.1143060    0.4944830  
C     3.1761680    1.8160190    0.3215020  
C     3.3435070    3.1717620    0.4464330  
O     4.5139300    3.8108640    0.2570790  
C     2.2432370    4.1182420    0.8262930  
O     2.5462310    5.3142120    0.9043850  
C     0.9022300    3.6016180    1.0767290  
H    -1.4374900    1.7273370    1.3922890  
H     4.3047050    4.7628780    0.4244580  
H     0.1282920    4.3148410    1.3420730  
C    -4.3059060   -0.8536830    0.0160590  
C    -3.1139550   -0.1629450    0.1707610  
C    -2.1366810   -1.1372520    0.5246120  
C    -2.9002330   -2.4320660    0.5332480  
N    -4.1561570   -2.2590650    0.2440540  
C    -2.2663120   -3.6847160    0.8190480  
C    -0.9361990   -3.6646790    1.0719690  
O    -0.2169650   -4.7543160    1.3543150  
C    -0.1226380   -2.3841860    1.0923650  
O     1.0570190   -2.5142340    1.4067390  
C    -0.7817760   -1.0835450    0.7917390  
H    -2.9792790    0.8935280    0.0206550  
H    -2.8432560   -4.6025720    0.8240110  
H     0.6975120   -4.4263100    1.5178530  
C    -5.5783680    3.2951330   -0.7173420  
C    -6.8886450    3.1420950   -1.0090680  
C    -7.1318710    1.7105120   -0.9131240  
C    -5.7990130    1.1243200   -0.5389550  
N    -4.9071210    2.0637730   -0.4267700  
C    -5.5994710   -0.3165860   -0.3378480  
C    -6.7337750   -1.0917430   -0.5154480  
O    -6.7951470   -2.4086230   -0.3913040  
C    -8.0791790   -0.5009940   -0.8910270  
O    -9.0126480   -1.2907750   -1.0214680  
C    -8.2248730    0.9443330   -1.0823640  
H    -7.6158300    3.9011600   -1.2606650  
H    -7.7366050   -2.6401600   -0.5839580  
H    -9.2079100    1.3194030   -1.3497580  
H    -5.0024870    4.2118640   -0.6808180  
