60


C     4.7863170   -0.8217840    2.7603950  
C     3.5638800   -0.9343480    2.1816580  
C     3.6957180   -1.8374930    1.0598960  
C     5.1209010   -2.2551170    1.0385940  
N     5.7258590   -1.6012150    2.0922160  
C     5.6663090   -3.1290640    0.1540110  
C     4.7989700   -3.7059810   -0.8605160  
O     5.1797360   -4.5250530   -1.6830780  
C     3.2956440   -3.2475280   -0.9005830  
O     2.6013800   -3.6361490   -1.8220240  
C     2.7915020   -2.3281690    0.1551340  
H     2.6650180   -0.4200590    2.4809810  
H     6.7085680   -3.4321770    0.1777810  
H     5.0882000   -0.2329920    3.6164660  
H     6.6988880   -1.6862760    2.3393330  
C     0.8653940    1.5901100   -0.1892380  
C    -0.4662240    1.2326430   -0.2184750  
C    -0.5004280   -0.1986380   -0.0899340  
C     0.9224160   -0.5784700    0.0101640  
N     1.7155580    0.4588570   -0.0468710  
C     1.3656990   -1.9623280    0.1291870  
C     0.3830810   -2.9071920    0.1194820  
O     0.6301690   -4.2222340    0.2494390  
C    -1.0585760   -2.5709330   -0.0169070  
O    -1.8405830   -3.5310060   -0.0708070  
C    -1.5153070   -1.1401340   -0.0609110  
H    -1.2946920    1.8938660   -0.4190760  
H    -0.2354240   -4.6691010    0.1398730  
C    -0.4275970    5.6292970    1.2035140  
C    -0.3901210    4.2854410    1.0020230  
C     0.8095750    4.0501560    0.2152480  
C     1.3959060    5.4098700    0.0490470  
N     0.6651150    6.3294620    0.6231680  
C     2.6363640    5.6241130   -0.6470180  
C     3.2710820    4.5396410   -1.1469970  
O     4.4352170    4.5898240   -1.8156100  
C     2.7020780    3.1477500   -1.0277510  
O     3.3193530    2.2550080   -1.5970410  
C     1.4126130    2.9290530   -0.2896900  
H    -1.0790620    3.5396950    1.3702650  
H     3.0344900    6.6272830   -0.7529090  
H     4.6136590    3.6619380   -2.0882220  
H    -1.1709850    6.1961680    1.7523500  
C    -2.9209460   -0.8566700   -0.0439680  
C    -3.5949380    0.3589580    0.1662030  
C    -4.9790780    0.1058990    0.1029610  
C    -5.1357040   -1.2954140   -0.1458680  
N    -3.8881220   -1.8414980   -0.2263390  
C    -6.3926390   -1.9012760   -0.2650780  
C    -7.5037080   -1.0861180   -0.1311960  
O    -8.7463810   -1.6143280   -0.2362210  
C    -7.3668260    0.3196370    0.1194600  
O    -8.5762440    0.9684620    0.2223230  
C    -6.1347390    0.9159970    0.2378820  
H    -3.1291880    1.3065730    0.3858490  
H    -3.6384380   -2.8165840   -0.3329200  
H    -6.5212420   -2.9613860   -0.4539000  
H    -9.3878580   -0.8913270   -0.1171590  
H    -8.4331260    1.9139700    0.3790570  
H    -6.0485620    1.9835110    0.4267860  
