60


C     1.7897940    2.0644540   -0.0351440  
C     2.1571910    0.7453730    0.2321410  
C     3.5207370    0.5947860   -0.1431470  
C     3.9599070    1.8648370   -0.6321640  
N     2.8952420    2.7228870   -0.5501460  
C     5.2598050    2.1047720   -1.0862450  
C     6.1466210    1.0379090   -1.0761770  
O     7.4167340    1.2034170   -1.5317750  
C     5.7426040   -0.2384410   -0.6048710  
O     6.7314170   -1.2069410   -0.6296760  
C     4.4598350   -0.4681740   -0.1200310  
H     1.5221280    0.0052840    0.6902670  
H     2.8886380    3.7280990   -0.6805130  
H     5.5839520    3.0735180   -1.4503040  
H     7.8576310    0.3368070   -1.4790030  
H     6.3209310   -2.0742450   -0.7806450  
C    -2.4893700    0.6753960    0.1507800  
C    -1.1153050    0.7624120   -0.0346180  
C    -0.6998940    2.0957050    0.2477930  
C    -1.9235990    2.8338910    0.6279560  
N    -2.9669130    1.9327010    0.5407720  
C    -1.9804760    4.1432300    0.9851390  
C    -0.7596210    4.9218470    0.9045460  
O    -0.6807520    6.1020990    1.2098420  
C     0.5274360    4.2108970    0.3560120  
O     1.4888990    4.9261780    0.0866210  
C     0.5327760    2.7440540    0.1859810  
H    -0.5052810   -0.0334780   -0.4354460  
H    -2.8941140    4.6393280    1.2969870  
H    -3.8532860    2.0754410    0.9999040  
C    -3.0846690   -1.7636300   -0.1777860  
C    -3.3846720   -0.4223270   -0.0411530  
C    -4.8619750   -0.3718700   -0.1409470  
C    -5.2566990   -1.7989050   -0.3009930  
N    -4.2066150   -2.5862060   -0.3277210  
C    -6.6242930   -2.2011290   -0.4389550  
C    -7.5750330   -1.2316970   -0.4485130  
O    -8.8894040   -1.4670710   -0.5696630  
C    -7.2137180    0.2185390   -0.3340710  
O    -8.1226160    1.0472640   -0.3608030  
C    -5.7921270    0.6029040   -0.1927170  
H    -6.8695040   -3.2520810   -0.5435180  
H    -9.3192930   -0.5838230   -0.5565070  
H    -5.5913590    1.6688560   -0.1633480  
H    -2.1046760   -2.2262750   -0.1912000  
C     4.8514930   -2.3265130    1.5068660  
C     4.2186860   -3.4258580    1.9799250  
C     3.0047090   -3.5915530    1.2079280  
C     3.0031330   -2.4956270    0.2066200  
N     4.1573720   -1.7522300    0.4219420  
C     2.0217380   -2.3045130   -0.7147120  
C     0.8303710   -3.1303090   -0.6200730  
O    -0.1912670   -2.8938110   -1.2572450  
C     0.8320680   -4.3365710    0.3860500  
O    -0.1286290   -5.0892330    0.4066010  
C     1.9854810   -4.4873150    1.2772060  
H     4.5453120   -4.0502850    2.7990200  
H     2.0341430   -1.4951700   -1.4345760  
H     1.9707190   -5.3078160    1.9880530  
H     5.7677880   -1.8588720    1.8399370  
