60


C    -0.8330440   -2.0501830   -0.0424140  
C    -1.7487890   -1.0521150    0.2402400  
C    -3.0512160   -1.5766990   -0.0097810  
C    -2.8810760   -2.9208760   -0.4440940  
N    -1.5297310   -3.1990070   -0.4191250  
C    -3.9518300   -3.7516680   -0.7881830  
C    -5.2253550   -3.2168980   -0.6792180  
O    -6.3067180   -3.9695380   -1.0139000  
C    -5.4227400   -1.8853250   -0.2195970  
O    -6.7489950   -1.5135720   -0.1602050  
C    -4.3654410   -1.0472480    0.1216590  
H    -1.5000550   -0.0752360    0.6284250  
H    -1.1020590   -3.9669630   -0.9169980  
H    -3.8232530   -4.7732610   -1.1296840  
H    -7.0951530   -3.4084370   -0.9077410  
H    -6.7924780   -0.5456870   -0.0720170  
C     0.6008090   -2.0427530    0.0484790  
C     1.4805900   -0.9943040   -0.0081930  
C     2.8102590   -1.5110400    0.1486210  
C     2.6607100   -2.9766750    0.3028950  
N     1.3041600   -3.2607990    0.1643530  
C     3.6777660   -3.8430400    0.5218240  
C     5.0332980   -3.3087690    0.5771180  
O     6.0179620   -4.0100750    0.7495040  
C     5.2311190   -1.7612520    0.3927980  
O     6.3593030   -1.3111920    0.5050460  
C     4.0458180   -0.9114300    0.1375990  
H     1.2164050    0.0380320   -0.1745920  
H     3.5401460   -4.9149620    0.6268540  
H     0.8950760   -4.0485680    0.6505960  
C     2.5224470    2.6056390    2.3410740  
C     3.1525780    3.6276080    1.7195880  
C     3.9438960    2.9993780    0.6666180  
C     3.6510380    1.5335930    0.8118210  
N     2.8204310    1.3162500    1.7905490  
C     4.2599680    0.5355700   -0.0549100  
C     5.1004090    1.0142140   -1.0183540  
O     5.7007830    0.2369880   -1.9272810  
C     5.4087750    2.4777360   -1.1822490  
O     6.1776870    2.7994870   -2.0863100  
C     4.7855800    3.4599800   -0.2769320  
H     3.0995350    4.6846510    1.9399400  
H     6.2562880    0.8426320   -2.4664880  
H     5.0381420    4.5055130   -0.4246510  
H     1.8419980    2.6561830    3.1830370  
C    -5.4122140    0.7049040    1.6391900  
C    -4.6191720    0.3295820    0.5893730  
C    -4.0679130    1.5690340    0.0362160  
C    -4.6059460    2.6767830    0.8632070  
N    -5.4195640    2.0821460    1.8096180  
C    -4.3226760    3.9899470    0.6720150  
C    -3.4299650    4.3537230   -0.4253620  
O    -3.1106910    5.5062340   -0.6713740  
C    -2.8626730    3.1978910   -1.3280550  
O    -2.1221830    3.4793530   -2.2556840  
C    -3.2461220    1.8142350   -1.0162850  
H    -4.7277940    4.7852380    1.2901820  
H    -2.8462400    1.0246970   -1.6438700  
H    -5.9713670    0.0734240    2.3180440  
H    -5.9067710    2.5738940    2.5425700  
