60


C     4.0439180    0.1320500    0.1916760  
C     2.6482350    0.1754020    0.2904800  
C     2.2636080    1.5301490    0.4447200  
C     3.4640020    2.3033120    0.4237600  
N     4.5117450    1.4349110    0.2817210  
C     3.4694590    3.6969250    0.5192290  
C     2.2385440    4.3267920    0.6402910  
O     2.1839070    5.6790590    0.7650300  
C     1.0302350    3.5805580    0.6545880  
O    -0.0991410    4.3704490    0.7981660  
C     1.0010340    2.1905330    0.5519500  
H     1.9826080   -0.6660790    0.1872730  
H     5.4920320    1.6512250    0.1442950  
H     4.3800160    4.2860910    0.5112620  
H     1.2480560    5.9188820    0.8877360  
H    -0.8147420    3.8409070    1.1833910  
C    -0.5248050    0.2619220    1.2145610  
C    -0.2537190    1.4342490    0.5697590  
C    -1.4917770    1.7006320   -0.2046020  
C    -2.3930880    0.5623540    0.1355370  
N    -1.8176010   -0.2642990    0.9638980  
C    -3.7220330    0.4337500   -0.4351920  
C    -4.0994020    1.4018830   -1.3198830  
O    -5.3059260    1.4458000   -1.8999510  
C    -3.1999270    2.5396590   -1.7010240  
O    -3.6323180    3.3639210   -2.5053490  
C    -1.8556930    2.6404090   -1.0987090  
H    -5.2850750    2.2313910   -2.4908930  
H    -1.2366240    3.4798660   -1.3967760  
H     0.1313030   -0.2773150    1.8865820  
C    -5.4977870   -1.3074800    3.3009240  
C    -4.7775700   -0.5177570    2.4720130  
C    -4.9937520   -1.0669760    1.1372440  
C    -5.9094390   -2.2294180    1.3721930  
N    -6.2027650   -2.3621130    2.6332210  
C    -6.3905200   -3.0494560    0.2907960  
C    -5.9844450   -2.7373840   -0.9602690  
O    -6.3402860   -3.4189570   -2.0618240  
C    -5.0556860   -1.5833950   -1.2333280  
O    -4.6905110   -1.4229370   -2.3940330  
C    -4.5951350   -0.7119050   -0.1090220  
H    -4.1540010    0.3260460    2.7256050  
H    -7.0519330   -3.8841980    0.4942560  
H    -5.8752020   -2.9741010   -2.8041240  
H    -5.5945530   -1.2292740    4.3773540  
C     3.5909070   -4.2942290    0.6338310  
C     3.4022180   -2.9475340    0.6951300  
C     4.5880960   -2.3129170    0.1690150  
C     5.5033760   -3.4123530   -0.1951600  
N     4.8303330   -4.5847530    0.0839410  
C     6.7582280   -3.2704930   -0.7093640  
C     7.2634870   -1.9298560   -0.8860870  
O     8.3642190   -1.6597020   -1.3455540  
C     6.3431190   -0.7300410   -0.4442470  
O     6.8476620    0.3857700   -0.4660410  
C     4.9403450   -0.9839710   -0.0133830  
H     2.5366800   -2.4584780    1.1103340  
H     7.3875090   -4.1088460   -0.9899840  
H     2.9345660   -5.0947550    0.9474270  
H     5.2223440   -5.5073040   -0.0213020  
