58


C     0.1215150    1.9143550    0.1618110  
C     1.4124730    1.4800540    0.0834270  
C     1.3772170    0.0661450   -0.1791690  
C    -0.0504130   -0.2958860   -0.2780620  
N    -0.7797410    0.8856410   -0.1245770  
C    -0.5582600   -1.5464920   -0.4799020  
C     0.4446900   -2.6199680   -0.6390620  
O     0.1399220   -3.7765740   -0.8706240  
C     1.9725520   -2.2659960   -0.5277700  
O     2.7635440   -3.1927480   -0.5524520  
C     2.3782560   -0.8575790   -0.3501250  
H     2.2995310    2.0821350    0.1924520  
H    -1.7149100    0.8635620    0.2645130  
C     0.3455230    4.0676560    1.3328820  
C    -0.3363780    5.2221150    1.4960570  
C    -1.5586160    5.1272640    0.7225560  
C    -1.5344900    3.7962050    0.0687730  
N    -0.3505340    3.1755360    0.4905040  
C    -2.4895360    3.3573050   -0.7884020  
C    -3.6451670    4.2180350   -1.0490050  
O    -4.5539710    3.8844770   -1.7923650  
C    -3.7055030    5.6150290   -0.3390770  
O    -4.6648450    6.3414230   -0.5351070  
C    -2.5863580    5.9925810    0.5327620  
H    -0.0340770    6.0598590    2.1077570  
H    -2.4400850    2.4105140   -1.3114670  
H    -2.6185850    6.9735530    0.9967700  
H     1.2816940    3.7437960    1.7654550  
C    -2.8814010   -1.1144130   -1.3714320  
C    -1.9920990   -1.8259600   -0.6117850  
C    -2.7697820   -2.8914760    0.0319750  
C    -4.1710220   -2.7164560   -0.4221420  
N    -4.1639000   -1.6228280   -1.2690920  
C    -5.2138050   -3.4989020   -0.0461320  
C    -4.9568950   -4.5919760    0.8861740  
O    -5.8282890   -5.3485060    1.2860850  
C    -3.4843880   -4.7856260    1.3995940  
O    -3.2492640   -5.6745170    2.2012070  
C    -2.4399260   -3.8794750    0.9006150  
H    -6.2297510   -3.3491020   -0.3984180  
H    -1.4251680   -4.0532830    1.2385710  
H    -2.6875780   -0.2739700   -2.0252610  
H    -4.9657920   -1.2786160   -1.7746780  
C     4.8676870    1.0862450    2.7538820  
C     6.1122980    0.9466350    2.2450390  
C     5.9235270    0.2877000    0.9571460  
C     4.4368870    0.0980940    0.8551650  
N     3.8316610    0.5735020    1.9059140  
C     3.8197940   -0.5532480   -0.2911910  
C     4.6719600   -0.9465060   -1.2839870  
O     4.2627020   -1.5060240   -2.4270250  
C     6.1634970   -0.7579920   -1.2070710  
O     6.8347400   -1.1449860   -2.1611260  
C     6.7564520   -0.1215400   -0.0174680  
H     7.0550690    1.2428360    2.6833900  
H     5.0812520   -1.7108450   -2.9316240  
H     7.8365350   -0.0136260    0.0052400  
H     4.5814040    1.5243240    3.7028680  
