60


C     1.5138440   -0.3720780   -1.6180110  
C     0.4188760    0.4283570   -1.4391850  
C     0.7438180    1.4012420   -0.4256080  
C     2.0851510    1.1479800   -0.0464270  
N     2.5369950    0.0317910   -0.7614080  
C     2.7929570    1.9816880    0.8304790  
C     2.1091160    3.0747530    1.3437450  
O     2.7381850    3.9333660    2.1854550  
C     0.7512700    3.3310180    1.0134030  
O     0.2390030    4.4294020    1.6485390  
C     0.0279330    2.4957710    0.1507500  
H    -0.4941470    0.3732670   -2.0134660  
H     3.8475900    1.8598500    1.0487940  
H     2.0882250    4.6402730    2.3702140  
H    -0.3388720    4.9006470    0.9946520  
H     1.6887670   -1.1727060   -2.3189010  
C    -3.3380580   -0.3852950    0.0089120  
C    -2.1450960    0.2775400    0.2373330  
C    -2.3100280    1.6432650   -0.1311710  
C    -3.7269080    1.7773730   -0.5527310  
N    -4.2828420    0.5192230   -0.4618240  
C    -4.2962140    2.9366800   -0.9653730  
C    -3.4594960    4.1268540   -0.9772230  
O    -3.8495210    5.2196070   -1.3547530  
C    -1.9773570    4.0118550   -0.4573550  
O    -1.3670910    5.0767770   -0.3256430  
C    -1.4115120    2.6992460   -0.1453800  
H    -1.2564550   -0.1389660    0.6791080  
H    -5.3228080    3.0182030   -1.3064640  
H    -5.2600240    0.2671430   -0.5464700  
C    -0.7208150   -3.9204650    0.0027240  
C    -1.6384360   -4.8765710    0.2835610  
C    -2.9223860   -4.2151810    0.3928120  
C    -2.6654770   -2.7717900    0.1726730  
N    -1.3181840   -2.6562490   -0.0390670  
C    -3.6411690   -1.7892250    0.1702390  
C    -5.0337180   -2.2570010    0.2697390  
O    -6.0028130   -1.5284300    0.0941080  
C    -5.3076280   -3.7644360    0.6094480  
O    -6.4551300   -4.1109560    0.8300540  
C    -4.1749120   -4.6893190    0.6274730  
H    -1.4572320   -5.9358900    0.3906320  
H    -4.3818410   -5.7379960    0.8165390  
H     0.3427120   -4.0094850   -0.1727630  
H    -0.8551880   -1.8206170   -0.3830660  
C     4.7628070   -1.1553580    2.8032270  
C     5.8552780   -1.6852150    2.1972320  
C     5.6485010   -1.5873580    0.7676390  
C     4.3279870   -0.9365700    0.5944470  
N     3.8187730   -0.7412840    1.8648950  
C     3.7746330   -0.6263980   -0.6185720  
C     4.5155650   -1.0439990   -1.8255020  
O     4.0834900   -0.8868420   -2.9549130  
C     5.9110720   -1.7543500   -1.6441820  
O     6.5123940   -2.0932680   -2.6510090  
C     6.4033440   -1.9858380   -0.2927540  
H     6.7173440   -2.1154150    2.6856600  
H     7.3661160   -2.4733190   -0.1782350  
H     4.5479080   -1.0452190    3.8579600  
H     3.0589120   -0.1044330    2.0647490  
