58


C     0.3047220   -1.9055140   -0.0235660  
C     0.6244920   -3.2471940    0.0598210  
C     2.0550250   -3.3602280    0.0875740  
C     2.5814760   -1.9776100    0.0331630  
N     1.4900040   -1.1621330   -0.0266380  
C     3.9214940   -1.6363470    0.0444970  
C     4.8657050   -2.7699760   -0.0091860  
O     6.0746770   -2.6396270   -0.1641360  
C     4.3219660   -4.2374050    0.1330860  
O     5.1336890   -5.1477070    0.2034630  
C     2.8833880   -4.4422180    0.1587530  
H    -0.0571310   -4.0724130    0.2020020  
H     2.5160800   -5.4612170    0.2295790  
H     1.4739450   -0.1526690   -0.1096140  
C    -3.6656370   -3.3700480   -1.1955820  
C    -4.4011590   -2.2601490   -0.9507730  
C    -3.4961380   -1.2429170   -0.4502030  
C    -2.1588230   -1.8644990   -0.4177140  
N    -2.3287190   -3.1549320   -0.8413900  
C    -0.9726620   -1.2306820   -0.0774570  
C    -1.0813520    0.2132210    0.1608250  
O    -0.1219120    0.9709140    0.2550040  
C    -2.5027090    0.8399420    0.3330320  
O    -2.5862440    1.9177030    0.8854950  
C    -3.7000110    0.0684570   -0.1046780  
H    -5.4615940   -2.1430770   -1.1120010  
H    -3.9662070   -4.3297690   -1.5929680  
H    -1.5587830   -3.7430570   -1.1285220  
C     4.4015140   -0.2657640    0.0794940  
C     3.7519170    0.9046550    0.4266860  
C     4.6953090    1.9827430    0.3217990  
C     5.9745910    1.3698130   -0.1146210  
N     5.7252000    0.0248870   -0.2563980  
C     7.1254390    2.0626120   -0.3152530  
C     7.1156280    3.5044070   -0.0935210  
O     8.1015240    4.2106220   -0.2485330  
C     5.7685630    4.1760470    0.3666050  
O     5.7457840    5.3837320    0.5572180  
C     4.5949700    3.3234820    0.5494470  
H     2.7446220    1.0128510    0.7993450  
H     8.0528190    1.5963870   -0.6329680  
H     3.6707860    3.7964050    0.8678760  
H     6.3980090   -0.7154570   -0.4154340  
C    -7.6473110   -0.7532310    1.8443100  
C    -6.3578640   -0.8363430    1.4139150  
C    -6.1116030    0.3049290    0.5642180  
C    -7.3798400    1.0758200    0.5407960  
N    -8.2743480    0.3647880    1.3213850  
C    -7.5673930    2.2517700   -0.1087290  
C    -6.4443740    2.8184770   -0.8485640  
O    -6.5045050    3.8831590   -1.4398070  
C    -5.1050600    2.0048050   -0.8934140  
O    -4.2109420    2.3892960   -1.6243640  
C    -4.9948380    0.7506180   -0.1011980  
H    -5.6513360   -1.6097670    1.6728210  
H    -8.5018870    2.8039150   -0.0891380  
H    -8.1914760   -1.4187100    2.5015520  
H    -9.2059300    0.6735440    1.5526630  
