60


C    -0.7570110   -0.2680430    1.5998050  
C    -0.1512600    0.1727910    0.4453880  
C    -1.1727140    0.3374040   -0.5551620  
C    -2.3928580   -0.0214290    0.0651350  
N    -2.1059120   -0.3906360    1.3664910  
C    -3.6324420   -0.0200830   -0.6101020  
C    -3.5989720    0.3729150   -1.9485640  
O    -4.7569900    0.4512570   -2.6510700  
C    -2.3787820    0.7386320   -2.5814830  
O    -2.5362650    1.1043300   -3.8998410  
C    -1.1724260    0.7233320   -1.9101170  
H    -2.7901200   -0.7036430    2.0378240  
H    -4.5306530    0.6741620   -3.5710050  
H    -1.6776040    1.3349650   -4.2847370  
H    -0.2520360    1.0074740   -2.4138830  
H    -0.3264550   -0.4922070    2.5649670  
C     2.2104430   -0.5921310    0.3548910  
C     3.4801990   -0.0882960    0.2187340  
C     3.3200740    1.3558820    0.0189120  
C     1.8604210    1.6149610    0.0586360  
N     1.2378270    0.3846120    0.2761690  
C     1.2794190    2.8315160   -0.0855860  
C     2.1410270    3.9855080   -0.3272250  
O     1.7124110    5.1203720   -0.4698000  
C     3.6877640    3.7354760   -0.4156750  
O     4.4286040    4.6776190   -0.6463850  
C     4.1907010    2.3702920   -0.2160080  
H     0.2064580    2.9813140   -0.0401790  
H     5.2641820    2.2309360   -0.2420330  
H     1.9110710   -1.6160930    0.5331620  
C     4.5244250   -4.1290180   -1.3650710  
C     3.8597690   -2.9676830   -1.1433990  
C     4.7574030   -2.1632590   -0.3191010  
C     5.9548460   -3.0285290   -0.1527960  
N     5.8131240   -4.1772540   -0.7570510  
C     7.1137460   -2.5957430    0.5867720  
C     7.0875980   -1.3569310    1.1261760  
O     8.1023620   -0.8161690    1.8247390  
C     5.8910430   -0.4579870    0.9919960  
O     5.9535170    0.6379560    1.5452150  
C     4.6792230   -0.9186530    0.2375170  
H     2.8913810   -2.6775700   -1.5250800  
H     7.9712660   -3.2519660    0.6856530  
H     7.7884490    0.0719060    2.1007510  
H     4.1946960   -4.9833480   -1.9442880  
C    -5.8546270    1.4713030    2.9434560  
C    -4.9557450    1.2930840    1.9405870  
C    -5.4020470    0.1568070    1.1567960  
C    -6.6562640   -0.3131100    1.7958940  
N    -6.8609040    0.5138960    2.8848980  
C    -7.4220440   -1.3398160    1.3458570  
C    -6.9847950   -2.0461780    0.1499820  
O    -7.6168360   -2.9592720   -0.3582960  
C    -5.6223390   -1.6187300   -0.5101820  
O    -5.1880000   -2.2911360   -1.4267360  
C    -4.8919170   -0.4430770    0.0366990  
H    -4.0848130    1.9004840    1.7458950  
H    -8.3492970   -1.6479410    1.8189730  
H    -5.8718950    2.2219660    3.7226590  
H    -7.6751470    0.4883180    3.4785880  
