60


C    -1.9373330   -0.4850900   -0.6121680  
C    -0.9833070    0.4943850   -0.6489860  
C    -1.6401210    1.7666120   -0.4634070  
C    -3.0184950    1.4918510   -0.3174470  
N    -3.1865610    0.0986160   -0.4092460  
C    -3.9705790    2.5098000   -0.1826400  
C    -3.5095820    3.8186550   -0.1518830  
O    -4.3966920    4.8359480   -0.0085100  
C    -2.1231100    4.1062850   -0.2757720  
O    -1.8315530    5.4480130   -0.2309500  
C    -1.1902240    3.0994300   -0.4425730  
H    -5.0358490    2.3240030   -0.1251790  
H    -3.8956440    5.6704940   -0.0066460  
H    -0.8724810    5.5852110   -0.2557280  
H    -0.1355250    3.3343310   -0.5562700  
H    -1.8377360   -1.5587600   -0.6592800  
C     0.9348560   -0.4001670   -1.9625760  
C     2.2873410   -0.4911730   -1.8758370  
C     2.6801260    0.1585660   -0.6469910  
C     1.4323820    0.6356190   -0.0111350  
N     0.3929170    0.2796570   -0.8696220  
C     1.3591930    1.2537250    1.1966860  
C     2.6007310    1.5099190    1.9126460  
O     2.6475110    2.0239330    3.0187610  
C     3.9575360    1.1086620    1.2249430  
O     5.0056890    1.4403880    1.7462200  
C     3.8997890    0.3654180   -0.0574670  
H     2.9401470   -0.9732120   -2.5878880  
H     0.4244780    1.5558140    1.6546630  
H     0.2670460   -0.7623790   -2.7326000  
C     5.4492550    0.3866570   -2.0043890  
C     6.6668000   -0.0898470   -2.3566380  
C     7.1809660   -0.8413480   -1.2314770  
C     6.1477950   -0.7583810   -0.1709220  
N     5.1024270    0.0136000   -0.6966710  
C     6.2402670   -1.3832540    1.0266810  
C     7.4448680   -2.1648890    1.3132970  
O     7.6052320   -2.7676630    2.3624280  
C     8.5662930   -2.2355270    0.2158210  
O     9.5808080   -2.8753820    0.4427850  
C     8.3339270   -1.5363700   -1.0502720  
H     7.1702200    0.0747100   -3.2985090  
H     5.4805000   -1.3253390    1.7969100  
H     9.0997410   -1.6102780   -1.8164350  
H     4.7635630    1.0063670   -2.5661950  
C    -4.3649310   -0.6273300   -0.3363780  
C    -4.6903570   -1.7984920   -0.9589040  
C    -6.0014920   -2.1794820   -0.4971910  
C    -6.4267320   -1.1249140    0.4549220  
N    -5.4094070   -0.1702450    0.4727910  
C    -7.5879780   -1.1385540    1.1477300  
C    -8.5136680   -2.2531540    0.9251950  
O    -9.5841000   -2.3445610    1.5030410  
C    -8.1044920   -3.3605070   -0.1127390  
O    -8.8721290   -4.2888600   -0.3158800  
C    -6.8106680   -3.2361510   -0.7825960  
H    -4.1016770   -2.3065120   -1.7083590  
H    -7.8795650   -0.3614650    1.8476530  
H    -6.5304970   -4.0159030   -1.4841160  
H    -5.2448220    0.4312730    1.2688420  
