58


C     2.5488780   -0.3703440   -1.3575290  
C     3.4064940   -0.3151510   -0.2945860  
C     2.8099070    0.6242420    0.6619330  
C     1.5423630    1.0876970    0.0536560  
N     1.4307070    0.4212890   -1.1536830  
C     0.6887340    2.0053840    0.5907340  
C     1.0736020    2.5889820    1.8909950  
O     0.3685420    3.3795850    2.4928330  
C     2.4305460    2.1347770    2.5388270  
O     2.7742740    2.6412360    3.5937340  
C     3.2337150    1.1170500    1.8526810  
H     4.1499400    0.7942470    2.3329410  
H     2.6358300   -0.9608340   -2.2601470  
H     0.7151360    0.6143830   -1.8374220  
C     6.8269500   -0.8564440   -3.0752310  
C     5.6727050   -0.4540770   -2.4817370  
C     5.5989430   -1.1030310   -1.1893220  
C     6.8277370   -1.9255520   -1.0767380  
N     7.5149090   -1.7489300   -2.2622030  
C     7.1712320   -2.6752720    0.0031040  
C     6.2718840   -2.6775400    1.1446580  
O     6.4902400   -3.2941870    2.1761530  
C     4.9418970   -1.8407840    1.0459540  
O     4.1604660   -1.8892610    1.9809450  
C     4.6691940   -1.0492030   -0.1799310  
H     4.9592020    0.2463620   -2.8879620  
H     8.0830270   -3.2614630    0.0599170  
H     7.2381320   -0.5764250   -4.0360210  
H     8.4252850   -2.1342500   -2.4593020  
C    -3.1349440   -0.0985540   -0.2627800  
C    -1.8571540    0.2198490    0.1110290  
C    -1.6421410    1.6017910   -0.2328100  
C    -2.9034890    2.0784620   -0.8436140  
N    -3.7945030    1.0065250   -0.8007800  
C    -3.1116050    3.3268310   -1.3207620  
C    -2.0211700    4.2956910   -1.2051820  
O    -2.1164400    5.4462670   -1.5977940  
C    -0.6731130    3.8245990   -0.5506960  
O     0.2632010    4.6040270   -0.5223090  
C    -0.5670050    2.4338360   -0.0559730  
H    -1.1732820   -0.4133570    0.6557930  
H    -4.0498210    3.6559320   -1.7565710  
H    -4.5862510    0.9258650   -1.4230050  
C    -3.0935940   -2.5531230   -0.1696580  
C    -3.9502250   -3.5926520   -0.0875970  
C    -5.2942930   -3.0549570   -0.0166910  
C    -5.1566670   -1.5786080   -0.0524400  
N    -3.7796980   -1.3194650   -0.1746420  
C    -6.2003150   -0.7214460    0.0661740  
C    -7.5541700   -1.2792260    0.1726270  
O    -8.5435830   -0.5734480    0.2678200  
C    -7.7210770   -2.8375640    0.1606130  
O    -8.8394600   -3.3184170    0.2230500  
C    -6.5057930   -3.6566970    0.0831980  
H    -3.6831000   -4.6396180   -0.0846660  
H    -6.1022730    0.3560860    0.1194670  
H    -6.6213090   -4.7356020    0.1189910  
H    -2.0164940   -2.5474960   -0.2557470  
