58


C     5.6112400   -1.4341520   -2.6315300  
C     6.9463970   -1.6621600   -2.6379680  
C     7.4439410   -1.3630630   -1.3118350  
C     6.2656250   -0.9423840   -0.5143430  
N     5.1678950   -0.9819020   -1.3787800  
C     6.3098690   -0.6307610    0.8048590  
C     7.6062100   -0.6644530    1.4841810  
O     7.7388100   -0.3927700    2.6666820  
C     8.8728830   -1.0696350    0.6475710  
O     9.9635860   -1.0887700    1.1945630  
C     8.6854320   -1.4201730   -0.7634830  
H     7.5350580   -1.9929250   -3.4813880  
H     5.4357210   -0.3652240    1.3889010  
H     9.5609140   -1.7287050   -1.3267260  
H     4.8883250   -1.5279310   -3.4307450  
C     2.7382710   -1.4748890   -1.3470150  
C     3.8299480   -0.7200450   -1.0560420  
C     3.2950400    0.5270010   -0.4774290  
C     1.8227010    0.2948250   -0.4619840  
N     1.5117840   -0.8563200   -0.9871060  
C     0.8989690    1.2880070    0.0521700  
C     1.4335070    2.4837190    0.4271210  
O     0.7114140    3.5016680    0.9124230  
C     2.9084270    2.7604140    0.3613240  
O     3.2995790    3.8661770    0.7264840  
C     3.8297110    1.7051930   -0.1121110  
H     1.3582920    4.2169920    1.1029360  
H     4.8894450    1.9385880   -0.1277210  
H     2.7182930   -2.4534160   -1.8116690  
C    -1.2388050   -1.6726710    2.4331250  
C    -2.5274650   -1.4981060    2.0454780  
C    -2.4902190   -0.4270840    1.0640330  
C    -1.0394640   -0.0677150    0.9848310  
N    -0.3173610   -0.7995120    1.7814000  
C    -0.5461540    0.9980550    0.1336440  
C    -1.4845570    1.7210020   -0.5334860  
O    -1.1897550    2.7590060   -1.3300430  
C    -2.9475290    1.4118710   -0.4485940  
O    -3.7048970    2.1795550   -1.0496550  
C    -3.4353840    0.2268700    0.3214000  
H    -3.4022560   -1.9998050    2.4296010  
H    -2.0490730    3.1028920   -1.6557380  
H    -0.8561790   -2.3696840    3.1690250  
C    -4.8373600   -0.1535360    0.2410900  
C    -5.4071750   -1.3794060    0.5107770  
C    -6.8160820   -1.2817990    0.2455500  
C    -7.0530250    0.1079330   -0.2170000  
N    -5.8281300    0.7377350   -0.1799010  
C    -8.2652600    0.5931840   -0.5881330  
C    -9.4197900   -0.2984740   -0.5264250  
O   -10.5483960    0.0476560   -0.8398600  
C    -9.1925190   -1.7741210   -0.0306340  
O   -10.1457720   -2.5349090    0.0302630  
C    -7.8341360   -2.1825920    0.3390350  
H    -4.8816580   -2.2730990    0.8086920  
H    -8.4214520    1.6125930   -0.9266380  
H    -7.6874440   -3.2043430    0.6760090  
H    -5.6033430    1.6380150   -0.5797440  
