60


C    -0.2979870   -0.2530930   -0.0518720  
C     0.0819970    1.0834430    0.0455060  
C    -1.1031860    1.8634280    0.0925830  
C    -2.2061390    0.9636690    0.0248130  
N    -1.6938920   -0.3081960   -0.0435140  
C    -3.5531830    1.3856860    0.0281420  
C    -3.7586470    2.7658530    0.1082550  
O    -5.0214300    3.2534810    0.1727210  
C    -2.6658480    3.6783740    0.1725330  
O    -3.0623360    4.9986190    0.2563900  
C    -1.3563290    3.2512540    0.1699660  
H     1.1042950    1.4276430    0.0761920  
H    -2.2127660   -1.1558260   -0.2256010  
H    -4.9630330    4.2245730    0.1375350  
H    -2.2887610    5.5754830    0.1729800  
H    -0.5384070    3.9662400    0.2248990  
C     4.0837280   -0.7555340   -0.0975570  
C     4.1797470   -2.1164990   -0.2227010  
C     2.8224590   -2.6073050   -0.2607130  
C     1.9756450   -1.3819730   -0.1464240  
N     2.7068150   -0.3184190   -0.0508300  
C     0.5061510   -1.4489770   -0.1481700  
C    -0.0115060   -2.7176050   -0.2536450  
O    -1.3459220   -2.9792470   -0.2680410  
C     0.8078110   -3.9429190   -0.3662200  
O     0.2123480   -5.0266580   -0.4576970  
C     2.2732420   -3.8364350   -0.3662810  
H     5.0858780   -2.6968890   -0.2820040  
H    -1.3966510   -3.9589230   -0.3705690  
H     2.8426580   -4.7569430   -0.4515800  
C     8.4350320   -1.3067540   -0.2324990  
C     8.8909910   -0.0403810   -0.1182080  
C     7.6943250    0.7836020   -0.0122820  
C     6.5558390   -0.1930730   -0.0847710  
N     7.0062340   -1.4062970   -0.2125150  
C     5.1498780    0.2254240   -0.0159600  
C     4.9535750    1.5835390    0.1257560  
O     3.7706490    2.1957600    0.2158590  
C     6.0936780    2.5687600    0.2004640  
O     5.7992200    3.7581020    0.3280800  
C     7.4842250    2.1046280    0.1232760  
H     9.9138690    0.3088430   -0.1056490  
H     3.9948400    3.1527720    0.3062130  
H     8.2672030    2.8544580    0.1811080  
H     9.0089490   -2.2198750   -0.3339090  
C    -4.6696900   -2.0392460    2.5457660  
C    -5.7915950   -2.4520410    1.8999510  
C    -5.9945540   -1.5611560    0.7768620  
C    -4.8801780   -0.5830030    0.8217240  
N    -4.1190290   -0.9258360    1.9248950  
C    -4.6883020    0.4432360   -0.0592970  
C    -5.6642090    0.5456140   -1.1675430  
O    -5.5475260    1.3429070   -2.0809830  
C    -6.8890990   -0.4437110   -1.1928750  
O    -7.7352540   -0.3004870   -2.0625340  
C    -6.9581490   -1.4945110   -0.1813680  
H    -6.4205330   -3.2864240    2.1739300  
H    -7.7947600   -2.1852370   -0.2231160  
H    -4.1960320   -2.4494830    3.4280140  
H    -3.2639900   -0.4627520    2.1916860  
