60


C     3.3602380    0.8503860   -0.2797550  
C     1.9934480    0.8527280   -0.0589140  
C     1.5465810    2.2056770   -0.0922510  
C     2.6931080    3.0056450   -0.3596520  
N     3.7895430    2.1701790   -0.4162030  
C     2.6330040    4.3882220   -0.5406690  
C     1.3791140    4.9750060   -0.4708850  
O     1.2449350    6.3090640   -0.6530950  
C     0.2062530    4.2067510   -0.2127670  
O    -0.9307200    4.9675600   -0.1595990  
C     0.2609930    2.8288520    0.0274840  
H     1.4037000   -0.0261410    0.1542510  
H     4.6607330    2.4227370   -0.8616150  
H     3.5060360    4.9975600   -0.7491430  
H     0.2872100    6.4951630   -0.5982260  
H    -1.6433320    4.4599810   -0.6134170  
C    -0.5752300   -0.2026440    3.1914380  
C     0.0140650    0.7848330    2.4804600  
C    -0.9304610    1.1144890    1.4166500  
C    -2.0704860    0.1895170    1.6462190  
N    -1.8491170   -0.5861210    2.6699270  
C    -3.2634280    0.1724520    0.7914180  
C    -3.2953770    1.1541000   -0.1648870  
O    -4.3711040    1.3764110   -0.9552610  
C    -2.2008020    2.1209570   -0.3654410  
O    -2.4102970    3.0282000   -1.1947270  
C    -0.9168860    2.0199840    0.3984020  
H     0.9674530    1.2588580    2.6586840  
H    -4.1353500    2.1534610   -1.5059870  
H    -0.2061130   -0.7075460    4.0754680  
C    -4.5978070   -1.3731570    2.2396380  
C    -4.3183600   -0.8036850    1.0160810  
C    -5.2457810   -1.4232690    0.0609230  
C    -6.0864540   -2.3586670    0.8500380  
N    -5.6407830   -2.2611100    2.1572390  
C    -7.0693460   -3.1465190    0.3504050  
C    -7.3275320   -3.1031100   -1.0866280  
O    -8.1936300   -3.7699960   -1.6299110  
C    -6.4256810   -2.1589300   -1.9559070  
O    -6.6019630   -2.1188400   -3.1629830  
C    -5.3972030   -1.3508960   -1.2872710  
H    -7.6615950   -3.8206480    0.9616880  
H    -4.8045110   -0.6948760   -1.9100250  
H    -4.0919260   -1.1996770    3.1768930  
H    -6.0055800   -2.7964480    2.9306710  
C     4.2874030   -0.2457160   -0.3260640  
C     4.0700390   -1.5751790   -0.5824730  
C     5.3307210   -2.2607450   -0.5022930  
C     6.3390670   -1.2263120   -0.1683830  
N     5.6657030   -0.0066800   -0.1402500  
C     7.6490990   -1.4799020    0.0588440  
C     8.1217450   -2.8598840   -0.0667080  
O     9.2860010   -3.1777290    0.1180090  
C     7.0800490   -3.9662790   -0.4692590  
O     7.4651860   -5.1206050   -0.5893300  
C     5.6898060   -3.5655970   -0.6688080  
H     3.1221390   -2.0159320   -0.8564660  
H     8.3735090   -0.7119210    0.3132070  
H     4.9744300   -4.3404040   -0.9271680  
H     5.9851210    0.7447960    0.4574670  
