60


C     2.0895630   -0.9773480   -1.3063140  
C     3.0248050   -0.2617990   -0.5802950  
C     2.2790820    0.6633360    0.2499700  
C     0.9075170    0.4410450   -0.0161350  
N     0.8294810   -0.5645090   -0.9636040  
C    -0.1343520    1.1790040    0.5832790  
C     0.2595290    2.1820700    1.4709530  
O    -0.6847340    2.9281030    2.1062320  
C     1.6323170    2.4333080    1.7331540  
O     1.8369610    3.4623890    2.6254940  
C     2.6389990    1.6932110    1.1419070  
H    -0.0281740   -0.8946960   -1.3799580  
H    -0.2193030    3.5838120    2.6556090  
H     2.7841360    3.6485650    2.7092780  
H     3.6815990    1.9275230    1.3403030  
H     2.2403950   -1.7770980   -2.0169430  
C    -2.1779920   -0.2979910    0.4153640  
C    -1.5526230    0.9034330    0.2904950  
C    -2.5490530    1.8357600   -0.2320180  
C    -3.8017340    1.0671530   -0.4060020  
N    -3.5134860   -0.2540050   -0.0134930  
C    -4.9726730    1.6149060   -0.8051880  
C    -4.9976360    3.0403130   -1.1460330  
O    -6.0115150    3.6077090   -1.5178920  
C    -3.6637380    3.8551970   -1.0263260  
O    -3.6578740    5.0371820   -1.3275860  
C    -2.4716330    3.1541280   -0.5371720  
H    -5.8952570    1.0591410   -0.9152770  
H    -1.5629780    3.7302030   -0.4046730  
H    -1.7812490   -1.2351070    0.7821600  
C    -4.3711290   -3.2376680    3.1336810  
C    -3.8522330   -2.1495580    2.5113510  
C    -4.4597250   -2.1503160    1.1853160  
C    -5.3372000   -3.3541480    1.1877850  
N    -5.2821440   -3.9837240    2.3285810  
C    -6.1466960   -3.7174290    0.0520800  
C    -6.0903250   -2.9292680   -1.0450810  
O    -6.7970220   -3.1481430   -2.1668820  
C    -5.1960490   -1.7253330   -1.1102510  
O    -5.1233660   -1.1204020   -2.1744640  
C    -4.3948240   -1.3376100    0.0974680  
H    -3.1709020   -1.4153470    2.9169950  
H    -6.7785020   -4.5972230    0.0983380  
H    -6.5217390   -2.4552660   -2.8039100  
H    -4.1799390   -3.5765500    4.1447590  
C     4.4563070   -0.4426150   -0.6553740  
C     5.2433160   -0.8746130   -1.6916600  
C     6.6068890   -0.9225010   -1.2369410  
C     6.5796070   -0.4825620    0.1799850  
N     5.2623410   -0.1428350    0.4596490  
C     7.6633220   -0.4442720    0.9916660  
C     8.9615630   -0.8253480    0.4354740  
O     9.9908200   -0.8149720    1.0928510  
C     9.0230400   -1.2519140   -1.0771370  
O    10.1046100   -1.5629380   -1.5556480  
C     7.7785770   -1.2698100   -1.8408060  
H     4.9019740   -1.0821670   -2.6959050  
H     7.6234820   -0.1308910    2.0307250  
H     7.8301400   -1.5845810   -2.8787260  
H     4.8910200   -0.1608170    1.3993000  
