62


C    -1.4559090   -1.8716770    1.1691810  
C    -0.7635890   -0.9879520    0.3725080  
C    -1.7244830    0.0082060   -0.0494330  
C    -2.9702320   -0.3288460    0.5346930  
N    -2.7746600   -1.4723690    1.2821740  
C    -4.1572350    0.4036450    0.3162330  
C    -4.0466130    1.5046550   -0.5358640  
O    -5.1423400    2.2788590   -0.7890220  
C    -2.8086720    1.8474760   -1.1383710  
O    -2.8805170    2.9672710   -1.9479110  
C    -1.6547080    1.1238780   -0.9063420  
H    -3.5144090   -2.0031010    1.7150390  
H    -4.8686970    2.9609360   -1.4274540  
H    -2.0544210    3.0598540   -2.4451110  
H    -0.7184120    1.4023050   -1.3840590  
H    -1.0963950   -2.7447430    1.6953830  
C     1.3253270   -2.1653980   -0.4623350  
C     0.6552700   -1.0618500    0.0163300  
C     1.6408140   -0.0077410    0.1111690  
C     2.8773530   -0.5377720   -0.3329110  
N     2.6520120   -1.8521930   -0.6814750  
C     4.0888710    0.1964670   -0.3413290  
C     3.9971680    1.5110670    0.1318890  
O     5.1042050    2.3134830    0.1432240  
C     2.7680170    2.0512430    0.5858840  
O     2.8678650    3.3636670    1.0131790  
C     1.5964710    1.3189090    0.5810330  
H     3.3727720   -2.4994450   -0.9614610  
H     4.8219230    3.1814980    0.4821350  
H     2.0010320    3.6724400    1.3152260  
H     0.6668680    1.7522960    0.9421370  
H     0.9449230   -3.1497810   -0.6958920  
C    -5.6323250   -0.1863680    2.2881660  
C    -5.4305130    0.0251150    0.9554140  
C    -6.7150170   -0.2377540    0.3042460  
C    -7.6660650   -0.6113150    1.3796980  
N    -6.9417320   -0.5773020    2.5546780  
C    -8.9734930   -0.9203380    1.1816420  
C    -9.4901090   -0.9020870   -0.1821280  
O   -10.6499350   -1.1661470   -0.4623690  
C    -8.4937950   -0.5306530   -1.3415880  
O    -8.9026070   -0.5213800   -2.4918730  
C    -7.1049510   -0.2070330   -0.9946630  
H    -9.6525530   -1.1869960    1.9858500  
H    -6.4329940    0.0682820   -1.7994570  
H    -4.9282930   -0.0719170    3.1025050  
H    -7.3334640   -0.7023970    3.4748240  
C     5.4883990   -1.2239160   -1.9138080  
C     5.3331230   -0.3969250   -0.8385270  
C     6.6946340   -0.3230490   -0.2559510  
C     7.5236940   -1.1821100   -1.1478790  
N     6.8132770   -1.6980480   -2.1128150  
C     8.9309680   -1.3815110   -0.9159320  
C     9.4870470   -0.7806610    0.1628290  
O    10.7831640   -0.8845950    0.5049660  
C     8.6726470    0.0719700    1.0922910  
O     9.2462960    0.5827060    2.0539250  
C     7.2316450    0.2717280    0.8250420  
H     9.5069760   -2.0050190   -1.5908170  
H    10.8787380   -0.3450940    1.3204100  
H     6.6851190    0.9169290    1.5023970  
H     4.7275280   -1.5140080   -2.6296680  
