60


C     0.6057730    2.4311440   -0.1145070  
C     1.1143460    1.1385060    0.0016350  
C     2.4677770    1.1620050   -0.4067470  
C     2.7651150    2.5162100   -0.7549650  
N     1.6271370    3.2565880   -0.5600690  
C     4.0195460    2.9198870   -1.2167730  
C     4.9937280    1.9407170   -1.3386930  
O     6.2226740    2.2708550   -1.8203390  
C     4.7343060    0.5929320   -0.9683260  
O     5.8229030   -0.2321960   -1.1669230  
C     3.4952860    0.1701260   -0.4805440  
H     0.5548580    0.2900200    0.3573310  
H     1.5274560    4.2613460   -0.6059180  
H     4.2454320    3.9430100   -1.4974940  
H     6.7424800    1.4498200   -1.8752830  
H     5.5508130   -1.1570750   -1.0576060  
C    -3.4173260    0.4726140    0.0425760  
C    -2.0851840    0.7281510   -0.2365910  
C    -1.8423950    2.0761890    0.1701240  
C    -3.1487220    2.5431840    0.6919180  
N    -4.0582050    1.6139050    0.6465850  
C    -3.3344660    3.8930790    1.1724280  
C    -2.2934610    4.7479590    1.0589190  
O    -2.3442510    6.0494380    1.4029400  
C    -0.9623020    4.3156010    0.5124790  
O    -0.0991430    5.1968910    0.3919440  
C    -0.7298730    2.8944210    0.1659700  
H    -1.3941570    0.1018710   -0.7767020  
H    -4.2983260    4.2049330    1.5589370  
H    -1.4572240    6.4087970    1.1853280  
C    -2.2747790   -3.8157750   -0.5750900  
C    -2.2446800   -2.4609030   -0.4089660  
C    -3.6029130   -1.9929510   -0.3362820  
C    -4.4465790   -3.2032490   -0.4578530  
N    -3.5799970   -4.2689600   -0.6089540  
C    -5.8047710   -3.2388830   -0.3787750  
C    -6.5061730   -1.9818950   -0.1887400  
O    -7.7120250   -1.9020970   -0.0045510  
C    -5.6649400   -0.6619520   -0.2715150  
O    -6.2662690    0.3670460   -0.5063960  
C    -4.1722960   -0.7342090   -0.1653980  
H    -1.3360290   -1.8859690   -0.3681140  
H    -6.3803090   -4.1590020   -0.4164530  
H    -1.4381850   -4.4935900   -0.6719910  
H    -3.8658080   -5.2312120   -0.6994920  
C     5.7683150   -2.4269010    2.3215340  
C     5.3168200   -1.3930020    1.5657450  
C     4.1390000   -1.8538690    0.8562910  
C     3.9349830   -3.2593730    1.2831390  
N     4.9696360   -3.5529980    2.1446680  
C     2.9001340   -4.0560910    0.8992970  
C     1.9034370   -3.4844430    0.0234170  
O     0.8926030   -4.0782130   -0.3342940  
C     2.1146590   -2.0087990   -0.4965150  
O     1.2922890   -1.5734320   -1.2838300  
C     3.2874730   -1.2196010   -0.0243760  
H     5.7494900   -0.4066500    1.5109710  
H     2.7696290   -5.0757020    1.2477920  
H     6.6143080   -2.4671150    2.9945660  
H     5.0562990   -4.4145360    2.6612030  
