58


C    -3.6177120   -0.1316820   -1.4958510  
C    -3.0234260   -0.9561160   -0.5755510  
C    -4.1028440   -1.7855750   -0.0189180  
C    -5.3481520   -1.3534940   -0.6996080  
N    -4.9757990   -0.3498830   -1.5795070  
C    -6.5832400   -1.8639400   -0.4716940  
C    -6.7228760   -2.9125160    0.5351570  
O    -7.7906290   -3.4357640    0.8108770  
C    -5.4274120   -3.3673610    1.2958710  
O    -5.5166250   -4.2247690    2.1583870  
C    -4.1437340   -2.7425960    0.9409950  
H    -7.4744970   -1.5248730   -0.9907660  
H    -3.2602870   -3.0995240    1.4551620  
H    -3.1432940    0.5972470   -2.1387530  
H    -5.5941070    0.0825250   -2.2488060  
C    -0.0021360    2.2915580    0.0675520  
C    -1.1868860    1.6249860   -0.1554090  
C    -0.8591620    0.2184200   -0.1464590  
C     0.6121460    0.1889560    0.0706620  
N     1.1009710    1.3884150    0.1749220  
C     1.3879430   -1.0550070    0.1535970  
C     0.6307250   -2.1946300    0.0789260  
O     1.1398360   -3.4393270    0.2026700  
C    -0.8432860   -2.2003770   -0.1194870  
O    -1.3932160   -3.3065880   -0.1755510  
C    -1.5998330   -0.9260710   -0.2580900  
H    -2.1844970    2.0428560   -0.1581280  
H     0.3617920   -4.0365800    0.1151550  
C     3.5369790    0.0183030    0.9383460  
C     2.8271500   -1.0065450    0.3560110  
C     3.8697140   -1.9848840   -0.0318490  
C     5.1429610   -1.3557520    0.4342530  
N     4.9301790   -0.1992650    1.0027090  
C     6.4243680   -1.9780200    0.2432870  
C     6.4611430   -3.1615620   -0.4141530  
O     7.5812290   -3.8517600   -0.6755990  
C     5.2046280   -3.8059010   -0.9302570  
O     5.3177740   -4.8734160   -1.5309230  
C     3.8992740   -3.1517800   -0.7054470  
H     7.3195910   -1.4886780    0.6104470  
H     7.2845260   -4.6525220   -1.1624710  
H     3.0229040   -3.6673150   -1.0752350  
H     3.1342780    0.9403700    1.3334010  
C    -1.9256450    5.6996760   -1.9007410  
C    -1.2214670    6.7154850   -1.3426030  
C    -0.2695470    6.1245460   -0.4236250  
C    -0.4890270    4.6643920   -0.4842530  
N    -1.5260070    4.4729000   -1.3698420  
C     0.2436250    3.7142200    0.1906400  
C     1.2983280    4.2325100    1.1006390  
O     1.9344570    3.5304540    1.8631930  
C     1.5677520    5.7828090    1.1390130  
O     2.4913830    6.1967570    1.8197880  
C     0.6997020    6.6668250    0.3620270  
H    -1.3410700    7.7698980   -1.5444890  
H     0.8850740    7.7352180    0.4158010  
H    -2.7143940    5.7327500   -2.6404950  
H    -1.7554140    3.5654940   -1.7494020  
