60


C    -1.8284570   -0.3340470    0.5790700  
C    -3.0837940   -0.1665650    0.0267990  
C    -3.2016690    1.2489080   -0.2783790  
C    -2.0015900    1.8699770    0.1397110  
N    -1.1599990    0.8763910    0.6473630  
C    -1.7639850    3.2419520    0.0075520  
C    -2.7724260    4.0095600   -0.5521540  
O    -2.5992530    5.3520440   -0.7101090  
C    -3.9881500    3.4071070   -0.9715490  
O    -4.8928940    4.2971050   -1.5151990  
C    -4.2136410    2.0509320   -0.8393880  
H    -0.8484680    3.7148840    0.3420520  
H    -3.4132450    5.7013800   -1.1125330  
H    -5.6660460    3.8118390   -1.8401120  
H    -5.1366260    1.6093210   -1.1999190  
H    -1.3475070   -1.2350190    0.9325500  
C     2.3871180   -0.7843380   -1.1228220  
C     3.3399060   -0.3456420   -0.2449770  
C     2.6269010    0.4420970    0.7690790  
C     1.1993540    0.4081200    0.3818030  
N     1.1200640   -0.3576800   -0.7586720  
C     0.1854250    1.0286680    1.0540080  
C     0.5296250    1.8130350    2.2467170  
O    -0.2976550    2.3867060    2.9334600  
C     2.0517130    1.9031340    2.6385610  
O     2.3637930    2.6015200    3.5880400  
C     3.0370280    1.1562930    1.8475820  
H     4.0697630    1.1950160    2.1717450  
H     2.5138410   -1.4110820   -1.9952740  
H     0.2607680   -0.5607180   -1.2482970  
C     6.1727970   -0.1756660   -3.6600470  
C     5.0808490   -0.0718410   -2.8577440  
C     5.4680580   -0.5164800   -1.5350800  
C     6.9003560   -0.8871250   -1.6352630  
N     7.2577760   -0.6782510   -2.9532540  
C     7.6696530   -1.3269840   -0.6052950  
C     7.0515190   -1.4423880    0.7043170  
O     7.6516050   -1.7987050    1.7066870  
C     5.5235830   -1.0870120    0.8404900  
O     4.9961880   -1.2313530    1.9304760  
C     4.7759090   -0.6136690   -0.3516280  
H     4.1122870    0.3033060   -3.1504910  
H     8.7189250   -1.5848440   -0.7087570  
H     6.2806800    0.0745400   -4.7070920  
H     8.1899120   -0.7933070   -3.3192040  
C    -4.2727780   -3.5462330    2.6455460  
C    -3.7366120   -2.4038500    2.1459490  
C    -4.2585080   -2.2255000    0.8048430  
C    -5.1666820   -3.3706840    0.5679280  
N    -5.1072960   -4.1476450    1.7059080  
C    -5.9059940   -3.5709100   -0.5581430  
C    -5.8118390   -2.5830410   -1.6113650  
O    -6.4506160   -2.6308130   -2.6539690  
C    -4.8311770   -1.3644350   -1.4048110  
O    -4.7338450   -0.5584400   -2.3157070  
C    -4.0551990   -1.2466150   -0.1412820  
H    -3.0694760   -1.7333280    2.6650870  
H    -6.5678720   -4.4201840   -0.6957150  
H    -4.1373750   -4.0029570    3.6167760  
H    -5.6756920   -4.9635950    1.8701760  
