60


C     1.9457890   -0.5431310   -0.0439640  
C     3.2204530   -0.0159960   -0.0268390  
C     3.0617210    1.4273250   -0.1305050  
C     1.6767360    1.6918390   -0.2375240  
N     1.0016550    0.4586360   -0.1802330  
C     1.1568910    2.9862570   -0.3191850  
C     2.0603150    4.0398850   -0.3290350  
O     1.6036960    5.3226530   -0.4060170  
C     3.4516510    3.7935250   -0.2517620  
O     4.2286160    4.9346120   -0.2719420  
C     3.9574110    2.5096220   -0.1541270  
H     0.0980550    3.1950200   -0.3853880  
H     2.3822250    5.9051580   -0.3675580  
H     5.1464690    4.7015290   -0.0661720  
H     5.0238410    2.3478740   -0.0456250  
H     1.6275360   -1.5638880    0.0888820  
C    -1.3982440   -2.0158230    2.4354650  
C    -2.6487530   -1.7569880    1.9879840  
C    -2.4736200   -0.8209100    0.8829360  
C    -0.9936620   -0.6276730    0.8056580  
N    -0.3750770   -1.3298000    1.7083440  
C    -0.3863480    0.2483310   -0.1875140  
C    -1.2294020    0.8329230   -1.0905200  
O    -0.8131650    1.6255810   -2.0936770  
C    -2.7064250    0.6677870   -1.0219960  
O    -3.3868360    1.2926370   -1.8358410  
C    -3.3189960   -0.2243330    0.0085510  
H    -3.5863370   -2.1444970    2.3592480  
H    -1.6349000    1.9213970   -2.5453170  
H    -1.0999060   -2.6656090    3.2490280  
C    -6.6259730    0.5165770    2.9410020  
C    -5.3866540    0.4259520    2.4016800  
C    -5.5978130   -0.0919540    1.0551090  
C    -7.0872310   -0.2500930    0.9575120  
N    -7.6781890    0.1057090    2.0611120  
C    -7.7227070   -0.7264510   -0.2422560  
C    -6.9310210   -1.0344140   -1.2956260  
O    -7.3864450   -1.5024770   -2.4671600  
C    -5.4323340   -0.9092520   -1.2291800  
O    -4.7882890   -1.2977430   -2.1980580  
C    -4.7844970   -0.3778370    0.0077360  
H    -4.4399010    0.6791120    2.8561150  
H    -8.8012480   -0.8307290   -0.2801220  
H    -6.5896950   -1.6575880   -3.0200360  
H    -6.8936310    0.8612960    3.9328110  
C     4.3153750   -3.9104160   -1.8472120  
C     3.7067420   -2.7395360   -1.5285380  
C     4.5578140   -2.0452400   -0.5820140  
C     5.7369490   -2.9172590   -0.3855180  
N     5.5158430   -4.0410210   -1.1544250  
C     6.8129920   -2.6272650    0.3972390  
C     6.8214350   -1.3547810    1.0847480  
O     7.7440870   -0.9610010    1.7851420  
C     5.5720160   -0.4059520    0.9136590  
O     5.5919400    0.6570830    1.5106890  
C     4.4291020   -0.8317300    0.0586230  
H     2.7728470   -2.3787390   -1.9300650  
H     7.6625060   -3.2923910    0.5162710  
H     3.9981740   -4.6887060   -2.5282820  
H     6.1772310   -4.7925890   -1.2699950  
