60


C     1.4630040   -2.1571350   -0.1041320  
C     2.7025340   -1.5790180   -0.3236850  
C     3.7041260   -2.5912640   -0.1471840  
C     2.9711390   -3.8342500    0.2025870  
N     1.6354180   -3.5000220    0.2204710  
C     3.5676100   -5.0293280    0.4443530  
C     5.0233540   -5.1107450    0.3567620  
O     5.6452990   -6.1431730    0.5578280  
C     5.8203430   -3.8059980   -0.0146640  
O     7.0400410   -3.8592190   -0.0930340  
C     5.0643600   -2.5798540   -0.2501540  
H     2.8917550   -0.5805140   -0.6866020  
H     3.0163940   -5.9293350    0.6981260  
H     5.6266750   -1.6858930   -0.5042000  
H     0.8399670   -4.1198260    0.3222890  
C     0.1208050    2.0214400    0.1686550  
C    -1.2213370    1.8160250   -0.0357760  
C    -1.4450310    0.4133580   -0.2343420  
C    -0.1188390   -0.2252340   -0.1408870  
N     0.7890570    0.7869940    0.0365500  
C     0.1331900   -1.5853910   -0.1777210  
C    -1.0606280   -2.4362290   -0.2284620  
O    -1.0445080   -3.6514320   -0.0657820  
C    -2.4576550   -1.7820590   -0.5160870  
O    -3.3803050   -2.5366920   -0.7766260  
C    -2.5967550   -0.3165790   -0.4644370  
H    -1.9748640    2.5883360   -0.0497130  
H     1.7005900    0.6176650    0.4431320  
C    -4.0901370    1.4145630   -1.4962000  
C    -3.8937200    0.3042780   -0.7166260  
C    -5.2218800   -0.0747520   -0.2123230  
C    -6.1755980    0.9164000   -0.7685750  
N    -5.4191380    1.7873410   -1.5334520  
C    -7.5124250    0.9295130   -0.5400930  
C    -8.0738140   -0.0928090    0.3374780  
O    -9.2627250   -0.1634120    0.6067190  
C    -7.0831790   -1.1355140    0.9676750  
O    -7.5199360   -1.9803690    1.7312000  
C    -5.6565960   -1.0538540    0.6193840  
H    -8.1836390    1.6681180   -0.9676130  
H    -5.0017370   -1.8101020    1.0345230  
H    -3.3575620    1.9690760   -2.0673160  
H    -5.7991310    2.5234460   -2.1086090  
C     0.3294030    4.3107500    1.1581790  
C     0.8568030    3.2151350    0.4888810  
C     2.2524200    3.5208210    0.2339450  
C     2.4949720    4.8039830    0.7798230  
N     1.3029060    5.2520360    1.3290970  
C     3.7380100    5.4412130    0.7128930  
C     4.7660590    4.7673550    0.0723840  
O     5.9956730    5.3378810   -0.0176670  
C     4.5400380    3.4872610   -0.5046730  
O     5.6491280    2.9634850   -1.1267840  
C     3.3054890    2.8656080   -0.4371250  
H     1.1842630    6.1230460    1.8247370  
H     3.9203100    6.4248500    1.1327000  
H     6.5756230    4.7189410   -0.4950020  
H     5.4554470    2.0820730   -1.4793150  
H     3.1548690    1.9076490   -0.9285850  
H    -0.6643980    4.4553560    1.5568460  
