58


C    -4.7974050   -0.3801380    2.1821510  
C    -4.2862150   -0.0922730    0.9417950  
C    -5.2666640   -0.5911700   -0.0275560  
C    -6.3873060   -1.1543770    0.7695990  
N    -6.0377040   -0.9782990    2.0942360  
C    -7.5018690   -1.7323890    0.2556330  
C    -7.6205420   -1.8414480   -1.1936980  
O    -8.5836720   -2.3460950   -1.7511800  
C    -6.4336930   -1.2924520   -2.0625520  
O    -6.4956540   -1.3942620   -3.2781490  
C    -5.2875690   -0.6774480   -1.3836520  
H    -8.3015640   -2.1334110    0.8710640  
H    -4.4944140   -0.2878020   -2.0076170  
H    -4.3373580   -0.2069340    3.1427680  
H    -6.5874380   -1.2875680    2.8807670  
C    -0.6294600   -0.3336330    3.3129030  
C     0.2465870    0.3945630    2.5829120  
C    -0.5119930    0.8614930    1.4292920  
C    -1.8779410    0.2950720    1.6359400  
N    -1.9342860   -0.3985580    2.7390520  
C    -2.9842900    0.5325450    0.7088250  
C    -2.6957450    1.3737090   -0.3295200  
O    -3.5994700    1.7596110   -1.2502920  
C    -1.3350160    1.9390340   -0.5765320  
O    -1.1739920    2.5837270   -1.6102060  
C    -0.2184350    1.6784410    0.3863440  
H     1.2853120    0.6011790    2.7951970  
H    -3.0972420    2.3226790   -1.8819700  
H    -0.4537270   -0.8456210    4.2514800  
C     3.9234510    0.0765090   -0.1869020  
C     2.5711640    0.2201180    0.0449820  
C     2.2613110    1.6184370    0.0004670  
C     3.5383150    2.3170380   -0.2845560  
N     4.4990830    1.3375730   -0.3723040  
C     3.6712340    3.6595920   -0.4404950  
C     2.4809480    4.4905300   -0.3259520  
O     2.4905760    5.7017800   -0.4799550  
C     1.1213210    3.7908980    0.0249940  
O     0.1483550    4.4858650    0.2614700  
C     1.0788890    2.3115160    0.1240880  
H     1.8905110   -0.5954670    0.2220020  
H     4.6165360    4.1422890   -0.6680100  
H     5.4742240    1.4824970   -0.5869110  
C     2.7684130   -4.1535510    0.2836070  
C     3.9482090   -4.7845850    0.1000840  
C     4.9172200   -3.7220200   -0.1417700  
C     4.1096230   -2.4609100   -0.0643790  
N     2.8642550   -2.7249440    0.1841280  
C     4.7168560   -1.1374820   -0.2552700  
C     6.0659400   -1.1482300   -0.5047480  
O     6.8069890   -0.0424170   -0.7083470  
C     6.8857730   -2.4011830   -0.5830910  
O     8.0883680   -2.2666280   -0.8135320  
C     6.2407340   -3.7059790   -0.3878460  
H     4.1531570   -5.8456480    0.1219270  
H     7.7244770   -0.3746460   -0.8609840  
H     6.8677760   -4.5897590   -0.4529550  
H     1.7972150   -4.5862080    0.4884040  
