58


C     2.8880910   -0.9964550   -1.8203190  
C     3.6866370   -0.6204040   -0.7724400  
C     4.3272420   -1.8531810   -0.2920600  
C     3.8153480   -2.9508780   -1.1491810  
N     2.9401670   -2.3614710   -2.0442870  
C     4.1607200   -4.2580140   -1.0346560  
C     5.0871760   -4.6378970    0.0266480  
O     5.4513660   -5.7880920    0.2166800  
C     5.6175350   -3.5013240    0.9721740  
O     6.3645000   -3.7966320    1.8899600  
C     5.1879860   -2.1168530    0.7222260  
H     3.7729280   -5.0367920   -1.6843990  
H     5.6041760   -1.3434510    1.3560190  
H     2.2831890   -0.3670840   -2.4594090  
H     2.5410890   -2.8301130   -2.8433640  
C     0.6737480    2.5732280    0.0322440  
C     1.3259760    1.3772480   -0.2335600  
C     2.7331570    1.5914080   -0.1197540  
C     2.8980290    3.0167070    0.2471810  
N     1.6314220    3.5491640    0.3039560  
C     4.0888330    3.6273790    0.4811590  
C     5.2978610    2.8274860    0.3876070  
O     6.4170710    3.2669340    0.6028250  
C     5.1622910    1.3107670   -0.0101560  
O     6.1845750    0.6498470   -0.1037660  
C     3.8189200    0.7480610   -0.2775760  
H     0.8515500    0.4501250   -0.5056730  
H     4.1793260    4.6758610    0.7462370  
H     1.3859850    4.5188870    0.4498820  
C    -3.1290740    0.1510210    0.1313130  
C    -1.7716020    0.4992610    0.1854760  
C    -1.7481140    1.8990220    0.0520120  
C    -3.1950380    2.2828860   -0.0769050  
N    -3.9885960    1.2348130   -0.0422060  
C    -3.6248320    3.6362930   -0.2009010  
C    -2.6628850    4.5910330   -0.1439700  
O    -2.9092070    5.8953870   -0.2054370  
C    -1.1855340    4.2589260    0.0109830  
O    -0.4453660    5.2515870    0.1008700  
C    -0.7396760    2.8698240    0.0338120  
H    -0.9347870   -0.1533590    0.3691200  
H    -4.6764750    3.8772680   -0.3045500  
H    -2.0288410    6.3326620   -0.1186880  
C    -2.8809770   -2.2607110    0.4542470  
C    -3.6469450   -3.3697130    0.5291610  
C    -5.0284660   -2.9716770    0.3604240  
C    -5.0220850   -1.5026740    0.1764680  
N    -3.6593780   -1.1039270    0.2412190  
C    -6.1397910   -0.7658550   -0.0126470  
C    -7.4365080   -1.4642000   -0.0385800  
O    -8.4863820   -0.8692500   -0.2066880  
C    -7.4594560   -3.0177240    0.1551130  
O    -8.5249260   -3.6093600    0.1355810  
C    -6.1737760   -3.6973130    0.3528390  
H    -3.2904800   -4.3773460    0.6907790  
H    -6.1204490    0.3069420   -0.1431930  
H    -6.1851270   -4.7745050    0.4876520  
H    -1.8091740   -2.1665570    0.5383130  
