62


C     2.1622340   -2.8855500   -2.2435990  
C     0.9905130   -2.3604910   -1.7698770  
C     1.3385380   -1.3013780   -0.8638490  
C     2.7543440   -1.2388770   -0.8244710  
N     3.2281790   -2.2268720   -1.6582820  
C     3.4742250   -0.2718270   -0.0778600  
C     2.6782750    0.6700370    0.5927500  
O     3.2588200    1.6700950    1.3218470  
C     1.2650500    0.6041020    0.5877150  
O     0.6842020    1.5533130    1.4074860  
C     0.5650630   -0.3753400   -0.1172190  
H    -0.0047120   -2.6740960   -2.0497360  
H     4.1903170   -2.3009610   -1.9526340  
H     2.5283620    2.2001260    1.6944020  
H    -0.2258670    1.7449340    1.1226950  
H     2.3351760   -3.6842460   -2.9506730  
C    -1.6488170   -1.5725410    0.1877780  
C    -0.9030770   -0.4526210   -0.0733440  
C    -1.8565050    0.6312780   -0.2721050  
C    -3.2023930    0.0497270   -0.0731800  
N    -2.9998140   -1.2958090    0.1946610  
C    -4.3845090    0.7228650   -0.1786610  
C    -4.2834870    2.1792220   -0.4583150  
O    -5.2427760    2.9251370   -0.4138500  
C    -2.8721080    2.7913130   -0.7828790  
O    -2.8093500    3.9546890   -1.1471080  
C    -1.6936540    1.9401990   -0.6295920  
H    -0.7288270    2.3659560   -0.8918030  
H    -1.2974330   -2.5751540    0.3934410  
H    -3.7411970   -1.9550920    0.3784460  
C    -6.0791960   -1.5358760    3.2527150  
C    -7.2993070   -1.8122030    2.6990610  
C    -7.3092880   -1.2360080    1.3824460  
C    -6.0467000   -0.6212650    1.1885910  
N    -5.3008410   -0.8448700    2.3341950  
C    -5.7003240    0.0832860    0.0139290  
C    -6.6822460    0.1442320   -0.9798940  
O    -6.4036190    0.7570700   -2.1598860  
C    -7.9475960   -0.4716760   -0.8006690  
O    -8.7876140   -0.3293160   -1.8874930  
C    -8.2688390   -1.1589000    0.3544900  
H    -8.1011540   -2.3638980    3.1702150  
H    -4.4541490   -0.3466320    2.5643780  
H    -7.2260210    0.7768020   -2.6801450  
H    -9.6754940   -0.6399660   -1.6564800  
H    -9.2455100   -1.6255140    0.4644980  
H    -5.6802740   -1.7867150    4.2254420  
C     4.9289880   -0.2636790   -0.0228080  
C     5.8185730   -1.2958200   -0.2363160  
C     7.1506450   -0.7851220   -0.0594930  
C     6.9941390    0.6518850    0.2786230  
N     5.6400320    0.9041360    0.2639400  
C     8.0267790    1.4939400    0.5387750  
C     9.3858530    0.9642840    0.4832210  
O    10.3757950    1.6463900    0.7043670  
C     9.5760820   -0.5553010    0.1209870  
O    10.7098250   -1.0110930    0.0670890  
C     8.3843650   -1.3595750   -0.1370240  
H     5.5665200   -2.3332490   -0.3979250  
H     7.8933100    2.5426520    0.7859630  
H     8.5283250   -2.4076210   -0.3826190  
H     5.1897560    1.7423860    0.6017640  
