62


C    -2.0985030   -1.3381140   -0.8755760  
C    -0.8421210   -0.8419740   -0.5690320  
C    -0.9794970    0.6058560   -0.4682450  
C    -2.3303760    0.9252330   -0.7094480  
N    -2.9873610   -0.2873300   -0.9644070  
C    -2.8357640    2.2273920   -0.6700710  
C    -1.9340500    3.2394710   -0.3643420  
O    -2.3595680    4.5302050   -0.2999200  
C    -0.5680740    2.9395350   -0.1122980  
O     0.2094350    4.0336870    0.1916110  
C    -0.0836670    1.6473290   -0.1716410  
H    -3.8780460    2.4648520   -0.8509840  
H    -1.5877800    5.0740800   -0.0625570  
H     1.1063090    3.7381250    0.4309180  
H     0.9600870    1.4285860    0.0127580  
H    -2.4413660   -2.3482630   -1.0448960  
C     0.3616680   -1.5991440   -0.3634200  
C     0.5992190   -2.9508040   -0.3043650  
C     2.0085630   -3.0969910   -0.0612620  
C     2.5209770   -1.6859060    0.0191970  
N     1.5683490   -0.8327790   -0.1646840  
C     3.9308440   -1.3574110    0.2421470  
C     4.7446550   -2.4414070    0.3378260  
O     6.0910750   -2.3553640    0.4934020  
C     4.2698680   -3.8681490    0.2737990  
O     5.1400230   -4.7385590    0.3918060  
C     2.8541950   -4.1502830    0.0742460  
H    -0.1146100   -3.7561330   -0.4100850  
H     6.3883370   -3.2982430    0.5354470  
H     2.5511060   -5.1911330    0.0242710  
C     2.5113920    2.3402920    2.4120290  
C     2.7349720    1.0479240    2.0322880  
C     3.7405820    1.0635980    1.0011140  
C     4.1071570    2.4184010    0.8137540  
N     3.2877890    3.1967100    1.6272860  
C     5.1292140    2.8243420   -0.0502680  
C     5.8080380    1.8252870   -0.7285890  
O     6.8362900    2.1396630   -1.5619160  
C     5.4440450    0.4584770   -0.5854080  
O     6.1782640   -0.3951100   -1.3806720  
C     4.3860450    0.0517540    0.2347090  
H     2.2222520    0.1811650    2.4215220  
H     3.5458230    4.1277200    1.9250050  
H     5.4137240    3.8628460   -0.1855990  
H     7.1572630    1.2890850   -1.9172660  
H     6.4271820   -1.1803870   -0.8497740  
H     1.8368800    2.7427550    3.1548240  
C    -4.8687670   -0.2488900   -2.5408500  
C    -6.2188530   -0.3248470   -2.4869920  
C    -6.5953440   -0.5410860   -1.1014140  
C    -5.3351040   -0.5816320   -0.3229780  
N    -4.3156180   -0.4228290   -1.2615010  
C    -5.2503890   -0.7463800    1.0176120  
C    -6.4978680   -0.9106760    1.7657760  
O    -6.5305100   -1.0696460    2.9750240  
C    -7.8519100   -0.8862050    0.9648000  
O    -8.9009720   -1.0283360    1.5713640  
C    -7.7981160   -0.6911600   -0.4887570  
H    -6.8972290   -0.2439770   -3.3240140  
H    -4.3108630   -0.7618530    1.5595460  
H    -8.7393370   -0.6696410   -1.0296650  
H    -4.2023230   -0.0912780   -3.3779480  
