58


C     4.4551850   -0.2144240   -0.2289860  
C     5.1541350   -1.3935200   -0.3853400  
C     6.5502430   -1.1088260   -0.2010840  
C     6.6403150    0.3429980    0.0890630  
N     5.3496510    0.8242220    0.0391090  
C     7.8003740    0.9995470    0.3446570  
C     9.0477880    0.2399890    0.3281940  
O    10.1389210    0.7429860    0.5456590  
C     8.9757580   -1.2994590    0.0135260  
O    10.0065590   -1.9530280   -0.0076250  
C     7.6607380   -1.8972700   -0.2416960  
H     4.7272390   -2.3697750   -0.5526150  
H     7.8496900    2.0625970    0.5580250  
H     7.6211980   -2.9614690   -0.4537520  
H     5.0331830    1.7302220    0.3568070  
C     0.9785520   -2.4413260   -1.9534730  
C     2.2497040   -2.0428510   -1.7016240  
C     2.1247240   -0.8452920   -0.8875260  
C     0.6508860   -0.6447210   -0.7641730  
N    -0.0062620   -1.5895590   -1.3761730  
C     0.0561870    0.4849270   -0.0511310  
C     0.9523610    1.3484580    0.5180380  
O     0.5869880    2.4185700    1.2515200  
C     2.4233370    1.1939930    0.3902400  
O     3.1198190    2.0909340    0.8839810  
C     3.0170250   -0.0055780   -0.2806970  
H     3.1610790   -2.4857470   -2.0727110  
H     1.4232230    2.8701020    1.4993020  
H     0.6489930   -3.2926620   -2.5362930  
C    -2.2646790   -0.4353810    0.0366840  
C    -1.3964830    0.6238510    0.0165170  
C    -2.2235660    1.8328190   -0.0014610  
C    -3.6326280    1.3740560    0.0421850  
N    -3.5931320   -0.0329950    0.0479680  
C    -4.7044490    2.1945000    0.1150170  
C    -4.4819500    3.6418320    0.0675550  
O    -5.3937640    4.4495770    0.1305270  
C    -3.0100210    4.1492200   -0.0830930  
O    -2.7982080    5.3480200   -0.1687120  
C    -1.9310600    3.1553860   -0.0955470  
H    -5.7283030    1.8460440    0.1675610  
H    -0.9171800    3.5286420   -0.1401680  
H    -2.0312200   -1.4877610    0.0006100  
C    -4.4765770   -3.5207660    2.6057470  
C    -3.8516250   -2.4235820    2.1103800  
C    -4.7033070   -1.9683170    1.0188490  
C    -5.8272010   -2.9500120    0.9983300  
N    -5.6892270   -3.8519280    1.9292210  
C    -6.9140510   -2.8506590    0.0582810  
C    -6.8936080   -1.8303870   -0.8291230  
O    -7.8444700   -1.6175460   -1.7529630  
C    -5.7715570   -0.8310880   -0.8662770  
O    -5.7843550    0.0135310   -1.7542120  
C    -4.6710230   -0.9287680    0.1458830  
H    -2.9396800   -1.9625880    2.4616650  
H    -7.7157030   -3.5801610    0.0795990  
H    -7.5476730   -0.8446730   -2.2791660  
H    -4.1651340   -4.1413980    3.4373580  
