64


C     2.9563930   -0.1155270    0.5476610  
C     1.6855780    0.2717930    0.1981090  
C     1.6301740    1.6974130    0.3522180  
C     2.9128460    2.1255170    0.7856940  
N     3.7082790    0.9986530    0.8900270  
C     3.2310840    3.4673080    1.0155300  
C     2.2290100    4.4038960    0.8095580  
O     2.4759420    5.7262320    1.0384360  
C     0.9436920    4.0022130    0.3657420  
O     0.0536780    5.0444960    0.2100540  
C     0.6178350    2.6644950    0.1260000  
H     0.9022500   -0.3794780   -0.1599930  
H     4.6224060    0.9565640    1.3146300  
H     4.2108460    3.7929630    1.3493690  
H     1.6454120    6.2056620    0.8736010  
H    -0.8330750    4.6771100    0.0530710  
C     2.8503700   -2.5108580    1.1417550  
C     3.6593240   -3.6073860    1.0598680  
C     4.8967660   -3.1825580    0.4649530  
C     4.7774480   -1.7959630    0.1953810  
N     3.5109410   -1.3936240    0.6275110  
C     5.7947400   -1.0595510   -0.4261400  
C     6.9626740   -1.7318230   -0.7555350  
O     7.9843600   -1.0576210   -1.3598830  
C     7.1065320   -3.1152330   -0.4749530  
O     8.3269850   -3.6390080   -0.8569400  
C     6.0924060   -3.8419510    0.1216190  
H     3.4083940   -4.6049970    1.3933360  
H     5.6972660   -0.0096070   -0.6777080  
H     8.6941500   -1.7014060   -1.5271430  
H     8.3369980   -4.5926790   -0.6880200  
H     6.2177910   -4.9053520    0.3160530  
H     1.8537720   -2.3960050    1.5419700  
C    -2.6834870    0.2484810    2.0247650  
C    -1.5119560    0.8980530    1.7642820  
C    -1.6252680    1.4963250    0.4592790  
C    -2.9083360    1.1791280   -0.0444790  
N    -3.5413480    0.4148590    0.9337220  
C    -3.3795800    1.6067500   -1.2886280  
C    -2.5168300    2.3791330   -2.0512640  
O    -2.9049060    2.8192440   -3.2794530  
C    -1.2236860    2.7166970   -1.5690110  
O    -0.4842090    3.4785430   -2.4449000  
C    -0.7529170    2.2947830   -0.3246070  
H    -0.6536390    0.9477630    2.4186220  
H    -4.3618380    1.3504590   -1.6695480  
H    -2.1476990    3.2906170   -3.6696430  
H     0.4315290    3.5292990   -2.1182860  
H    -3.0104460   -0.3278510    2.8779070  
C    -5.9723820    0.5544430    1.2469840  
C    -7.0550570   -0.2348930    1.0519920  
C    -6.5895470   -1.4896770    0.4899020  
C    -5.1171560   -1.3746080    0.3652270  
N    -4.8017760   -0.1029530    0.8393850  
C    -4.2970870   -2.3404020   -0.1119350  
C    -4.9027380   -3.6008020   -0.5418450  
O    -4.2520340   -4.5357070   -0.9803080  
C    -6.4652460   -3.7501060   -0.4274670  
O    -6.9874780   -4.7941030   -0.7835930  
C    -7.2352880   -2.6224890    0.1089520  
H    -8.0814700    0.0204100    1.2725420  
H    -3.2216680   -2.2229360   -0.1900790  
H    -8.3122210   -2.7383670    0.1852970  
H    -5.8919980    1.5570560    1.6445590  
