60


C     1.0630070    1.6475300   -0.1990030  
C     1.7364870    0.4349310   -0.2198430  
C     0.7629810   -0.6143340   -0.2795890  
C    -0.5515790    0.0488110   -0.3258240  
N    -0.2968170    1.4062460   -0.2582160  
C    -1.7710590   -0.5737320   -0.4451250  
C    -1.7096260   -2.0523150   -0.4931820  
O    -2.6950150   -2.7555350   -0.6422460  
C    -0.3227010   -2.7855640   -0.3389190  
O    -0.3421700   -3.9960010   -0.1843280  
C     0.9094770   -1.9872380   -0.3062370  
H     2.7997150    0.2859900   -0.3226600  
H    -0.9791950    2.1518960   -0.2810620  
C     4.9864310    3.1856960    1.0683390  
C     4.8141170    4.4998630    0.7878760  
C     3.4683230    4.6554380    0.2742630  
C     2.8699480    3.3005040    0.2629110  
N     3.8414150    2.4563270    0.7345760  
C     1.5832930    3.0004160   -0.1414170  
C     0.7358230    4.1560030   -0.4862290  
O    -0.4655890    4.0719770   -0.7121800  
C     1.3840420    5.5856850   -0.5667570  
O     0.6966230    6.5087480   -0.9690470  
C     2.7722620    5.7468080   -0.1417640  
H     5.5379440    5.2898230    0.9240080  
H     3.1985850    6.7446150   -0.1673680  
H     5.8463430    2.6713340    1.4756210  
H     3.6715750    1.4929920    0.9881170  
C     4.1739530   -1.8504580    2.6559380  
C     5.0316000   -2.7341200    2.0855050  
C     4.4286820   -3.1868570    0.8470840  
C     3.1365180   -2.4773830    0.7379180  
N     3.0652930   -1.6276500    1.8397010  
C     2.2045620   -2.6744380   -0.2418260  
C     2.5798890   -3.6326040   -1.3150470  
O     1.9006140   -3.7953520   -2.3110400  
C     3.9442070   -4.4076030   -1.2028510  
O     4.2151490   -5.2389750   -2.0557180  
C     4.8276420   -4.0976030   -0.0828560  
H     5.9842790   -3.0532140    2.4832410  
H     5.7662180   -4.6385060   -0.0110250  
H     4.2599680   -1.3227070    3.5973260  
H     2.1875670   -1.2486010    2.1656130  
C    -3.1805530    1.3508050   -1.2698820  
C    -3.0325950    0.1492200   -0.5878110  
C    -4.3464670   -0.1688620   -0.0537940  
C    -5.2170030    0.8816250   -0.4364040  
N    -4.4772550    1.7829290   -1.1806190  
C    -6.5685180    0.9310780   -0.0744060  
C    -7.0585520   -0.1121300    0.6942510  
O    -8.3688590   -0.1290050    1.0699310  
C    -6.2034040   -1.1742640    1.0908470  
O    -6.8331150   -2.1430300    1.8499470  
C    -4.8694780   -1.2125490    0.7352950  
H    -4.8399260    2.6162090   -1.6177380  
H    -7.2295230    1.7372450   -0.3755430  
H    -8.5130170   -0.9575160    1.5598910  
H    -6.2559910   -2.9181580    1.9217010  
H    -4.2494720   -2.0535850    1.0252920  
H    -2.4648880    1.9004480   -1.8648270  
