58


C    -6.0296730   -1.1009670    1.7645270  
C    -7.3645250   -1.2348420    1.5810550  
C    -7.6729610   -0.7436700    0.2552480  
C    -6.3863940   -0.2963740   -0.3305490  
N    -5.4042850   -0.5342540    0.6425680  
C    -6.2550780    0.1824930   -1.5901110  
C    -7.4565320    0.2983210   -2.4201500  
O    -7.4255780    0.7092510   -3.5689170  
C    -8.8338450   -0.1367270   -1.8040860  
O    -9.8457180   -0.0364880   -2.4794860  
C    -8.8386140   -0.6641850   -0.4375690  
H    -8.0728940   -1.6215770    2.2996240  
H    -5.3133930    0.5043350   -2.0178890  
H    -9.7883970   -0.9903150   -0.0247070  
H    -5.4261400   -1.3379190    2.6299530  
C    -1.9310510   -3.0527740    1.4675540  
C    -3.1926950   -2.6009670    1.2290040  
C    -3.0812960   -1.2043310    0.8851820  
C    -1.6394580   -0.8716040    0.9735460  
N    -1.0024950   -2.0293020    1.3695540  
C    -1.0883220    0.3630010    0.7172850  
C    -2.0257190    1.3439630    0.1240310  
O    -1.6641070    2.3361250   -0.4817970  
C    -3.5705090    1.0931150    0.2222870  
O    -4.3242040    2.0308770    0.0384850  
C    -4.0286500   -0.2696600    0.5470580  
H    -4.0999490   -3.1853270    1.2575020  
H    -1.6008830   -4.0540100    1.7116920  
H    -0.0136850   -2.1521720    1.1344630  
C     2.7985470   -1.6862330   -0.0529590  
C     3.6850160   -0.6536910    0.0640020  
C     2.8585280    0.4898170    0.4894140  
C     1.4641540   -0.0485880    0.5329870  
N     1.4684960   -1.3283180    0.2385000  
C     0.3175170    0.7702880    0.8815460  
C     0.6284440    2.0252990    1.3563500  
O    -0.2814930    2.8644200    1.8522410  
C     2.0211730    2.5713680    1.3838790  
O     2.1884300    3.7097310    1.8169370  
C     3.1424230    1.7352460    0.9085250  
H     0.2014650    3.6907040    2.0778880  
H     4.1397540    2.1597950    0.9614820  
H     3.0126490   -2.7037270   -0.3564320  
C     5.1112560   -0.6809230   -0.1478440  
C     5.9894340   -1.7273770   -0.0219920  
C     7.3049930   -1.2557500   -0.3628140  
C     7.1485520    0.1761430   -0.7143550  
N     5.8087350    0.4875990   -0.5060250  
C     8.1538380    0.9722120   -1.1485250  
C     9.4979540    0.4003300   -1.2499590  
O    10.4634500    1.0438330   -1.6277290  
C     9.6963530   -1.1041730   -0.8388130  
O    10.8141170   -1.5923390   -0.9051490  
C     8.5237510   -1.8632300   -0.4024940  
H     5.7418640   -2.7169160    0.3351200  
H     8.0211170    2.0171180   -1.4121340  
H     8.6678910   -2.9067240   -0.1394930  
H     5.3586000    1.2502060   -0.9934850  
