60


C     1.9414840   -0.6388730   -0.7273080  
C     3.2430550   -0.2119190   -0.6957240  
C     3.2077550    1.1876370   -0.3169420  
C     1.8508110    1.5518550   -0.1593560  
N     1.0734020    0.4094650   -0.4180470  
C     1.4641170    2.8314620    0.2506420  
C     2.4650610    3.7661770    0.4696260  
O     2.1347990    5.0258190    0.8666500  
C     3.8298220    3.4250740    0.2838790  
O     4.7037110    4.4615420    0.5280550  
C     4.2087010    2.1536780   -0.1083840  
H     0.4307730    3.1273050    0.3738230  
H     2.9619060    5.5291120    0.9609560  
H     5.6167080    4.1519860    0.4311620  
H     5.2591430    1.9075090   -0.2392810  
H     1.5419130   -1.6100100   -0.9788880  
C    -1.3846990   -2.5978390    1.5981840  
C    -0.3429740   -1.8517880    1.1481060  
C    -0.8980300   -0.7945880    0.3296730  
C    -2.3556380   -0.9916780    0.3280670  
N    -2.5843000   -2.1169070    1.0835640  
C    -3.2972840   -0.1621250   -0.2530340  
C    -2.7613600    0.9940180   -0.9963430  
O    -3.4386230    1.7695820   -1.6413060  
C    -1.2005390    1.2208170   -1.0333580  
O    -0.7704240    2.1502310   -1.6890730  
C    -0.3148880    0.2677350   -0.3200970  
H     0.7002000   -1.9999210    1.3808480  
H    -1.3852080   -3.4565760    2.2556180  
H    -3.5090080   -2.3836820    1.3932930  
C    -4.7197020   -0.4024980   -0.1474630  
C    -5.3813260   -1.6101220   -0.0632240  
C    -6.7791060   -1.2844760    0.0666670  
C    -6.8027440    0.2148100    0.0766160  
N    -5.6123810    0.7218400   -0.0545780  
C    -8.0349960    0.9464030    0.2219080  
C    -9.1805260    0.2317130    0.3190730  
O   -10.3999800    0.7719830    0.4475900  
C    -9.1898340   -1.2812780    0.2906660  
O   -10.2865380   -1.8352120    0.3893540  
C    -7.9240530   -2.0046330    0.1616710  
H    -4.9727940   -2.6008840   -0.2125800  
H    -8.0244440    2.0304310    0.2355780  
H   -11.0157360    0.0052970    0.4907400  
H    -7.9687140   -3.0894510    0.1569050  
C     4.5471820   -1.8063660   -2.1543130  
C     4.4096950   -1.0213840   -1.0463720  
C     5.6411580   -1.1865490   -0.2762600  
C     6.4957790   -2.1284260   -1.0429490  
N     5.7629030   -2.4824730   -2.1577660  
C     7.7368770   -2.5255410   -0.6623990  
C     8.2761370   -2.0118150    0.5928900  
O     9.3831870   -2.3083720    1.0156360  
C     7.3769430   -1.0356620    1.4370370  
O     7.8069740   -0.5983720    2.4927540  
C     6.0521730   -0.6811970    0.9162740  
H     8.3465840   -3.2139670   -1.2396640  
H     5.4392320   -0.0102990    1.5093590  
H     3.8540000   -1.9355270   -2.9751330  
H     6.1089060   -3.0481510   -2.9169550  
