58


C     1.4451120   -2.8220360   -0.1388460  
C     2.5129760   -3.6221720   -0.4640830  
C     3.6751640   -3.0960980    0.2013390  
C     3.2139390   -1.9072630    0.9657030  
N     1.8687620   -1.7639330    0.6769570  
C     4.0140390   -1.1518040    1.7584740  
C     5.4294290   -1.5050120    1.8574250  
O     6.2248450   -0.8760250    2.5370930  
C     5.9448340   -2.7430810    1.0359600  
O     7.1269900   -3.0439690    1.0959230  
C     4.9796580   -3.4902140    0.2264280  
H     2.4867990   -4.4863740   -1.1123810  
H     3.6602840   -0.2919150    2.3188350  
H     5.3436190   -4.3512790   -0.3259200  
H     1.2020790   -1.2105640    1.1989890  
C     0.0555110   -2.8859620   -0.5131320  
C    -0.6123280   -3.8049920   -1.2720660  
C    -1.9769750   -3.3324050   -1.3282860  
C    -1.9782200   -2.0673930   -0.5138850  
N    -0.7862020   -1.8234190   -0.0436330  
C    -3.1778810   -1.2743840   -0.3128070  
C    -4.2984430   -1.7328920   -0.9541020  
O    -5.4627880   -1.0855600   -0.9422250  
C    -4.3255060   -2.9971990   -1.7742950  
O    -5.3904600   -3.3080550   -2.3038540  
C    -3.0978120   -3.7917700   -1.9243930  
H    -0.2219510   -4.6991670   -1.7374930  
H    -6.0916810   -1.6478650   -1.4478300  
H    -3.1549190   -4.7002980   -2.5154660  
C    -0.7365870    2.4896780    0.0168990  
C    -1.2606920    1.2659040   -0.3554240  
C    -2.3622540    0.9685300    0.5080810  
C    -2.4824590    2.1318540    1.4233830  
N    -1.4711070    3.0021980    1.0812180  
C    -3.4311740    2.2668470    2.3840330  
C    -4.3933680    1.1873040    2.5541370  
O    -5.2997860    1.2208620    3.3716330  
C    -4.2501140   -0.0889210    1.6490640  
O    -4.9680740   -1.0458290    1.8864090  
C    -3.2269660   -0.0998160    0.5766050  
H    -0.9448380    0.6617870   -1.1893790  
H    -3.5137920    3.1409850    3.0220150  
H    -1.3506830    3.9588170    1.3916190  
C     2.8453450    1.0652070   -2.1008650  
C     3.4269790    2.2550520   -2.3840860  
C     2.5795720    3.2890270   -1.8255830  
C     1.4285070    2.5907850   -1.2055530  
N     1.6334910    1.2550930   -1.4267540  
C     0.3973130    3.2107530   -0.5256490  
C     0.5452810    4.6610180   -0.3154510  
O    -0.1770760    5.3127540    0.4289580  
C     1.6905460    5.4263010   -1.0692870  
O     1.7079870    6.6435360   -1.0137800  
C     2.6956190    4.6427610   -1.7869830  
H     4.3574290    2.4105740   -2.9099340  
H     3.5147340    5.1783260   -2.2564260  
H     3.1770350    0.0604120   -2.3239790  
H     1.1139200    0.5196210   -0.9649550  
