60


C     1.7212570   -1.1024530    3.4757510  
C     2.9270730   -1.1078520    2.8239630  
C     2.6651080   -0.8044500    1.4443840  
C     1.2652150   -0.6126600    1.3236750  
N     0.7173740   -0.8092650    2.5738400  
C     0.6211140   -0.3067670    0.1045810  
C     1.4578860   -0.1789570   -1.0068330  
O     0.9245580    0.1645810   -2.2082000  
C     2.8593690   -0.3658870   -0.9069230  
O     3.5094390   -0.2193920   -2.1164130  
C     3.4907330   -0.6803930    0.2950760  
H     3.8902400   -1.2913620    3.2783090  
H    -0.2637050   -0.7266210    2.7898050  
H     1.6374230    0.1147900   -2.8689110  
H     4.4469860   -0.4462440   -2.0191790  
H     1.4893790   -1.2798880    4.5163580  
C    -2.3416770    2.2985770    2.1409800  
C    -1.2021650    1.7039510    1.7003200  
C    -1.5927520    0.6967000    0.7354730  
C    -3.0752810    0.7487790    0.6744200  
N    -3.4690330    1.7092870    1.5833140  
C    -3.8665820   -0.0330100   -0.1356590  
C    -3.1188480   -0.8263570   -1.1395420  
O    -3.6352270   -1.2969560   -2.1379920  
C    -1.5820210   -1.0539490   -0.9441130  
O    -1.0648770   -1.9801890   -1.5413270  
C    -0.8406050   -0.1671870   -0.0190010  
H    -0.1907320    1.9523500    1.9844350  
H    -2.4583530    3.1198490    2.8363800  
H    -4.3640140    2.1854570    1.4304580  
C    -7.0703750    3.0843980    0.2278010  
C    -8.1625050    2.3764050   -0.1320860  
C    -7.6894100    1.0105040   -0.3194920  
C    -6.2116480    1.0820960   -0.0558030  
N    -5.8774920    2.2980770    0.2855370  
C    -5.3386630   -0.0791910   -0.1688520  
C    -5.9952340   -1.2723070   -0.3569060  
O    -5.3816050   -2.4584510   -0.3416060  
C    -7.4730010   -1.3763960   -0.5921300  
O    -7.9475110   -2.4975880   -0.7712590  
C    -8.3008850   -0.1573910   -0.5847070  
H    -9.1795510    2.7242660   -0.2457290  
H    -6.0763840   -3.1216000   -0.5523670  
H    -9.3658170   -0.2720590   -0.7614240  
H    -7.0022870    4.1382630    0.4685550  
C     5.5638600   -1.9861290    0.9371330  
C     4.9456210   -0.9090230    0.3665070  
C     6.0188610   -0.0358300   -0.1109800  
C     7.2973530   -0.7125160    0.2269740  
N     6.9463300   -1.8845570    0.8668870  
C     8.5291420   -0.2199970   -0.0578030  
C     8.6223890    1.0705320   -0.7350570  
O     9.6858120    1.5893540   -1.0371970  
C     7.2840010    1.8196660   -1.0807980  
O     7.3403610    2.9093350   -1.6273740  
C     6.0120170    1.1761980   -0.7308020  
H     9.4510440   -0.7331570    0.1984910  
H     5.0969160    1.7073950   -0.9718820  
H     5.1066900   -2.8505550    1.3999790  
H     7.5982230   -2.5758570    1.2033260  
