60


C    -2.6694980    1.2874850    0.0717340  
C    -1.3448280    0.9206150   -0.1217510  
C    -1.3541670   -0.5051250   -0.4071980  
C    -2.6983000   -0.9302090   -0.3632580  
N    -3.4919680    0.1943700   -0.0400030  
C    -3.0885990   -2.2339420   -0.6814690  
C    -2.0875480   -3.1354370   -1.0207320  
O    -2.4149770   -4.4207040   -1.3318540  
C    -0.7308350   -2.7277270   -1.0520500  
O     0.1467450   -3.7296460   -1.4047650  
C    -0.3556980   -1.4276770   -0.7593120  
H    -4.1209660   -2.5603720   -0.6865810  
H    -1.5904660   -4.8787820   -1.5717630  
H     1.0399110   -3.3635120   -1.4928490  
H     0.6809840   -1.1108420   -0.8097470  
H    -3.0823420    2.2529710    0.3152200  
C    -0.2222400    1.8013150   -0.0412290  
C    -0.1833960    3.1796560    0.0050210  
C     1.1933900    3.5337720    0.0687410  
C     1.9274070    2.2160520    0.0754930  
N     1.0949460    1.2212230    0.0012760  
C     3.3847580    2.1269120    0.1414010  
C     4.0365740    3.3445080    0.1598530  
O     5.3441930    3.5139970    0.2456290  
C     3.3041700    4.6853800    0.1312530  
O     4.0327220    5.6846750    0.1596720  
C     1.8636540    4.7199490    0.0904850  
H    -1.0180070    3.8644820   -0.0505740  
H     5.4581180    4.5005670    0.2413180  
H     1.3774580    5.6899930    0.0777380  
C     4.0579060    0.8453890    0.1966370  
C     3.5272320   -0.3841900    0.5037710  
C     4.6219200   -1.3156470    0.4308380  
C     5.7986690   -0.4720530    0.0336980  
N     5.4738410    0.7768340   -0.0968010  
C     7.1065450   -1.0475100   -0.1617860  
C     7.2415550   -2.3785510    0.0390930  
O     8.3924000   -3.0537750   -0.0997930  
C     6.0759890   -3.2529370    0.4497630  
O     6.3090270   -4.4545200    0.6030710  
C     4.7571870   -2.6501870    0.6357420  
H     2.5039820   -0.5965860    0.7672650  
H     7.9396680   -0.4177620   -0.4533740  
H     8.1637310   -3.9871530    0.1139550  
H     3.9466440   -3.3086870    0.9339160  
C    -6.3505190   -2.2890760    2.2217340  
C    -5.2099490   -1.7382340    1.7259200  
C    -5.6031030   -0.6634540    0.8443590  
C    -7.0846420   -0.6227520    0.8741270  
N    -7.4721920   -1.6479970    1.7146280  
C    -7.8621560    0.2716160    0.2091820  
C    -7.2033440    1.2884350   -0.5922760  
O    -7.7973130    2.1492780   -1.2214300  
C    -5.6293270    1.2980350   -0.6376630  
O    -5.0680350    2.1831480   -1.2584810  
C    -4.8935580    0.2332530    0.0863590  
H    -4.2014670   -2.0479280    1.9501450  
H    -8.9464250    0.2700730    0.2533770  
H    -6.4661880   -3.1088390    2.9181460  
H    -8.4266150   -1.8542410    1.9648300  
