58


C    -5.9767280    1.1439170   -1.7926200  
C    -7.3186640    0.9787300   -1.7945860  
C    -7.6532000    0.0825820   -0.7090600  
C    -6.3709100   -0.2836930   -0.0606370  
N    -5.3599790    0.3832130   -0.7814560  
C    -6.2844830   -1.0509380    1.0498230  
C    -7.5198250   -1.5993490    1.6200840  
O    -7.5230360   -2.2981040    2.6198760  
C    -8.8802550   -1.2649600    0.9150800  
O    -9.9148390   -1.7264140    1.3682430  
C    -8.8443060   -0.3875990   -0.2575630  
H    -8.0139540    1.4207810   -2.4938020  
H    -5.3532470   -1.3098990    1.5372960  
H    -9.7898790   -0.1243080   -0.7215180  
H    -5.3508300    1.7224910   -2.4575080  
C    -2.3858200    3.6272360   -0.5357770  
C    -3.5776750    2.9873930   -0.6285560  
C    -3.2540740    1.5702650   -0.5227000  
C    -1.7726130    1.5432260   -0.3741910  
N    -1.2752400    2.7491100   -0.3821600  
C    -1.0198700    0.3043110   -0.2377020  
C    -1.7527120   -0.8455990   -0.2186360  
O    -1.2154570   -2.0567180   -0.0260160  
C    -3.2418560   -0.8666990   -0.3816710  
O    -3.7953220   -1.9600810   -0.4280080  
C    -3.9871580    0.4256230   -0.5194310  
H    -4.5608320    3.4254830   -0.7245100  
H    -1.9432970   -2.7044220   -0.1429050  
H    -2.2013050    4.6945300   -0.5568300  
C     1.9979010    2.1370990    2.4808290  
C     0.8477630    1.7702460    1.8630670  
C     1.2110250    0.9662910    0.7169580  
C     2.6879620    0.9015350    0.7137460  
N     3.1044410    1.6525700    1.7857620  
C     3.4656470    0.1697660   -0.1573330  
C     2.7376550   -0.5449290   -1.2284230  
O     3.2852760   -1.1174870   -2.1496510  
C     1.1655170   -0.5015500   -1.2355740  
O     0.5838610   -1.0898440   -2.1280470  
C     0.4519980    0.2875190   -0.2003070  
H    -0.1538510    2.0415660    2.1554570  
H     2.1427730    2.7324220    3.3722840  
H     4.0557030    1.6381570    2.1266400  
C     4.9084230    0.1000310   -0.0505810  
C     5.7826690    1.0753860    0.3747830  
C     7.0950920    0.4781310    0.3182100  
C     6.8362410   -0.9231710   -0.1483070  
N     5.5728340   -1.1373840   -0.3671220  
C     7.9082670   -1.8719560   -0.3106970  
C     9.1672510   -1.4461610   -0.0541600  
O    10.2620010   -2.2105050   -0.1703590  
C     9.4606520   -0.0329730    0.3983560  
O    10.6398670    0.2549320    0.6084820  
C     8.3530380    0.9106290    0.5742430  
H     5.5663530    2.1162870    0.5757330  
H     7.6936180   -2.8818780   -0.6414100  
H    11.0120550   -1.6247420    0.0795270  
H     8.6017940    1.9126980    0.9101980  
