60


C    -2.4924260    1.8339380    2.8507610  
C    -3.6064960    1.3170340    2.2385620  
C    -3.1535170    0.4528030    1.1780630  
C    -1.7359460    0.4771400    1.2192960  
N    -1.3641250    1.3241550    2.2436550  
C    -0.9113920   -0.2721880    0.3559130  
C    -1.5860770   -1.0777840   -0.5603160  
O    -0.8852770   -1.8675680   -1.4170750  
C    -3.0053700   -1.1232550   -0.6281790  
O    -3.4725540   -1.9644000   -1.6063150  
C    -3.8199800   -0.3478260    0.2014790  
H    -4.6278980    1.4966810    2.5416360  
H    -0.4130650    1.5972970    2.4378800  
H    -1.5609520   -2.3584900   -1.9264030  
H    -4.2490360   -2.4457800   -1.2275890  
H    -2.4092680    2.5136460    3.6869630  
C     1.3164700   -0.4938840    1.5491220  
C     0.5583830   -0.2377640    0.4441710  
C     1.4983330    0.0953150   -0.6270150  
C     2.8540650    0.0012430   -0.0424170  
N     2.6771400   -0.3912610    1.2708580  
C     4.0209060    0.2741870   -0.6994790  
C     3.9041730    0.6696490   -2.1190000  
O     4.8736670    0.8456450   -2.8351110  
C     2.4682300    0.8130620   -2.7429840  
O     2.3669630    1.1959610   -3.8970390  
C     1.3071240    0.4760420   -1.9152280  
H     0.3223990    0.5511980   -2.3627970  
H     0.9904440   -0.7936730    2.5369680  
H     3.4151910   -0.4006920    1.9584170  
C     6.2039540   -3.1290060    1.0473150  
C     7.3514590   -2.5031930    1.4125970  
C     7.2157320   -1.1058520    1.0537950  
C     5.8710590   -0.9688820    0.4447400  
N     5.2896780   -2.2249370    0.5089090  
C     5.3531230    0.1823420   -0.0761080  
C     6.1965160    1.3941740    0.0301250  
O     5.7991300    2.4992680   -0.2921910  
C     7.6363670    1.2610860    0.6490810  
O     8.3480400    2.2519830    0.6918660  
C     8.0577840   -0.0431830    1.1592940  
H     8.2108910   -2.9599530    1.8814290  
H     9.0514430   -0.1209810    1.5897430  
H     5.9330600   -4.1728220    1.1374770  
H     4.4678670   -2.4826970   -0.0178060  
C    -6.5765550    3.0577550   -0.0710840  
C    -7.7688100    2.4111520   -0.1068440  
C    -7.4857660    0.9916670   -0.0670090  
C    -6.0067890    0.8652850    0.0056460  
N    -5.5215000    2.1504120   -0.0192710  
C    -5.2965480   -0.3142940    0.0651090  
C    -6.1076400   -1.5231940   -0.0661840  
O    -5.6359480   -2.6498910   -0.2353990  
C    -7.6780690   -1.4243060   -0.0264440  
O    -8.3188120   -2.4611610    0.0226790  
C    -8.2921040   -0.1020210   -0.0739140  
H    -8.7472940    2.8639490   -0.1705650  
H    -9.3754980   -0.0418490   -0.0912590  
H    -6.3677450    4.1191600   -0.0906210  
H    -4.5517350    2.3842820    0.1389740  
