58


C     4.5301790    0.2660740   -0.0688610  
C     5.5560280    1.0278310   -0.5844240  
C     6.7823870    0.3047490   -0.3906700  
C     6.4179060   -0.9635380    0.2874440  
N     5.0537480   -0.9263080    0.4524830  
C     7.3094070   -1.9243020    0.6447210  
C     8.7211200   -1.7076770    0.3484710  
O     9.5956720   -2.5128690    0.6313150  
C     9.1310070   -0.3693770   -0.3702850  
O    10.3081750   -0.1685140   -0.6266020  
C     8.0765580    0.5918160   -0.7064490  
H     5.4339640    1.9924630   -1.0488420  
H     7.0252510   -2.8472100    1.1407190  
H     8.3696290    1.5121980   -1.2023950  
H     4.4883230   -1.6420920    0.8828460  
C     2.2680300    3.7345920   -1.5448130  
C     1.0032140    3.4156280   -1.1817160  
C     1.1088250    2.1318890   -0.5069400  
C     2.5647880    1.8045570   -0.5705890  
N     3.2290350    2.7490350   -1.1690340  
C     3.1097910    0.5598360   -0.0203750  
C     2.1777160   -0.2839210    0.5292590  
O     2.4832610   -1.4786210    1.0807210  
C     0.7188590    0.0177590    0.6079410  
O     0.0179840   -0.8317290    1.1676250  
C     0.1912990    1.3040080    0.0701340  
H     0.0964230    3.9684590   -1.3758090  
H     1.6239970   -1.8343690    1.4067210  
H     2.6123410    4.6120840   -2.0777590  
C    -1.2226030    1.6223540    0.2126860  
C    -1.7757190    2.8417510    0.4869600  
C    -3.2035930    2.6116720    0.5779780  
C    -3.3691430    1.1516450    0.2865480  
N    -2.2089920    0.5904910    0.0908300  
C    -4.6661820    0.4966460    0.2568720  
C    -5.7179090    1.2862640    0.6570910  
O    -6.9579060    0.8253910    0.8269560  
C    -5.5807870    2.7466350    0.9716190  
O    -6.5930460    3.3625960    1.3017660  
C    -4.2553320    3.3895700    0.8990410  
H    -1.2624280    3.7733340    0.6778070  
H    -7.5066000    1.6038280    1.0707430  
H    -4.1962910    4.4479480    1.1331790  
C    -2.4714810   -3.3526300    0.9012440  
C    -3.3562250   -4.2000110    0.3154760  
C    -4.4239400   -3.3888190   -0.2241980  
C    -4.0892300   -1.9808350    0.1292250  
N    -2.9092920   -2.0350990    0.8379840  
C    -4.8765880   -0.8948330   -0.1772340  
C    -6.0126170   -1.1692280   -1.0950160  
O    -6.6150980   -0.2863360   -1.6799160  
C    -6.4332670   -2.6540920   -1.3745230  
O    -7.4751830   -2.8609100   -1.9770360  
C    -5.5501460   -3.7170950   -0.9124780  
H    -3.2808170   -5.2757840    0.2523680  
H    -5.8250850   -4.7435910   -1.1351270  
H    -1.5309320   -3.5707320    1.3893900  
H    -2.2842520   -1.2289500    0.8768770  
