58


C     0.0757380    1.5901420   -0.0341500  
C    -1.1112810    0.8951980    0.0876230  
C    -0.8160470   -0.5063590    0.0506530  
C     0.6529490   -0.6127800   -0.0716840  
N     1.1268200    0.6797640   -0.1367020  
C     1.3621950   -1.7810140   -0.1114120  
C     0.5840180   -3.0277100    0.0086700  
O     1.1039020   -4.1238930    0.1157530  
C    -0.9804010   -2.9442020    0.0407210  
O    -1.6194630   -3.9743480   -0.0648460  
C    -1.6326600   -1.6117740    0.1294050  
H    -2.0855440    1.3282870    0.2426360  
H     2.0966330    0.9616540   -0.1063240  
C    -4.8648580    0.2530490   -2.3333220  
C    -3.6618370   -0.1458270   -1.8396820  
C    -3.9179930   -0.8973590   -0.6290360  
C    -5.3912330   -0.9102650   -0.4623510  
N    -5.9018720   -0.1715640   -1.5142970  
C    -6.0615500   -1.5589730    0.5246720  
C    -5.2864960   -2.3028990    1.5080640  
O    -5.7929930   -2.9473280    2.4126980  
C    -3.7210920   -2.2529890    1.4045590  
O    -3.0628350   -2.7226640    2.3134710  
C    -3.0916770   -1.5598330    0.2444380  
H    -2.6967130    0.0430620   -2.2841610  
H    -7.1442580   -1.5720110    0.6032570  
H    -5.0831800    0.8196190   -3.2289910  
H    -6.8837730   -0.0739870   -1.7208440  
C     4.7527120   -0.2807710    2.3715750  
C     3.5195430   -0.5728110    1.8812510  
C     3.7084170   -1.3070860    0.6464250  
C     5.1758030   -1.4248900    0.4612500  
N     5.7486860   -0.7600140    1.5300090  
C     5.7819500   -2.0865920   -0.5573380  
C     4.9392860   -2.7272260   -1.5582980  
O     5.3839880   -3.3686990   -2.4972670  
C     3.3819790   -2.5640830   -1.4287570  
O     2.6759530   -2.9703600   -2.3332640  
C     2.8256070   -1.8611600   -0.2419450  
H     2.5752070   -0.3250470    2.3417620  
H     6.8593880   -2.1773360   -0.6547640  
H     5.0218850    0.2440200    3.2787460  
H     6.7370510   -0.7378000    1.7267710  
C    -2.5069680    5.1838540   -0.7553380  
C    -2.0834900    3.8927480   -0.7244670  
C    -0.6977840    3.9555900   -0.2919430  
C    -0.4461810    5.4188620   -0.1212170  
N    -1.5102430    6.1286280   -0.3776690  
C     0.8363490    5.9335820    0.2753860  
C     1.8422720    5.0482430    0.4581830  
O     3.0969130    5.3969190    0.7914250  
C     1.6381810    3.5746760    0.2767530  
O     2.6379830    2.8601530    0.3968130  
C     0.2797550    3.0279220   -0.0343350  
H    -2.6426570    3.0138070   -1.0078260  
H     0.9789260    7.0017820    0.3944330  
H     3.6101070    4.5618770    0.8206490  
H    -3.4856400    5.5525530   -1.0390970  
