60


C     0.2408450    2.0452030    0.2631890  
C    -1.0945900    1.8667850   -0.0248700  
C    -1.2996610    0.4755870   -0.2962440  
C    -0.0393160   -0.1605510   -0.1687650  
N     0.8829870    0.8159760    0.1392670  
C     0.1465400   -1.5588330   -0.2978920  
C    -1.0260370   -2.2929050   -0.5351210  
O    -0.9733860   -3.6537310   -0.6536430  
C    -2.2849090   -1.6689010   -0.7035120  
O    -3.2832200   -2.5662080   -1.0187060  
C    -2.4555700   -0.2891280   -0.6018140  
H    -1.8370700    2.6512230   -0.0559880  
H     1.8017870    0.6177400    0.5094900  
H    -1.8827560   -3.9621740   -0.8236630  
H    -4.1548600   -2.1413330   -0.9764750  
C    -4.0282850    1.3941240   -1.6550760  
C    -3.7670990    0.3445440   -0.8175540  
C    -5.0434740   -0.0068240   -0.1995530  
C    -6.0562100    0.9185620   -0.7680520  
N    -5.3662850    1.7493420   -1.6322920  
C    -7.3738470    0.9057280   -0.4505530  
C    -7.8464990   -0.0787950    0.5232890  
O    -9.0156680   -0.1710410    0.8589650  
C    -6.7894560   -1.0482480    1.1649450  
O    -7.1562920   -1.8577970    2.0000810  
C    -5.3905350   -0.9390400    0.7319140  
H    -8.0982220    1.5933180   -0.8762960  
H    -4.6685360   -1.5963550    1.2074380  
H    -3.3367110    1.9249910   -2.2960450  
H    -5.7879900    2.4629720   -2.2063860  
C     1.4593480   -2.1811050   -0.1714740  
C     2.7095590   -1.6350900   -0.3626370  
C     3.6900160   -2.6592670   -0.1124930  
C     2.9231890   -3.8764300    0.2514680  
N     1.5937260   -3.5162530    0.2188080  
C     3.4847180   -5.0762380    0.5482370  
C     4.9395480   -5.1884960    0.5150050  
O     5.5335660   -6.2265390    0.7666050  
C     5.7736870   -3.9082410    0.1386830  
O     6.9931280   -3.9859070    0.1121760  
C     5.0510890   -2.6726830   -0.1638810  
H     2.9280180   -0.6460620   -0.7365060  
H     2.9066170   -5.9568470    0.8109060  
H     5.6377700   -1.7974560   -0.4267470  
H     0.8096070   -4.1509880    0.2567000  
C     0.5029460    4.2343530    1.4733140  
C     0.9662700    3.2427560    0.6546930  
C     2.3106470    3.6430850    0.2425460  
C     2.5772120    4.9463190    0.9004190  
N     1.4309860    5.2546430    1.6104330  
C     3.7319480    5.6471560    0.7798770  
C     4.7912860    5.1016560   -0.0669840  
O     5.8639620    5.6594150   -0.2330800  
C     4.5194310    3.7386430   -0.8009630  
O     5.3802040    3.2729240   -1.5289250  
C     3.2288580    3.0739730   -0.5808580  
H     3.9073250    6.5993300    1.2710840  
H     3.0500480    2.1437590   -1.1108420  
H    -0.4449930    4.2886500    1.9919350  
H     1.3318270    6.0481820    2.2244120  
