62


C     2.8198030    0.1205920    1.9802640  
C     1.5293040    0.0545390    1.5418490  
C     1.5325010   -0.6397950    0.2801020  
C     2.8724550   -0.9868090   -0.0114210  
N     3.6447730   -0.5138980    1.0473010  
C     3.2597020   -1.6880750   -1.1562450  
C     2.2530090   -2.0479400   -2.0389270  
O     2.5607670   -2.7238480   -3.1800510  
C     0.8979300   -1.7161850   -1.7712440  
O     0.0221280   -2.1310570   -2.7489870  
C     0.5082870   -1.0178010   -0.6267440  
H     0.6647960    0.4565580    2.0499630  
H     4.2909130   -1.9428160   -1.3737810  
H     1.7324300   -2.8470390   -3.6760100  
H    -0.8623530   -1.7803830   -2.5462880  
H     3.2541960    0.5569500    2.8678060  
C    -1.7021850    2.8975610   -0.2448020  
C    -0.7380950    1.9421280   -0.4270730  
C    -1.3845780    0.6635470   -0.3215700  
C    -2.7605670    0.9124280   -0.0823260  
N    -2.9297740    2.2838050   -0.0597220  
C    -3.7227070   -0.1055010    0.0946830  
C    -3.2441210   -1.4146910    0.0152410  
O    -4.1090180   -2.4559710    0.1334910  
C    -1.8723840   -1.6838200   -0.2263840  
O    -1.5712250   -3.0302420   -0.2686360  
C    -0.9233070   -0.6756750   -0.4009220  
H     0.3106920    2.1216250   -0.6136100  
H    -3.7750670    2.7487870    0.2345040  
H    -3.5779770   -3.2706970    0.1775640  
H    -0.6061010   -3.1363930   -0.2096830  
H    -1.6238980    3.9755690   -0.2427860  
C     5.6840440   -1.6888850    1.7477450  
C     7.0223560   -1.4894380    1.6982880  
C     7.2543630   -0.2218590    1.0299630  
C     5.9198820    0.3208880    0.6819830  
N     5.0030220   -0.6210220    1.1438630  
C     5.6965820    1.4968550    0.0494210  
C     6.8583340    2.3024650   -0.3262840  
O     6.7656170    3.3775190   -0.8968410  
C     8.2892490    1.7502560    0.0265830  
O     9.2697060    2.4089920   -0.2803210  
C     8.3872240    0.4589070    0.7160390  
H     7.7829260   -2.1523880    2.0847600  
H     4.7047900    1.8644780   -0.1905710  
H     9.3797730    0.0893520    0.9554020  
H     5.1064900   -2.5050410    2.1601560  
C    -6.7258910    2.1228210   -2.2135340  
C    -7.7980490    1.9984030   -1.3890630  
C    -7.3705400    1.2312140   -0.2370960  
C    -5.9386900    0.9168130   -0.4616960  
N    -5.6050440    1.5050310   -1.6696640  
C    -5.1464990    0.1798470    0.3717520  
C    -5.7762470   -0.2953290    1.6245500  
O    -5.1551410   -0.8699390    2.5003390  
C    -7.3063110   -0.0065830    1.8595520  
O    -7.8367860   -0.4582670    2.8626180  
C    -8.0261870    0.7940450    0.8716330  
H    -8.7884550    2.3946390   -1.5593250  
H    -9.0774310    0.9969380    1.0517050  
H    -6.6516290    2.6200290   -3.1718640  
H    -4.7153380    1.3853860   -2.1291990  
