58


C     2.8467080   -1.5074470   -1.5392790  
C     3.8180380   -0.6461210   -1.1176110  
C     3.1337510    0.4091200   -0.3740390  
C     1.6955680    0.0737670   -0.3954730  
N     1.5941360   -1.1124450   -1.0949110  
C     0.6837070    0.8270820    0.1549950  
C     1.1107290    2.0919210    0.7943700  
O     0.3292900    2.8797330    1.3013780  
C     2.6428210    2.4581560    0.8343380  
O     2.9685220    3.5094810    1.3612180  
C     3.5976020    1.5408790    0.2224170  
H     4.6489920    1.8066710    0.2472810  
H     2.9538580   -2.4162730   -2.1167570  
H     0.7146270   -1.5090810   -1.3922000  
C    -1.1877760   -0.8797590    0.2177610  
C    -0.7102700    0.4032800    0.1438380  
C    -1.9409790    1.2197100   -0.0151020  
C    -3.0450550    0.2198450   -0.0059290  
N    -2.5899180   -0.9969710    0.1255730  
C    -4.4375700    0.5945820   -0.1574110  
C    -4.6917110    1.9143100   -0.3746670  
O    -5.9207290    2.4209400   -0.5449040  
C    -3.5980920    2.9397570   -0.4154690  
O    -3.9208130    4.1094720   -0.6150540  
C    -2.1930600    2.5262880   -0.2123310  
H    -5.7871690    3.3870720   -0.6693820  
H    -1.4414360    3.3055300   -0.2131620  
H    -0.6112760   -1.7819320    0.3903730  
C    -5.7323840   -1.9811860    3.1508580  
C    -6.7199090   -2.7123920    2.5863790  
C    -6.8127570   -2.2261020    1.2127960  
C    -5.7475850   -1.1744060    1.1272410  
N    -5.1325470   -1.0276120    2.2615540  
C    -5.5073300   -0.4235040   -0.0943840  
C    -6.3271470   -0.6944580   -1.1451820  
O    -6.2371230   -0.0889300   -2.3387210  
C    -7.4097100   -1.7389850   -1.0790000  
O    -8.0857020   -1.9171430   -2.0911720  
C    -7.6145880   -2.4996870    0.1661110  
H    -7.3285470   -3.4827550    3.0389730  
H    -6.9491680   -0.4908440   -2.8850470  
H    -8.4117350   -3.2368910    0.1728220  
H    -5.3609020   -2.0340170    4.1673070  
C     5.8288220   -0.8783420   -2.6253900  
C     5.2512560   -0.7440810   -1.3963820  
C     6.3447450   -0.7631120   -0.4252110  
C     7.5962000   -0.9172880   -1.2072860  
N     7.2084250   -0.9966210   -2.5319770  
C     8.8399700   -0.9698780   -0.6679420  
C     8.9703430   -0.8872970    0.7846210  
O    10.0464570   -0.9249790    1.3602430  
C     7.6554160   -0.7542860    1.6366660  
O     7.7394270   -0.7080720    2.8527660  
C     6.3689740   -0.6942910    0.9307930  
H     9.7438780   -1.0789840   -1.2594230  
H     5.4704180   -0.5961460    1.5313950  
H     5.3492690   -0.8928400   -3.5955400  
H     7.8415400   -1.0444000   -3.3149020  
