58


C    -3.3276010    0.9929880   -1.4217400  
C    -3.1119860   -0.0929750   -0.6093530  
C    -4.4277640   -0.4457850   -0.0534390  
C    -5.3911810    0.5351050   -0.6119770  
N    -4.6538800    1.3696840   -1.4325480  
C    -6.7198130    0.5720290   -0.3409700  
C    -7.2626350   -0.4109710    0.5904590  
O    -8.4428790   -0.4586620    0.9009170  
C    -6.2614750   -1.4402330    1.2253070  
O    -6.6803840   -2.2491470    2.0364590  
C    -4.8467300   -1.3903440    0.8252780  
H    -7.3960550    1.3036610   -0.7725970  
H    -4.1869100   -2.1411870    1.2412920  
H    -2.6107420    1.5235820   -2.0332400  
H    -5.0443620    2.0983860   -2.0102550  
C     0.9421990    1.6680630   -0.1370670  
C    -0.4185260    1.4491550   -0.2209210  
C    -0.6440680    0.0358330   -0.2636060  
C     0.6889680   -0.5953820   -0.1757040  
N     1.5974850    0.4339730   -0.1158180  
C     0.9372190   -1.9423210   -0.1758630  
C    -0.2403420   -2.8194640   -0.2104310  
O    -0.1762010   -4.0291030   -0.0766970  
C    -1.6674320   -2.1786050   -0.3650220  
O    -2.6164650   -2.9347020   -0.4851970  
C    -1.8092960   -0.7031640   -0.3775300  
H    -1.1559650    2.2334070   -0.2233200  
H     2.5999050    0.3285930   -0.0590230  
C     4.3225320   -1.6924880    2.7255930  
C     3.1347370   -1.5345340    2.0854570  
C     3.1913630   -2.3195230    0.8676900  
C     4.5285280   -2.9605970    0.8573180  
N     5.1727850   -2.5168380    1.9980880  
C     4.9726110   -3.8253240   -0.0909630  
C     4.0814370   -4.1486200   -1.1959200  
O     4.3704270   -4.9368540   -2.0829360  
C     2.6860640   -3.4286220   -1.2551070  
O     2.0000390   -3.5702570   -2.2502480  
C     2.2781690   -2.5437620   -0.1288270  
H     2.2959250   -0.9502390    2.4320730  
H     5.9480260   -4.3007910   -0.0572420  
H     4.6532690   -1.2772970    3.6685320  
H     6.0666570   -2.8561640    2.3174500  
C    -0.4950870    5.8358650   -0.2173490  
C     0.6621730    6.5251090   -0.1075400  
C     1.7051660    5.5102560   -0.0336180  
C     0.9649560    4.2113390   -0.1139910  
N    -0.3142360    4.4149020   -0.2256100  
C     1.6648810    2.9207850   -0.0701580  
C     3.0330190    3.0016400    0.0350690  
O     3.8485360    1.9273650    0.0862410  
C     3.7828350    4.2872020    0.1120250  
O     5.0125280    4.2190940    0.2096480  
C     3.0474410    5.5579120    0.0720350  
H     0.8060290    7.5961100   -0.0794910  
H     4.7573720    2.3068410    0.1544890  
H     3.6278360    6.4737900    0.1284120  
H    -1.5030480    6.2240020   -0.2961600  
