58


C     5.8277060   -1.0109010   -1.3069500  
C     4.6474300   -0.6805620   -0.6902910  
C     4.0280830   -1.9456860   -0.2837150  
C     4.9490410   -3.0191670   -0.7199670  
N     6.0137280   -2.3775820   -1.3347870  
C     4.7435730   -4.3448720   -0.5207280  
C     3.5368070   -4.7529020    0.1968350  
O     3.2561250   -5.9204610    0.4180390  
C     2.5744880   -3.6230430    0.7195280  
O     1.6004610   -3.9398500    1.3852000  
C     2.8932600   -2.2254360    0.4039600  
H     5.4307180   -5.1165760   -0.8537700  
H     2.2201320   -1.4441590    0.7396990  
H     6.5598550   -0.3552300   -1.7596660  
H     6.7864490   -2.8469570   -1.7821780  
C     4.1252990    0.6396350   -0.4432180  
C     4.7815920    1.8339950   -0.2996650  
C     3.7625880    2.8019020    0.0144760  
C     2.4817360    2.0115120    0.0013630  
N     2.7011370    0.7640430   -0.2763170  
C     1.1895310    2.6291200    0.2492830  
C     1.2174880    3.9560550    0.5577310  
O     0.1308800    4.6773990    0.8493850  
C     2.4953500    4.7667970    0.6077810  
O     2.3791690    5.9590870    0.8993280  
C     3.7705440    4.1248860    0.3064230  
H     5.8474590    2.0140770   -0.3277120  
H     0.4710440    5.5872030    1.0179450  
H     4.6626650    4.7426510    0.3303130  
C    -0.3005870   -1.0632170    2.1844970  
C    -1.5084670   -1.2266770    1.5903740  
C    -1.6490250   -0.0889570    0.6907170  
C    -0.3706850    0.6723060    0.8682360  
N     0.3962670    0.1063830    1.7580460  
C    -0.0781630    1.8786410    0.1114430  
C    -1.0506870    2.2899940   -0.7496910  
O    -0.9382310    3.3697460   -1.5338370  
C    -2.3759850    1.5901300   -0.8910320  
O    -3.2222400    2.1446000   -1.5835980  
C    -2.6331970    0.3151830   -0.1556510  
H    -2.1918550   -2.0568110    1.6989500  
H    -1.8034510    3.4465670   -1.9953420  
H     0.1851090   -1.7267340    2.8891380  
C    -5.7383690   -1.0208940    2.6946080  
C    -6.6619310   -1.4839580    1.8154490  
C    -6.1146490   -1.3087030    0.4860480  
C    -4.7743540   -0.6961400    0.6686320  
N    -4.6164600   -0.5342400    2.0271840  
C    -3.9304930   -0.3426610   -0.3518070  
C    -4.3708750   -0.6759310   -1.7240540  
O    -3.6453440   -0.5495100   -2.6946220  
C    -5.8087220   -1.2694130   -1.9330230  
O    -6.2050810   -1.4581710   -3.0716160  
C    -6.6116260   -1.5785490   -0.7502400  
H    -7.6285790   -1.9012020    2.0564070  
H    -7.5972170   -2.0065400   -0.9057960  
H    -5.7748410   -0.9820250    3.7752100  
H    -3.7562880   -0.2421600    2.4675900  
