60


C     1.5746910   -0.3615530    0.0051630  
C     2.8091700    0.2438990    0.0905150  
C     2.5684470    1.6734850    0.1569380  
C     1.1694600    1.8617230    0.0920500  
N     0.5754200    0.5917580   -0.0143270  
C     0.5743630    3.1201020    0.2106100  
C     1.4122190    4.2145560    0.3730060  
O     0.8760390    5.4616560    0.4839640  
C     2.8177520    4.0451640    0.4391450  
O     3.5150140    5.2199470    0.6183040  
C     3.4005980    2.7927740    0.3404810  
H    -0.4956970    3.2733710    0.1748540  
H     1.6113430    6.0855880    0.6127260  
H     4.4592500    5.0308090    0.7247180  
H     4.4768580    2.6807540    0.4450030  
H     1.3280700   -1.4076770   -0.0754590  
C    -1.7157810   -2.3607820    2.1555810  
C    -2.9666070   -2.1380660    1.6909900  
C    -2.8307670   -1.0501630    0.7280630  
C    -1.3696520   -0.7383780    0.7434820  
N    -0.7265130   -1.5060840    1.5714460  
C    -0.7980230    0.2999470   -0.1018440  
C    -1.6500590    0.9441240   -0.9508120  
O    -1.2653790    1.8961820   -1.8152210  
C    -3.1174790    0.6667290   -0.9637890  
O    -3.8134160    1.3587880   -1.7031770  
C    -3.6924910   -0.4045600   -0.0942930  
H    -3.8816620   -2.6426580    1.9647830  
H    -2.0910300    2.1935170   -2.2593700  
H    -1.3937500   -3.0909990    2.8876340  
C    -7.1503030   -0.3542850    2.7592480  
C    -5.8889190   -0.2705190    2.2714870  
C    -6.0089250   -0.5989730    0.8567220  
C    -7.4773770   -0.8540930    0.6673250  
N    -8.1336020   -0.7100370    1.7817220  
C    -8.0285890   -1.1970010   -0.6160520  
C    -7.1780790   -1.2856240   -1.6653090  
O    -7.5533670   -1.6102940   -2.9104880  
C    -5.6985480   -1.0543650   -1.5126770  
O    -4.9906240   -1.2388400   -2.4970030  
C    -5.1398440   -0.6650720   -0.1829420  
H    -4.9834200   -0.0157750    2.8026080  
H    -9.0927250   -1.3776230   -0.7185020  
H    -6.7302680   -1.6210110   -3.4459000  
H    -7.4799330   -0.1804130    3.7767480  
C     4.0716560   -0.4530750    0.0899950  
C     4.3846940   -1.7222440    0.5096260  
C     5.7783900   -1.9542990    0.2510380  
C     6.2908350   -0.7093750   -0.3741700  
N     5.2310230    0.1860940   -0.3882760  
C     7.5580250   -0.5434570   -0.8239660  
C     8.5052800   -1.6446740   -0.6550280  
O     9.6678890   -1.5793150   -1.0246210  
C     7.9974900   -2.9581610    0.0455080  
O     8.7847080   -3.8817660    0.2013230  
C     6.6022900   -3.0196740    0.4681100  
H     3.7072500   -2.4023280    1.0061340  
H     7.9132540    0.3707160   -1.2903840  
H     6.2575450   -3.9384030    0.9330050  
H     5.1801990    0.9544660   -1.0424210  
