60


C     1.7461840   -0.2998470   -0.5116460  
C     0.9065080    0.5993940    0.1242030  
C     1.6816230    1.8183640    0.3246940  
C     2.9756920    1.5810980   -0.1894500  
N     2.9778710    0.2815480   -0.7069270  
C     4.0186800    2.5072760   -0.1438700  
C     3.7454590    3.7296610    0.4515810  
O     4.7128280    4.6797280    0.5237580  
C     2.4559020    3.9946270    0.9863600  
O     2.3379340    5.2484260    1.5429130  
C     1.4349790    3.0642250    0.9337990  
H     5.0062610    2.3027250   -0.5413360  
H     4.3302780    5.4555210    0.9702010  
H     1.4292210    5.3894390    1.8484540  
H     0.4530760    3.3051060    1.3247390  
H     1.5463140   -1.2913900   -0.8892480  
C    -1.0947760   -3.1161230    1.5610780  
C    -0.1362970   -2.2072730    1.2544650  
C    -0.8539180   -0.9894770    0.8896200  
C    -2.2741320   -1.3597820    1.0528720  
N    -2.4144820   -2.6005470    1.4338450  
C    -3.3527820   -0.4110760    0.8019940  
C    -2.9854540    0.8664370    0.4912300  
O    -3.8649480    1.8758690    0.3281190  
C    -1.5645340    1.2612590    0.3169640  
O    -1.3503920    2.4467850    0.0491830  
C    -0.4625560    0.2532970    0.4752460  
H     0.9352870   -2.3342680    1.3053630  
H    -3.3147850    2.6558570    0.0938790  
H    -0.9676080   -4.1391690    1.8923460  
C    -5.1856570   -1.6652080    1.9170780  
C    -6.5094330   -1.8999720    1.7596030  
C    -6.9381870   -1.2201670    0.5591380  
C    -5.7346220   -0.5455980    0.0138800  
N    -4.6872270   -0.8287590    0.9013490  
C    -5.7185190    0.1345850   -1.1579450  
C    -6.9687520    0.2591210   -1.9100340  
O    -7.0381780    0.8573800   -2.9723910  
C    -8.2634700   -0.4060370   -1.3230130  
O    -9.3165100   -0.2939600   -1.9312930  
C    -8.1410570   -1.1499980   -0.0689900  
H    -7.1312090   -2.4971640    2.4109330  
H    -4.8369510    0.6091420   -1.5668150  
H    -9.0286020   -1.6446590    0.3137610  
H    -4.5052800   -2.0227190    2.6737710  
C     4.3127600   -0.1651180   -2.7230370  
C     5.4357830   -0.8477600   -3.0436540  
C     5.9320730   -1.4798110   -1.8336120  
C     4.9965890   -1.1059690   -0.7471260  
N     4.0248250   -0.3122700   -1.3548260  
C     5.1084550   -1.4882710    0.5463670  
C     6.2373960   -2.3462790    0.9102490  
O     6.4239840   -2.7505550    2.0460050  
C     7.2463460   -2.7630980   -0.2224470  
O     8.1924780   -3.4785480    0.0614560  
C     7.0067920   -2.2716560   -1.5853160  
H     5.8844240   -0.9145300   -4.0242670  
H     4.4102520   -1.1896960    1.3210810  
H     7.7114410   -2.5645900   -2.3576710  
H     3.6509700    0.4346570   -3.3329670  
