58


C    -2.7440760   -1.2007510    0.0703730  
C    -3.4350870   -0.0102770    0.0404370  
C    -4.8376320   -0.3146790    0.1096050  
C    -4.9427740   -1.7936880    0.1847650  
N    -3.6534010   -2.2668220    0.1587540  
C    -6.1160970   -2.4747820    0.2630970  
C    -7.3609070   -1.7159360    0.2767990  
O    -8.4635980   -2.2394090    0.3469100  
C    -7.2739190   -0.1462830    0.1990690  
O    -8.3078050    0.5060640    0.2107960  
C    -5.9505720    0.4724340    0.1164490  
H    -2.9825660    0.9657750   -0.0292300  
H    -6.1743690   -3.5575500    0.3168630  
H    -5.9018310    1.5558750    0.0630190  
H    -3.3753990   -3.2361380    0.1835670  
C     0.5918910    1.6475710   -0.1860450  
C     1.6664680    0.7907690   -0.2103690  
C     1.1194220   -0.5377410   -0.1128980  
C    -0.3558190   -0.3236740   -0.0507630  
N    -0.6508320    0.9392400   -0.0925880  
C    -1.3113330   -1.4332580    0.0260700  
C    -0.7382000   -2.6773270    0.0533100  
O    -1.4340590   -3.8263740    0.1390770  
C     0.7428250   -2.9177530    0.0553990  
O     1.0992510   -4.0798450    0.2449950  
C     1.6887820   -1.7809820   -0.0895970  
H     2.7007470    1.0714570   -0.3205860  
H    -0.7457440   -4.5328750    0.2020020  
C     5.1358420   -0.1895960    2.2059650  
C     6.1149800   -0.9785570    1.6986290  
C     5.5024540   -1.8347090    0.7042670  
C     4.0619810   -1.4730940    0.6767980  
N     3.9045080   -0.4886380    1.6245050  
C     3.1206680   -2.0813990   -0.1177670  
C     3.6196350   -3.0905120   -1.0812790  
O     2.9192350   -3.5558560   -1.9623240  
C     5.1232730   -3.5280060   -1.0094290  
O     5.5048120   -4.4380240   -1.7265730  
C     6.0090930   -2.8154180   -0.0891750  
H     7.1568560   -0.9784380    1.9833560  
H     7.0538490   -3.1097000   -0.0628590  
H     5.1930150    0.5810430    2.9629600  
H     3.0696080    0.0705610    1.7284690  
C     3.9170580    4.4811410    0.2076430  
C     3.3004120    5.6726710    0.0498540  
C     1.8950780    5.3474260   -0.1516250  
C     1.8427430    3.8484110   -0.0876180  
N     3.0285890    3.3592370    0.1311280  
C     0.5938200    3.0959910   -0.2426360  
C    -0.5333820    3.8669900   -0.4388060  
O    -1.7659380    3.4012890   -0.6239920  
C    -0.4878600    5.3778160   -0.4990230  
O    -1.5546200    5.9596710   -0.6867300  
C     0.7880590    6.0872350   -0.3427660  
H     3.7340500    6.6626190    0.0677240  
H    -2.3268590    4.2050010   -0.7453180  
H     0.7678940    7.1715930   -0.3903330  
H     4.9695190    4.2893300    0.3780960  
