62


C     1.3636450    0.8557830    1.0394750  
C     0.6173980    0.0145190    0.2391340  
C     1.5402250   -0.9742590   -0.2750160  
C     2.8178480   -0.6642170    0.2528300  
N     2.6793470    0.4419120    1.0622590  
C     3.9659480   -1.4180210   -0.0611840  
C     3.8024060   -2.5093420   -0.9123570  
O     4.8775170   -3.2813490   -1.2368150  
C     2.5214850   -2.8333530   -1.4275090  
O     2.5301100   -3.9479250   -2.2422620  
C     1.4006640   -2.0836810   -1.1301100  
H     3.4374660    0.9275420    1.5165800  
H     4.5575720   -3.9761180   -1.8394670  
H     1.6367020   -4.1115420   -2.5790990  
H     0.4265530   -2.3638800   -1.5181730  
H     1.0429960    1.6946870    1.6414200  
C    -1.6708630    3.5737320   -0.9421310  
C    -2.9211120    3.0112360   -0.9734010  
C    -2.7609820    1.6239180   -0.6409060  
C    -1.3795310    1.4041880   -0.4033280  
N    -0.7441750    2.6136620   -0.5897580  
C    -0.8225480    0.1590600   -0.0379410  
C    -1.7341460   -0.8946660    0.0622990  
O    -1.3071650   -2.1421320    0.4142840  
C    -3.1180280   -0.7186680   -0.1993040  
O    -3.8608630   -1.8809210   -0.1262450  
C    -3.6414940    0.5253010   -0.5413580  
H    -3.8448830    3.5279170   -1.1916560  
H     0.2568170    2.7357490   -0.5587820  
H    -2.1094670   -2.6941660    0.4750310  
H    -4.7366400   -1.7009190    0.2638820  
H    -1.3613160    4.5915350   -1.1326720  
C    -5.5519520    1.1112870   -2.0508520  
C    -6.9053520    1.0561790   -2.0633950  
C    -7.3259760    0.5467040   -0.7744810  
C    -6.0800290    0.3188810    0.0018300  
N    -5.0281920    0.6747610   -0.8220500  
C    -6.0496480   -0.1504630    1.2830370  
C    -7.3173750   -0.4536240    1.9436860  
O    -7.3898590   -0.8543240    3.0949580  
C    -8.6442680   -0.2447530    1.1274260  
O    -9.7119460   -0.5232830    1.6483300  
C    -8.5454630    0.2858960   -0.2375710  
H    -7.5524400    1.3332790   -2.8828980  
H    -5.1367040   -0.2233020    1.8674050  
H    -9.4719360    0.4510780   -0.7794590  
H    -4.8619690    1.4220890   -2.8233520  
C     6.0482540   -1.9964730    1.2035060  
C     7.2066150   -1.4137360    1.5968540  
C     7.1957520   -0.0544980    1.1019870  
C     5.9134210    0.1048760    0.3684360  
N     5.2419100   -1.1063930    0.4781800  
C     5.5377760    1.2445910   -0.2722790  
C     6.4310980    2.3982880   -0.2228500  
O     6.1690540    3.4646170   -0.7600740  
C     7.7844850    2.2558820    0.5644790  
O     8.5370560    3.2156520    0.6262700  
C     8.0863990    0.9679450    1.1939050  
H     7.9953850   -1.8784330    2.1704390  
H     4.6184000    1.3315900   -0.8404890  
H     9.0325930    0.8740400    1.7183510  
H     5.6894900   -3.0024740    1.3674880  
