58


C    -1.1650550    0.1968600    0.6289910  
C    -1.0705940    1.5262560    0.3319490  
C    -2.3734780    1.9104710   -0.2265340  
C    -3.2142590    0.6878150   -0.1960120  
N    -2.4130140   -0.3386220    0.3035780  
C    -4.5245440    0.6443730   -0.5617030  
C    -5.1456080    1.8568460   -1.0906800  
O    -6.3159750    1.9061480   -1.4351610  
C    -4.2469380    3.1302250   -1.2305850  
O    -4.7127770    4.1354420   -1.7400360  
C    -2.8659710    3.0689790   -0.7300700  
H    -5.1515450   -0.2310890   -0.4376160  
H    -2.2935430    3.9869050   -0.7571390  
H    -0.4327020   -0.4384460    1.0985270  
C     3.3256730    0.7081080   -0.0833890  
C     1.9546970    0.5558300   -0.0811510  
C     1.4148060    1.8206140    0.3531970  
C     2.6288850    2.6535230    0.6081960  
N     3.7311850    2.0128330    0.3446560  
C     2.5397250    4.0087040    1.0837630  
C     1.3036610    4.5209220    1.2712510  
O     1.0634690    5.7678250    1.7019010  
C     0.0534410    3.7164320    1.0133630  
O    -1.0152370    4.2760170    1.2597460  
C     0.1462530    2.3170210    0.5195890  
H     1.3968810   -0.2854020   -0.4681350  
H     3.4416620    4.5818020    1.2655130  
H     0.0853050    5.8424000    1.7609890  
C     3.4927730   -3.5769820    0.7853190  
C     4.6975870   -3.8764420    0.2380850  
C     5.2251570   -2.6543800   -0.3336070  
C     4.2082440   -1.6095930   -0.0842350  
N     3.1718840   -2.2372820    0.5674770  
C     4.3377900   -0.2770500   -0.4060230  
C     5.5800830    0.1064530   -1.1240790  
O     5.7629060    1.2108530   -1.5972930  
C     6.6843220   -0.9889260   -1.3557860  
O     7.7404010   -0.6561700   -1.8681050  
C     6.4009860   -2.3675310   -0.9549120  
H     5.1819640   -4.8419370    0.2355200  
H     7.1669860   -3.1151530   -1.1371930  
H     2.7992910   -4.2131760    1.3190530  
H     2.4267920   -1.7301820    1.0249490  
C    -4.4356350   -3.1661690   -2.3686120  
C    -4.4652690   -4.2391240   -1.5409110  
C    -3.8028960   -3.8566070   -0.3112030  
C    -3.3936270   -2.4415110   -0.4939540  
N    -3.7710910   -2.0929330   -1.7695990  
C    -2.7615970   -1.6970430    0.4694970  
C    -2.3785640   -2.3804390    1.7146210  
O    -1.7240640   -1.8395220    2.5924400  
C    -2.7945880   -3.8873800    1.9029120  
O    -2.4683110   -4.4425660    2.9388930  
C    -3.5213330   -4.5487390    0.8252900  
H    -4.8878910   -5.2089700   -1.7582730  
H    -3.8067730   -5.5860430    0.9669470  
H    -4.8234720   -3.0574030   -3.3725200  
H    -3.7837640   -1.1446030   -2.1179500  
