58


C    -2.7469430   -3.4774120   -1.5287780  
C    -4.0846600   -3.6265940   -1.3804360  
C    -4.5016630   -2.7788320   -0.2861290  
C    -3.2716510   -2.1090280    0.2066420  
N    -2.2282820   -2.5464500   -0.6098620  
C    -3.2398410   -1.2714690    1.2757280  
C    -4.4921440   -0.9752090    1.9685320  
O    -4.5505800   -0.2338410    2.9381890  
C    -5.8106770   -1.6431110    1.4371130  
O    -6.8677310   -1.3918890    1.9944990  
C    -5.7089560   -2.5548330    0.2955930  
H    -4.7236700   -4.2683120   -1.9694860  
H    -2.3320570   -0.8203560    1.6579860  
H    -6.6192080   -3.0399300   -0.0435940  
H    -2.0718530   -3.9538550   -2.2230890  
C    -0.2582250    1.3469730   -0.4306770  
C     1.0355230    0.8890940   -0.2669220  
C     1.0099100   -0.5427430   -0.2523150  
C    -0.4089380   -0.9204520   -0.4247940  
N    -1.1181990    0.2474240   -0.5098730  
C    -0.8642240   -2.2118360   -0.4909350  
C     0.1345580   -3.2847810   -0.4697350  
O    -0.1524130   -4.4613380   -0.6255700  
C     1.6381830   -2.9022630   -0.2296780  
O     2.4290150   -3.8095070   -0.0441940  
C     2.0205350   -1.4754890   -0.1729110  
H     1.9282490    1.4910850   -0.2451730  
H    -2.0976640    0.3579920   -0.7454250  
C     1.3995910    5.3289920    0.7065680  
C     1.1796200    3.9873220    0.5718270  
C    -0.0530290    3.8198810   -0.1491300  
C    -0.5501800    5.1888730   -0.4183880  
N     0.3939510    6.0553210    0.1045940  
C    -1.7048060    5.4956870   -1.0617410  
C    -2.5513730    4.3956820   -1.4982520  
O    -3.5936830    4.5503410   -2.1110770  
C    -2.1012920    2.9322220   -1.1514100  
O    -2.9020010    2.0364930   -1.3849250  
C    -0.7605560    2.6992840   -0.5618060  
H     1.8039190    3.2096780    0.9812640  
H    -2.0264930    6.5112860   -1.2689610  
H     2.2150470    5.8391610    1.2020050  
H     0.3087400    7.0600440    0.1140070  
C     4.2993280    0.8651350    2.8730230  
C     3.3150680    0.2640980    2.1536590  
C     3.9399710   -0.3727190    1.0113870  
C     5.3902640   -0.0921020    1.1320210  
N     5.5362430    0.6900330    2.2642720  
C     6.3503780   -0.5593820    0.2925700  
C     5.9367940   -1.3955460   -0.8252150  
O     6.7214650   -1.8963690   -1.6154570  
C     4.4002650   -1.6458120   -1.0300650  
O     4.0311900   -2.1857450   -2.0558520  
C     3.4391770   -1.1437640   -0.0064090  
H     2.2645340    0.2459560    2.4002040  
H     7.4094890   -0.3617440    0.4263110  
H     4.2291740    1.4217720    3.7983900  
H     6.4236630    0.9385790    2.6731220  
