58


C    -0.0348170    1.8278730    0.1197170  
C     1.1357960    1.0847520    0.1231110  
C     0.7868600   -0.2982190    0.2172340  
C    -0.6855640   -0.3474280    0.2321090  
N    -1.1114500    0.9485550    0.1889650  
C    -1.4605940   -1.4958470    0.2441800  
C    -0.7125610   -2.7554180    0.3885040  
O    -1.2462280   -3.8498300    0.5241220  
C     0.8581150   -2.7348430    0.3997100  
O     1.4203010   -3.7888110    0.6226450  
C     1.5680070   -1.4454210    0.2371980  
H     2.1349770    1.4502440   -0.0503350  
H    -2.0658130    1.2862420    0.2038920  
C     2.6610180    5.2503840    0.8073430  
C     1.8325140    6.2587510    0.4492800  
C     0.5612110    5.6624140    0.0898700  
C     0.7272130    4.1999640    0.2523680  
N     2.0175260    4.0135430    0.6643060  
C    -0.2592170    3.2534700    0.0308160  
C    -1.5972610    3.7909060   -0.2818170  
O    -2.6098690    3.1032640   -0.3381120  
C    -1.7610350    5.3285850   -0.5552960  
O    -2.8417670    5.7337140   -0.9432260  
C    -0.6153360    6.2061580   -0.3177420  
H     2.0648690    7.3134300    0.4387940  
H    -0.7533270    7.2720760   -0.4686070  
H     3.6860520    5.2817480    1.1506010  
H     2.3651990    3.1393480    1.0300690  
C    -2.9058490   -1.5000420    0.1227370  
C    -3.7746680   -0.5174550   -0.3230250  
C    -5.1071900   -1.0480930   -0.2715830  
C    -4.9801630   -2.4358510    0.2364800  
N    -3.6388630   -2.6365110    0.4678550  
C    -6.0261920   -3.2832490    0.4136240  
C    -7.3681130   -2.8073540    0.0929060  
O    -8.3694490   -3.4959140    0.2217430  
C    -7.5264520   -1.3361690   -0.4420940  
O    -8.6435740   -0.9210070   -0.7135510  
C    -6.3221050   -0.5190410   -0.5945090  
H    -3.5240900    0.4510670   -0.7279850  
H    -5.9144690   -4.2974350    0.7838790  
H    -6.4410240    0.4942060   -0.9664070  
H    -3.1741700   -3.5114990    0.6798860  
C     3.0111560   -1.4318310    0.1631410  
C     3.8895930   -0.5035600    0.6749800  
C     5.2073390   -0.9691820    0.3218820  
C     4.9524760   -2.2240270   -0.4568040  
N     3.6840900   -2.4948380   -0.5395880  
C     6.0341040   -2.9893300   -1.0224200  
C     7.2964910   -2.5517750   -0.8030200  
O     8.3972970   -3.1656630   -1.2582670  
C     7.5850430   -1.3014190   -0.0050560  
O     8.7664240   -0.9823620    0.1364460  
C     6.4685010   -0.5282720    0.5483340  
H     3.6582470    0.3417100    1.3073030  
H     5.8236770   -3.8896930   -1.5884970  
H     9.1500310   -2.6188940   -0.9391470  
H     6.7157190    0.3685050    1.1084340  
