60


C     2.1459810   -0.6222930   -0.0520840  
C     1.3354860    0.4814570    0.1582600  
C     2.2378890    1.6140790    0.3253830  
C     3.5559680    1.1075860    0.2407490  
N     3.4727800   -0.2695280   -0.0279000  
C     4.6919490    1.8955720    0.4634960  
C     4.4931040    3.2417040    0.7418000  
O     5.5646150    4.0532980    0.9538520  
C     3.1813540    3.7732020    0.8054090  
O     3.1399520    5.1226680    1.0778420  
C     2.0643980    2.9791750    0.6150730  
H     5.6987840    1.4949300    0.4711900  
H     5.2209820    4.9435590    1.1458640  
H     2.2204380    5.4291600    1.0770300  
H     1.0718740    3.4125950    0.6604140  
H     1.8647070   -1.6378500   -0.2760080  
C    -1.3610650   -2.6609930    1.7253130  
C    -0.2848370   -1.8917720    1.4311230  
C    -0.7708280   -0.7169320    0.7320690  
C    -2.2291530   -0.8686870    0.6439170  
N    -2.5249470   -2.0719050    1.2200330  
C    -3.1241780    0.0565720    0.1142050  
C    -2.5382480    1.3378590   -0.2525960  
O    -3.1800900    2.3461540   -0.5395510  
C    -0.9716760    1.4806560   -0.2942140  
O    -0.5255740    2.5074050   -0.7744100  
C    -0.1095660    0.3894580    0.2287750  
H     0.7403870   -2.1053460    1.6945470  
H    -1.4200040   -3.6001720    2.2574520  
H    -3.4662350   -2.3412490    1.4704850  
C    -4.5458790   -0.1850930   -0.0040260  
C    -5.2613410   -1.3718720   -0.0001970  
C    -6.6497660   -1.0548940   -0.1777930  
C    -6.7212200    0.4243520   -0.2881210  
N    -5.4288450    0.8813330   -0.1646380  
C    -7.8710350    1.1222220   -0.4732310  
C    -9.1253040    0.3823620   -0.5721090  
O   -10.2076490    0.9259970   -0.7384040  
C    -9.0735220   -1.1861820   -0.4590750  
O   -10.1182850   -1.8182370   -0.5389220  
C    -7.7749760   -1.8223780   -0.2606540  
H    -4.8528960   -2.3716800   -0.0031570  
H    -7.9038860    2.2043410   -0.5533180  
H    -7.7517680   -2.9056480   -0.1861040  
H    -5.0875930    1.8253870   -0.3021520  
C     7.0549990   -0.0781690   -2.5179490  
C     7.6323650   -1.2459620   -2.1390540  
C     6.7478990   -1.8756010   -1.1805590  
C     5.5961050   -0.9541750   -1.0280490  
N     5.8291060    0.1017050   -1.8773740  
C     4.5372850   -1.1792580   -0.1895030  
C     4.5114810   -2.4480510    0.5562750  
O     3.5826210   -2.7807710    1.2756400  
C     5.7343710   -3.4286660    0.3989780  
O     5.7164690   -4.4699290    1.0341790  
C     6.8172990   -3.0549290   -0.5055100  
H     8.5720290   -1.6437780   -2.4929250  
H     7.6498090   -3.7432230   -0.6094530  
H     7.4049900    0.6686430   -3.2178880  
H     5.2732120    0.9442990   -1.9052430  
