58


C    -1.0450590    0.4190980    1.4626730  
C    -2.3760050    0.1846080    1.4309950  
C    -2.7539380   -0.0684490    0.0499660  
C    -1.5145720    0.0282640   -0.7485610  
N    -0.5091260    0.3639880    0.1617540  
C    -1.4081800   -0.2050770   -2.0780760  
C    -2.6233970   -0.5698900   -2.8003440  
O    -2.6387830   -0.8370900   -3.9901280  
C    -3.9752130   -0.6028560   -2.0021650  
O    -5.0133250   -0.7523310   -2.6170510  
C    -3.9520760   -0.3855510   -0.5263390  
H    -3.0435480    0.1843930    2.2794490  
H    -0.4722940   -0.1481330   -2.6233240  
H    -0.3861030    0.6398580    2.2913590  
C     1.6787050   -0.7209880   -0.1040150  
C     2.9710910   -0.3516290   -0.3219940  
C     2.9671050    1.1066270   -0.4885450  
C     1.5637480    1.5530220   -0.3425960  
N     0.8226260    0.3917050   -0.1345600  
C     1.1403630    2.8368460   -0.4054920  
C     2.1380450    3.8777310   -0.6556010  
O     1.8608600    5.0641440   -0.7138920  
C     3.6300390    3.4309760   -0.8628270  
O     4.4772960    4.2761050   -1.0950270  
C     3.9519950    1.9994350   -0.7609230  
H     0.1014190    3.1271010   -0.2923300  
H     4.9862340    1.7083010   -0.9116560  
H     1.2624060   -1.7022770    0.0795870  
C    -6.3751220    2.4352350    1.9482710  
C    -5.4071470    1.8713140    1.1784470  
C    -5.7942470    0.4980090    0.9344380  
C    -7.0912000    0.3092320    1.6320860  
N    -7.3737580    1.5168590    2.2435420  
C    -7.8229200   -0.8336600    1.6208370  
C    -7.3056810   -1.9748960    0.8761740  
O    -7.8966670   -3.0389360    0.7856820  
C    -5.9101280   -1.8270160    0.1722130  
O    -5.4056240   -2.8100160   -0.3396140  
C    -5.2196000   -0.5120670    0.2096050  
H    -4.5206020    2.3626920    0.8078580  
H    -8.7799250   -0.9364210    2.1229600  
H    -6.4448590    3.4462050    2.3276980  
H    -8.2286540    1.7239610    2.7359160  
C     4.1789590   -2.4432820   -1.0841640  
C     4.1098450   -1.2563570   -0.4178980  
C     5.4236150   -1.1393310    0.2450730  
C     6.1495520   -2.3804440   -0.1669530  
N     5.4126110   -3.1324600   -0.9363620  
C     7.4902150   -2.6541750    0.2778090  
C     8.0772350   -1.7615240    1.1109440  
O     9.3168130   -1.8938480    1.6050230  
C     7.3608290   -0.5192350    1.5682420  
O     7.9522930    0.2368660    2.3340730  
C     5.9863680   -0.2527780    1.0872930  
H     7.9938050   -3.5574440   -0.0479560  
H     9.4634810   -1.1059610    2.1728430  
H     5.5092420    0.6554100    1.4419060  
H     3.4106750   -2.8846470   -1.7088820  
