60


C     0.1998700    1.5613190   -0.1163710  
C     1.3947630    0.8336930   -0.1310780  
C     2.4667000    1.7653740   -0.0570190  
C     1.8804830    3.0606330    0.0095070  
N     0.5197970    2.9036290   -0.0405480  
C     2.6349310    4.2321570    0.1260140  
C     4.0138900    4.1031600    0.1863320  
O     4.7918190    5.2135640    0.2845580  
C     4.6325880    2.8258340    0.1362290  
O     6.0043930    2.8863830    0.1824340  
C     3.8880480    1.6423560    0.0133230  
H     1.4851810   -0.2406030   -0.0727690  
H    -0.2008410    3.6084880    0.0715550  
H     2.1847010    5.2181670    0.1679100  
H     5.7204520    4.9216990    0.2741010  
H     6.3801850    2.0034420    0.0018800  
C    -1.6274140   -2.1918440   -1.4780610  
C    -2.9223130   -1.9489680   -1.1486930  
C    -2.9778780   -0.6299880   -0.5488420  
C    -1.5936240   -0.1275030   -0.5474010  
N    -0.8136850   -1.1360130   -1.0789950  
C    -1.1814410    1.1231910   -0.1351450  
C    -2.2719300    2.0377380    0.2402090  
O    -2.1180130    3.2393320    0.4289490  
C    -3.7183110    1.4635550    0.4376610  
O    -4.5091980    2.1414470    1.0658490  
C    -4.0356250    0.1133290   -0.0784390  
H    -3.7622170   -2.6015880   -1.3328700  
H    -1.1909570   -3.0512080   -1.9694110  
H     0.1164710   -0.9660380   -1.4346070  
C    -5.9025750   -3.4564270    1.7584240  
C    -7.1998690   -3.2118420    1.4441630  
C    -7.2355000   -1.9729700    0.6943020  
C    -5.8299280   -1.5123350    0.5906960  
N    -5.0731580   -2.4620840    1.2468750  
C    -5.4243050   -0.3515650   -0.0121170  
C    -6.4826420    0.4610950   -0.6575630  
O    -6.2316890    1.4375210   -1.3405910  
C    -7.9800110    0.0082050   -0.5155920  
O    -8.8534390    0.7196200   -0.9854260  
C    -8.2622350   -1.2532940    0.1665510  
H    -8.0516740   -3.8212500    1.7083110  
H    -9.2992800   -1.5639950    0.2481540  
H    -5.4727280   -4.2772730    2.3171310  
H    -4.0776360   -2.3969620    1.3911310  
C     4.5445890    0.3499180   -0.0719430  
C     4.2098800   -0.7735410   -0.7788080  
C     5.2010080   -1.7890340   -0.5423910  
C     6.1795140   -1.1903550    0.3911660  
N     5.7918340    0.1452290    0.5912890  
C     7.2333540   -1.8493260    0.9204340  
C     7.4519520   -3.2446150    0.5210000  
O     8.3780130   -3.9126030    0.9499890  
C     6.4564600   -3.8839370   -0.5129160  
O     6.6353090   -5.0413740   -0.8634300  
C     5.3472450   -3.0657390   -0.9955910  
H     3.3781200   -0.8511900   -1.4635410  
H     7.9395230   -1.3986690    1.6114440  
H     4.6527640   -3.5225230   -1.6941900  
H     5.9088190    0.5433900    1.5185080  
