58


C    -6.0291980   -1.4759910   -0.8916580  
C    -6.9713920   -0.7292500   -0.2694990  
C    -6.3234990   -0.0127540    0.8066950  
C    -4.8945990   -0.4126880    0.7652290  
N    -4.7587200   -1.2855200   -0.3156950  
C    -3.9643820    0.0017630    1.6640500  
C    -4.3734490    0.9323440    2.7146250  
O    -3.5972550    1.3575010    3.5570000  
C    -5.8724200    1.3987780    2.7504720  
O    -6.2264430    2.1885830    3.6113310  
C    -6.7884420    0.8500870    1.7472570  
H    -8.0197070   -0.6822910   -0.5263450  
H    -2.9338210   -0.3318520    1.6589200  
H    -7.8309670    1.1485410    1.8013790  
H    -6.1263180   -2.1550580   -1.7248600  
C    -0.7400770    0.2299120   -1.1340970  
C    -0.1328160   -0.9866940   -1.3788180  
C    -1.1331010   -2.0143010   -1.2767590  
C    -2.3922330   -1.3155680   -0.9322760  
N    -2.0909530    0.0212480   -0.8584600  
C    -3.5866550   -1.9513230   -0.7237050  
C    -3.6322590   -3.4087370   -0.9380480  
O    -4.6626570   -4.0544800   -0.8390230  
C    -2.2997790   -4.1520750   -1.3242250  
O    -2.3480840   -5.3598220   -1.4995310  
C    -1.0828590   -3.3652000   -1.4628170  
H     0.8761360   -1.1473970   -1.7308340  
H    -0.1680080   -3.8887810   -1.7213640  
H    -2.7374430    0.7965480   -0.7677390  
C     3.3769490    1.6772600   -0.5071670  
C     3.1709100    3.0042100   -0.7632560  
C     1.7667710    3.1867740   -1.0308230  
C     1.1459040    1.8455470   -0.9407980  
N     2.1579160    0.9842610   -0.6160920  
C    -0.1917600    1.5730890   -1.1426020  
C    -1.0665680    2.7504190   -1.3061620  
O    -2.2888000    2.6884560   -1.2923180  
C    -0.4141300    4.1645490   -1.4972830  
O    -1.1363090    5.1013070   -1.7900660  
C     1.0294430    4.2967480   -1.3097770  
H     3.9161150    3.7843260   -0.7113710  
H     1.4654530    5.2859460   -1.4059450  
H     2.0433200   -0.0110390   -0.4960100  
C     4.5884790    0.9771480   -0.1507600  
C     5.8801230    1.2849540   -0.4753320  
C     6.7333200    0.2667220    0.0870820  
C     5.8359690   -0.6796300    0.7892310  
N     4.5299330   -0.2388520    0.5590860  
C     6.2595620   -1.7480940    1.5026020  
C     7.6997310   -2.0160930    1.5622520  
O     8.1716980   -2.9559410    2.1786880  
C     8.6660990   -1.0523370    0.7829920  
O     9.8663900   -1.2676400    0.8062890  
C     8.0808820    0.0842130    0.0618500  
H     6.1956010    2.1073330   -1.1016670  
H     5.5913340   -2.4280330    2.0220000  
H     8.7576110    0.7567400   -0.4561950  
H     3.8079870   -0.4093260    1.2483570  
