60


C    -1.0598400   -1.1935320   -0.1708500  
C    -2.1588640   -0.3396580   -0.0066610  
C    -3.3384820   -1.1216330   -0.0913720  
C    -2.9160820   -2.4716600   -0.2901390  
N    -1.5474960   -2.4773680   -0.3472710  
C    -3.8106840   -3.5412860   -0.3678690  
C    -5.1542900   -3.2421320   -0.2060720  
O    -6.0797200   -4.2282790   -0.2451440  
C    -5.6103090   -1.9043630    0.0072550  
O    -6.9720200   -1.8134420    0.1232570  
C    -4.7343200   -0.8176780    0.0258760  
H    -2.1134190    0.7069670    0.2520430  
H    -0.9227030   -3.2734340   -0.4059710  
H    -3.4935480   -4.5681820   -0.5129420  
H    -6.9384440   -3.7971760   -0.0646880  
H    -7.1590880   -1.1569310    0.8367330  
C     1.1670970    2.5268590   -0.8090090  
C     2.4290470    2.0730490   -0.5700650  
C     2.3341240    0.6712040   -0.2470680  
C     0.9095640    0.3396930   -0.3132820  
N     0.2430820    1.5137940   -0.6133360  
C     0.3533690   -0.9177760   -0.1535800  
C     1.3404700   -2.0081590   -0.0305700  
O     1.0484920   -3.1944450   -0.1213550  
C     2.8419550   -1.6581580    0.2652400  
O     3.5249240   -2.5523700    0.7261750  
C     3.3129690   -0.2745040    0.0413830  
H     3.3366090    2.6506250   -0.6418830  
H     0.8350670    3.5137960   -1.1021050  
H    -0.7094630    1.5323150   -0.9500220  
C     4.7158160    0.0379550    0.1621470  
C     5.3057090    1.2069960    0.5914770  
C     6.7246590    0.9914670    0.4990790  
C     6.8479890   -0.3995960   -0.0460080  
N     5.6878490   -0.9535690   -0.2326410  
C     8.1359880   -0.9894660   -0.3128340  
C     9.2347290   -0.2526500   -0.0274360  
O    10.4957600   -0.6707470   -0.2125020  
C     9.1412180    1.1457290    0.5408810  
O    10.2047880    1.7313670    0.7607250  
C     7.8250320    1.7320520    0.7885430  
H     4.8179810    2.0783380    1.0042590  
H     8.2002660   -1.9944700   -0.7145810  
H    11.0567650    0.0807390    0.0868730  
H     7.7956360    2.7420610    1.1858850  
C    -3.7930940    2.8336210   -2.3261980  
C    -3.9170710    1.5554810   -1.8765800  
C    -4.7288880    1.5909620   -0.6792580  
C    -5.0707360    3.0185300   -0.4663370  
N    -4.4434660    3.7214200   -1.4785690  
C    -5.8353000    3.4974010    0.5485410  
C    -6.3955030    2.5297590    1.4740030  
O    -7.0645250    2.8275880    2.4500990  
C    -6.1550680    1.0017400    1.1812670  
O    -6.8345790    0.2107290    1.8327410  
C    -5.1828340    0.5869120    0.1522340  
H    -3.5166880    0.6705830   -2.3453390  
H    -6.0312680    4.5518720    0.7130330  
H    -3.2905040    3.2034270   -3.2104670  
H    -4.5821690    4.7033690   -1.6604980  
