60


C    -2.5488860   -1.1542640    1.1723100  
C    -1.2629380   -0.7431480    0.9749190  
C    -1.2870850    0.2566890   -0.0587620  
C    -2.6363200    0.4086320   -0.4603450  
N    -3.4064460   -0.4726870    0.3045130  
C    -3.0383210    1.3622500   -1.4000680  
C    -2.0520670    2.1579980   -1.9605490  
O    -2.3895070    3.0973350   -2.8882100  
C    -0.6897850    2.0042780   -1.5957350  
O     0.1596750    2.8356610   -2.2968970  
C    -0.2807780    1.0621910   -0.6510530  
H    -0.3962000   -1.1078830    1.5079280  
H    -4.0670610    1.4907180   -1.7120220  
H    -1.5693020    3.5538140   -3.1451460  
H     1.0384050    2.8483420   -1.8852720  
H    -2.9500320   -1.9093680    1.8321570  
C     1.8301580   -0.2937500   -0.3250130  
C     1.1422330    0.8832950   -0.3094260  
C     2.0946130    1.9005870    0.1223920  
C     3.3874050    1.2095000    0.3431600  
N     3.1643300   -0.1442510    0.0646880  
C     4.5305210    1.8396070    0.7016160  
C     4.4938820    3.2879920    0.9169920  
O     5.4846440    3.9350770    1.2148660  
C     3.1208070    4.0294870    0.7516460  
O     3.0620490    5.2293980    0.9661770  
C     1.9594740    3.2401250    0.3303180  
H     5.4724600    1.3290500    0.8616140  
H     1.0108380    3.7578460    0.2223940  
H     1.4648820   -1.2787690   -0.5819810  
C     4.2752470   -3.1646410   -2.9106610  
C     3.7386850   -2.0809720   -2.2864790  
C     4.2855100   -2.0451140   -0.9496170  
C     5.1949670   -3.2099990   -0.8403550  
N     5.1323380   -3.8510570   -2.0635770  
C     5.9353480   -3.5254930    0.2537000  
C     5.8283510   -2.6683710    1.4250710  
O     6.4816400   -2.8297020    2.4430560  
C     4.8142910   -1.4648890    1.3797790  
O     4.6242330   -0.8147380    2.3913580  
C     4.1061210   -1.1913240    0.1079190  
H     3.0482650   -1.3744060   -2.7215060  
H     6.6067820   -4.3769780    0.2966370  
H     4.1192140   -3.5167290   -3.9217030  
H     5.6697830   -4.6668730   -2.3121910  
C    -6.4161830   -0.4671730    3.4845950  
C    -5.2587660   -0.3472230    2.7833990  
C    -5.5673870   -0.6280970    1.3974300  
C    -7.0170950   -0.9257150    1.3455840  
N    -7.4670920   -0.8259040    2.6472500  
C    -7.7216670   -1.2091380    0.2175280  
C    -7.0062930   -1.2353110   -1.0456750  
O    -7.5406340   -1.4315850   -2.1265790  
C    -5.4487550   -0.9947530   -1.0271970  
O    -4.8240700   -1.1259160   -2.0633970  
C    -4.7998410   -0.6475010    0.2627150  
H    -4.2929400   -0.0758500    3.1810760  
H    -8.7890910   -1.4050120    0.2130010  
H    -6.5957100   -0.3209100    4.5413670  
H    -8.4291240   -0.9284920    2.9297150  
