60


C     3.2063420    0.3174020   -0.0828260  
C     1.8289300    0.3262140   -0.2011390  
C     1.3498890    1.5273030    0.4062960  
C     2.4788240    2.2477240    0.8755740  
N     3.5994880    1.4731650    0.6214200  
C     2.3865230    3.5071140    1.4708730  
C     1.1170950    4.0515720    1.6171710  
O     0.9646490    5.2725850    2.1886780  
C    -0.0412440    3.3401130    1.2006500  
O    -1.2302450    3.9667940    1.4980710  
C     0.0669010    2.0870020    0.6021050  
H     1.2518020   -0.4508690   -0.6755350  
H     4.5123040    1.8868130    0.4820320  
H     3.2521130    4.0659870    1.8105390  
H     0.0098810    5.4709570    2.1831810  
H    -1.8895130    3.8057250    0.7974500  
C    -1.4514300    0.1126240    0.6739550  
C    -2.6490660   -0.3156080    0.1713020  
C    -3.1343440    0.7653840   -0.6942700  
C    -2.1022850    1.8291780   -0.6390950  
N    -1.1023500    1.3752270    0.2092700  
C    -2.1645860    3.0100130   -1.3168790  
C    -3.3394820    3.2763390   -2.1447100  
O    -3.4731600    4.2935800   -2.8054770  
C    -4.4724440    2.1934050   -2.1673820  
O    -5.4926780    2.4116420   -2.7982140  
C    -4.2631450    0.9409470   -1.4238960  
H    -1.3481530    3.7260430   -1.3386690  
H    -5.0332180    0.1841420   -1.5074080  
H    -0.7761300   -0.4064180    1.3397780  
C    -3.0449750   -2.6760240    3.9362510  
C    -2.7913470   -1.6563410    3.0795730  
C    -3.2444320   -2.1311810    1.7754140  
C    -3.7666350   -3.4983540    2.0570590  
N    -3.6410130   -3.8149890    3.3163520  
C    -4.3399810   -4.3234800    1.0249150  
C    -4.4045340   -3.8118450   -0.2246970  
O    -4.9297020   -4.4604410   -1.2777740  
C    -3.8826880   -2.4393820   -0.5493370  
O    -3.9735660   -2.0692250   -1.7172540  
C    -3.2642680   -1.5939870    0.5224890  
H    -2.3800710   -0.6842840    3.3106870  
H    -4.7109270   -5.3137750    1.2642360  
H    -4.8214640   -3.8571290   -2.0443660  
H    -2.8598670   -2.7085820    5.0034180  
C     7.2936760   -0.5746470    1.3032580  
C     7.6333880   -1.5098330    0.3818200  
C     6.4908520   -1.7006050   -0.4870800  
C     5.4493600   -0.7746120   -0.0027640  
N     6.0121390   -0.0758470    1.0622190  
C     4.1845960   -0.6541930   -0.5273030  
C     3.8467820   -1.6121490   -1.6120080  
O     2.7287860   -1.7151410   -2.0848670  
C     4.9773630   -2.5472060   -2.1877840  
O     4.6998880   -3.2565320   -3.1425220  
C     6.2837150   -2.5312960   -1.5477280  
H     8.5803780   -2.0244540    0.3066360  
H     7.0479890   -3.2011210   -1.9286030  
H     7.8719120   -0.1818950    2.1293410  
H     5.4392450    0.3503310    1.7784800  
