60


C    -1.5679390    5.3288770   -1.5130290  
C    -1.3252210    4.0369040   -1.1611650  
C    -0.0964930    4.0174780   -0.4015850  
C     0.3722210    5.4213280   -0.3514180  
N    -0.5757240    6.1669140   -1.0255240  
C     1.5318750    5.8426010    0.2198880  
C     2.3846780    4.8450890    0.8454670  
O     3.4822820    5.0978900    1.3194870  
C     1.8494220    3.3715710    0.9379290  
O     2.4227610    2.6085410    1.6935400  
C     0.6227900    2.9953900    0.1797770  
H    -1.9391610    3.1858490   -1.4105620  
H     1.8660150    6.8754250    0.2028710  
H    -2.3889160    5.7405060   -2.0849880  
H    -0.5061630    7.1563910   -1.2047020  
C     0.2117170    1.6036390    0.1427760  
C    -1.0544070    1.0808970    0.2065060  
C    -0.8894170   -0.3551390    0.1765510  
C     0.5865630   -0.5518590    0.0615790  
N     1.2175010    0.5854510    0.0348710  
C     1.1921790   -1.8728430   -0.0040100  
C     0.3253910   -2.9189840    0.1288350  
O     0.7178160   -4.1968920    0.1752890  
C    -1.1686530   -2.7549920    0.2280310  
O    -1.8374600   -3.7847750    0.2287380  
C    -1.7697500   -1.3913240    0.2653810  
H    -1.9830360    1.6101160    0.3624560  
H    -0.1126810   -4.7235910    0.1929560  
C     4.9494240   -0.3094430    1.8803460  
C     3.6531950   -0.5509180    1.5631290  
C     3.6434230   -1.4859040    0.4595000  
C     5.0716620   -1.7813190    0.1628960  
N     5.8080060   -1.0469170    1.0660580  
C     5.5143430   -2.6321470   -0.7997420  
C     4.5265210   -3.2987230   -1.6281620  
O     4.8102720   -4.1046500   -2.5028900  
C     3.0110950   -2.9545150   -1.3921210  
O     2.1967140   -3.3849250   -2.1901610  
C     2.6312290   -2.0831310   -0.2479840  
H     2.7968360   -0.0639310    1.9983770  
H     6.5650330   -2.8477640   -0.9685980  
H     5.3558690    0.3549440    2.6309690  
H     6.8144650   -1.0147120    1.0950270  
C    -4.5522840    0.6122090   -2.5300700  
C    -5.7164540    0.3259560   -1.8671220  
C    -5.3595910   -0.4091050   -0.6862870  
C    -3.9463890   -0.5326710   -0.6848620  
N    -3.4808630    0.1038190   -1.8161180  
C    -3.2338880   -1.2431490    0.3091260  
C    -3.9993070   -1.8107150    1.3321000  
O    -3.3802450   -2.4497530    2.3604750  
C    -5.4115210   -1.6812190    1.3490930  
O    -6.0071800   -2.2879940    2.4386910  
C    -6.0945960   -0.9970400    0.3619780  
H    -6.7134570    0.5996030   -2.1838720  
H    -2.5148490    0.1327000   -2.1038710  
H    -4.0751430   -2.8272920    2.9276420  
H    -6.9704150   -2.2470110    2.3468620  
H    -7.1791770   -0.9160120    0.3983380  
H    -4.3882720    1.1395760   -3.4592260  
