58


C    -3.6950100    1.3663790   -0.4486530  
C    -4.9435900    0.8443670   -0.2482690  
C    -4.8037880   -0.5643450    0.0316490  
C    -3.3535020   -0.8511860   -0.0267520  
N    -2.7261080    0.3626830   -0.2714570  
C    -2.7833580   -2.0839270    0.1190850  
C    -3.7054090   -3.1919720    0.4774830  
O    -3.3033520   -4.2904580    0.8115930  
C    -5.2506930   -2.9116450    0.5111310  
O    -6.0090300   -3.8455580    0.7209770  
C    -5.7127430   -1.5430410    0.2974940  
H    -5.8675430    1.4047730   -0.2242770  
H    -6.7820040   -1.3583100    0.3308850  
H    -1.8063040    0.4158320   -0.6879600  
C    -3.9468800    3.6639320   -1.4623320  
C    -3.2734720    2.7245740   -0.7260980  
C    -2.0629890    3.3769510   -0.2321300  
C    -2.0990720    4.7656660   -0.7467960  
N    -3.2723010    4.8665210   -1.4803550  
C    -1.1478550    5.6988950   -0.5009030  
C    -0.0095360    5.3273980    0.3452150  
O     0.8926160    6.1005720    0.6187620  
C     0.0284270    3.8700920    0.9305210  
O     0.9424680    3.5430360    1.6725640  
C    -1.0525310    2.9517880    0.5692570  
H    -1.1880470    6.7130120   -0.8859000  
H    -1.0115800    1.9482220    0.9748840  
H    -4.8785410    3.5538930   -2.0016270  
H    -3.5575820    5.6815040   -2.0020780  
C     0.8418140   -0.2493010    1.9044780  
C     1.8051590   -0.9683070    1.2613710  
C     1.1067530   -1.9236030    0.4019120  
C    -0.3410990   -1.6796670    0.5927010  
N    -0.4346500   -0.6423460    1.5067850  
C    -1.3472330   -2.3606740   -0.0361410  
C    -0.9260040   -3.4012300   -1.0076450  
O    -1.7103010   -3.9508640   -1.7584110  
C     0.5989070   -3.7515620   -1.1266510  
O     0.9310120   -4.6981090   -1.8205140  
C     1.5618510   -2.9128780   -0.4108900  
H     2.6172250   -3.1290140   -0.5398040  
H     0.9631970    0.5839050    2.5846430  
H    -1.2894440   -0.3942390    1.9822160  
C     3.9408540   -0.8129180    2.5965210  
C     3.2517780   -0.8161530    1.4185390  
C     4.2382540   -0.5811960    0.3656280  
C     5.5508280   -0.4470720    1.0448020  
N     5.2949340   -0.5898840    2.3955010  
C     6.7279060   -0.2236970    0.4082480  
C     6.7156270   -0.0869190   -1.0459320  
O     7.7237860    0.1123610   -1.7054020  
C     5.3318420   -0.1941180   -1.7849240  
O     5.2941470   -0.0548800   -2.9966780  
C     4.1309950   -0.4543580   -0.9823430  
H     7.6784930   -0.1321960    0.9246890  
H     3.1847420   -0.5343610   -1.5072540  
H     3.5600930   -0.9645050    3.5981110  
H     5.9960250   -0.5777790    3.1195750  
