64


C    -0.8282720   -1.8835690    0.1843320  
C    -1.6141230   -0.7448170    0.1392340  
C    -2.9451310   -1.1418890   -0.1802160  
C    -2.9308840   -2.5591300   -0.2923080  
N    -1.6386260   -2.9785190   -0.0766480  
C    -4.0756050   -3.3064780   -0.5844180  
C    -5.2575980   -2.6083970   -0.7795110  
O    -6.3999240   -3.2868630   -1.0970420  
C    -5.2990490   -1.1965690   -0.6650790  
O    -6.5527170   -0.6692410   -0.9160540  
C    -4.1660010   -0.4328020   -0.3614800  
H    -1.2767960    0.2584220    0.3457620  
H    -1.3239370   -3.9313210    0.0310680  
H    -4.0666560   -4.3870890   -0.6822320  
H    -7.0918130   -2.6208980   -1.2524530  
H    -6.4823070    0.2949440   -0.9974510  
C     2.4047140    0.9440730   -0.7514800  
C     3.4659510    0.2202000   -0.2499140  
C     2.8986790   -1.0156040    0.2538340  
C     1.4990050   -0.9595180    0.0341540  
N     1.2288800    0.2513570   -0.5694770  
C     0.6120800   -2.0035290    0.3921670  
C     1.2126910   -3.1419310    0.9395130  
O     0.4416500   -4.2301990    1.2710990  
C     2.6059200   -3.2055380    1.1789590  
O     3.0129270   -4.3959630    1.7546620  
C     3.4532050   -2.1606770    0.8631800  
H     0.3371670    0.5026980   -0.9740150  
H     1.0396020   -4.8904580    1.6638150  
H     3.9659000   -4.3623690    1.9247090  
H     4.5193070   -2.2289460    1.0621700  
H     2.4050240    1.9091000   -1.2378560  
C     5.5240810    3.9576560    1.1824170  
C     4.5910910    3.0016230    0.8778200  
C     5.2901440    1.9023660    0.2710400  
C     6.6655260    2.2548410    0.2410840  
N     6.7774830    3.5121940    0.8005340  
C     7.6582810    1.4092350   -0.2694070  
C     7.2461920    0.1827660   -0.7648140  
O     8.1627150   -0.6829650   -1.2950230  
C     5.8784190   -0.1888970   -0.7444770  
O     5.6330090   -1.4354460   -1.2968910  
C     4.8808560    0.6401830   -0.2342500  
H     3.5297440    3.0651980    1.0702280  
H     7.6377040    4.0253930    0.9086900  
H     8.7094400    1.6778610   -0.2973400  
H     7.6609870   -1.4433810   -1.6369870  
H     4.6730270   -1.5405910   -1.4065440  
H     5.4044960    4.9276240    1.6443740  
C    -6.7881800    2.2480740    2.0333640  
C    -6.1683410    1.1757210    1.4766020  
C    -5.1568770    1.6811870    0.5680110  
C    -5.2361410    3.1598960    0.6556430  
N    -6.2604110    3.4366140    1.5389780  
C    -4.4244510    4.0286040   -0.0029100  
C    -3.3886810    3.4724610   -0.8525990  
O    -2.5707480    4.1510360   -1.4565850  
C    -3.3007450    1.9037340   -1.0011210  
O    -2.4534390    1.4606890   -1.7572920  
C    -4.2416070    1.0370620   -0.2352370  
H    -6.3815940    0.1376070    1.6777050  
H    -4.4970830    5.1074210    0.0931150  
H    -7.5856370    2.2762260    2.7640130  
H    -6.5065230    4.3606190    1.8577400  
