58


C     4.4305510    0.5669560   -0.1169410  
C     4.8863050    1.7594810   -0.6212840  
C     6.3076300    1.8241890   -0.4119210  
C     6.6791630    0.5632500    0.2735560  
N     5.5130080   -0.1896050    0.3701540  
C     7.9283620    0.2625330    0.6996630  
C     9.0006710    1.2258780    0.4425560  
O    10.1555270    1.0376550    0.7885160  
C     8.6390010    2.5498720   -0.3240330  
O     9.5243810    3.3577980   -0.5584590  
C     7.2451460    2.7647700   -0.7165500  
H     4.2863290    2.4905090   -1.1443790  
H     8.1826300   -0.6617660    1.2095430  
H     7.0022730    3.6910900   -1.2281110  
H     5.3931830   -0.8889660    1.0899620  
C     1.9148610    0.7567520   -0.0329360  
C     3.0857410    0.0505900   -0.0768200  
C     2.6586340   -1.3599430   -0.0936140  
C     1.1726450   -1.2947640   -0.0480200  
N     0.7640130   -0.0531460   -0.0167470  
C     0.3449790   -2.5019570   -0.0586750  
C     1.0392910   -3.6894310   -0.1320630  
O     0.4523490   -4.9036270   -0.1506650  
C     2.5203570   -3.7712630   -0.2089260  
O     3.0285370   -4.8951220   -0.2775340  
C     3.3140760   -2.5327720   -0.1962300  
H     1.1993430   -5.5459660   -0.2148730  
H     4.3915170   -2.6321820   -0.2815270  
H     1.7980980    1.8324880    0.0124280  
C    -1.1009850   -2.4286530   -0.0030940  
C    -1.9194430   -1.3105680    0.0417330  
C    -3.2744020   -1.7514350    0.0817700  
C    -3.2269980   -3.2282040    0.0309470  
N    -1.8946810   -3.5726520    0.0065650  
C    -4.3113840   -4.0450630   -0.0213510  
C    -5.6324830   -3.4332890   -0.0303130  
O    -6.6647640   -4.0726930   -0.1561640  
C    -5.7298680   -1.8789990    0.1603470  
O    -6.8198710   -1.4043340    0.4118210  
C    -4.4800280   -1.0620540    0.1185960  
H    -1.5590910   -0.2970890    0.0200540  
H    -4.2406420   -5.1260190   -0.0924800  
H    -1.5266500   -4.5099120   -0.0659210  
C    -4.5690660    0.3773780    0.1715000  
C    -3.7038570    1.2660200    0.7710100  
C    -4.2567630    2.5755990    0.5340890  
C    -5.4914950    2.3108070   -0.2717710  
N    -5.6750250    1.0410000   -0.4750180  
C    -6.3271410    3.3871860   -0.7399290  
C    -5.9720520    4.6504140   -0.4054330  
O    -6.6574540    5.7459060   -0.7615730  
C    -4.7420980    4.9465100    0.4199710  
O    -4.5004000    6.1285300    0.6683230  
C    -3.8966880    3.8366770    0.8744260  
H    -2.8336970    1.0379460    1.3693510  
H    -7.2128310    3.1709750   -1.3266470  
H    -6.1591010    6.5001000   -0.3737990  
H    -3.0149630    4.0879050    1.4560360  
