60


C     0.2598900    1.9943540    0.4728470  
C    -1.0596490    1.8175990    0.1430040  
C    -1.2208440    0.4324620   -0.1959050  
C     0.0499280   -0.1804790   -0.0677540  
N     0.9419950    0.7958650    0.3249520  
C     0.2764760   -1.5631890   -0.2716590  
C    -0.8707840   -2.3107210   -0.5764230  
O    -0.7798310   -3.6601230   -0.7657840  
C    -2.1417950   -1.7086690   -0.7406820  
O    -3.1081060   -2.6110580   -1.1275220  
C    -2.3503750   -0.3410570   -0.5694660  
H    -1.8155810    2.5889400    0.1349930  
H     1.8608710    0.6093140    0.7016520  
H    -1.6762540   -3.9827120   -0.9747650  
H    -3.9928300   -2.2145150   -1.0761920  
C    -3.9432510    1.3553660   -1.5730630  
C    -3.6721570    0.2712560   -0.7833630  
C    -4.9517340   -0.1457400   -0.2150570  
C    -5.9761660    0.7807110   -0.7596650  
N    -5.2898000    1.6726140   -1.5647860  
C    -7.2994710    0.7171200   -0.4745140  
C    -7.7668360   -0.3298150    0.4354760  
O    -8.9402540   -0.4705000    0.7368280  
C    -6.6985310   -1.3035600    1.0511060  
O    -7.0612700   -2.1657100    1.8334850  
C    -5.2935190   -1.1344250    0.6583070  
H    -8.0328280    1.4067230   -0.8811490  
H    -4.5646210   -1.7957000    1.1176710  
H    -3.2533760    1.9355480   -2.1719020  
H    -5.7172430    2.4067860   -2.1080980  
C     1.6039260   -2.1554180   -0.1494500  
C     2.8402980   -1.5642870   -0.2875070  
C     3.8456160   -2.5721940   -0.0690360  
C     3.1082820   -3.8275170    0.2173460  
N     1.7689490   -3.5038380    0.1757710  
C     3.6989750   -5.0242210    0.4648850  
C     5.1573150   -5.0929310    0.4563660  
O     5.7765460   -6.1248360    0.6679010  
C     5.9602350   -3.7718920    0.1626410  
O     7.1815120   -3.8121300    0.1583940  
C     5.2069000   -2.5436570   -0.0930050  
H     3.0367990   -0.5520040   -0.6083580  
H     3.1424960   -5.9333450    0.6709200  
H     5.7723290   -1.6398980   -0.2998170  
H     1.0036950   -4.1621770    0.1641500  
C     0.4955820    3.9370870    2.0022540  
C     1.2963610    5.0159960    2.1676880  
C     2.3270040    4.9546700    1.1511200  
C     2.0527430    3.7325060    0.3569670  
N     0.9254960    3.1364130    0.9307680  
C     2.7798630    3.3358350   -0.7165040  
C     3.9253720    4.1537340   -1.1181600  
O     4.6306950    3.8777060   -2.0750900  
C     4.2498620    5.4403140   -0.2760310  
O     5.2072910    6.1283160   -0.5899720  
C     3.3751990    5.7663070    0.8553720  
H     1.1937970    5.7781540    2.9265250  
H     2.5502090    2.4528190   -1.3031500  
H     3.5973730    6.6664840    1.4203580  
H    -0.3722700    3.6216110    2.5655020  
