58


C     1.9349520   -0.6032920   -0.0362670  
C     3.2374180   -0.3283320   -0.3109600  
C     3.3604330    1.1332140   -0.3494710  
C     2.0159200    1.6857970   -0.0759370  
N     1.1859450    0.5778970    0.0925920  
C     1.7099100    3.0023320   -0.0126000  
C     2.7850790    3.9679910   -0.2484390  
O     2.6142320    5.1746850   -0.2068560  
C     4.2176010    3.4106270   -0.5760160  
O     5.1231310    4.1945510   -0.8011100  
C     4.4122410    1.9524210   -0.6001970  
H     0.7118330    3.3741080    0.1928860  
H     5.4079730    1.5813850   -0.8199530  
H     1.4399550   -1.5567660    0.0898790  
C    -0.6297660    0.6324400    1.7469200  
C    -1.9797960    0.5361920    1.7312240  
C    -2.4114010    0.4412850    0.3486030  
C    -1.1871430    0.4749540   -0.4698280  
N    -0.1345030    0.6352750    0.4306940  
C    -1.1201350    0.3505440   -1.8201500  
C    -2.3679050    0.1496380   -2.5331000  
O    -2.4427660   -0.0148260   -3.7405380  
C    -3.7054170    0.1245360   -1.7001850  
O    -4.7446090   -0.0517600   -2.3105680  
C    -3.6626830    0.3184780   -0.2208180  
H    -2.6187430    0.5130120    2.6005040  
H    -0.1917670    0.3868300   -2.3791410  
H     0.0652670    0.7088970    2.5716160  
C     4.2449160   -2.3247630   -1.4783690  
C     4.2934620   -1.3081460   -0.5681530  
C     5.5810970   -1.4259900    0.1140140  
C     6.2648480   -2.5966230   -0.4886490  
N     5.3913270   -3.1011030   -1.4361780  
C     7.4967810   -3.0367190   -0.1313770  
C     8.2053900   -2.3278220    0.9327050  
O     9.3168210   -2.6496800    1.3208560  
C     7.4874770   -1.1031630    1.6081020  
O     8.0487850   -0.5129590    2.5159700  
C     6.1572510   -0.7176280    1.1193810  
H     7.9813160   -3.8941820   -0.5881540  
H     5.6774580    0.1337310    1.5913180  
H     3.4582550   -2.5580790   -2.1842390  
H     5.5991710   -3.8632210   -2.0627040  
C    -5.1031680    1.2410940    1.6295940  
C    -4.8917180    0.4238170    0.5459410  
C    -6.1812710   -0.2951940    0.3979930  
C    -7.0169030    0.2313050    1.5171190  
N    -6.3760910    1.1348930    2.2155450  
C    -8.3571650   -0.2253870    1.7567870  
C    -8.8565200   -1.1788990    0.9334940  
O   -10.0845820   -1.7028390    1.0398250  
C    -8.0379750   -1.7430990   -0.1961310  
O    -8.5507920   -2.6157870   -0.8917280  
C    -6.6648480   -1.2408450   -0.4292880  
H    -8.9298160    0.1891580    2.5788190  
H   -10.1546980   -2.3621220    0.3142210  
H    -6.1297810   -1.6482540   -1.2776180  
H    -4.4107130    1.9711100    2.0315400  
