62


C    -0.4495260   -1.5083290   -0.3097590  
C     0.9181030   -1.5140590   -0.0930770  
C     1.3462130   -0.1535980    0.0592470  
C     0.1799980    0.6511290   -0.0567960  
N    -0.8811010   -0.1948080   -0.2955440  
C     0.1716750    2.0598360    0.0583350  
C     1.4239800    2.6114200    0.3198520  
O     1.5594790    3.9751360    0.4446920  
C     2.6072910    1.8433990    0.4573720  
O     3.7239160    2.6043100    0.6996970  
C     2.6159140    0.4555180    0.2972020  
H     1.5200060   -2.4025910    0.0342350  
H    -1.8293100    0.1210250   -0.4378190  
H     2.5019430    4.1196650    0.6716980  
H     4.2658230    2.1176000    1.3697410  
C    -3.9812200    1.7117190    1.7871180  
C    -2.6345030    1.5780820    1.5536020  
C    -2.2788030    2.5285870    0.5312990  
C    -3.4675750    3.2345880    0.2044610  
N    -4.4849800    2.7044030    0.9725610  
C    -3.5025410    4.2877970   -0.7165160  
C    -2.2992910    4.6463920   -1.3014250  
O    -2.2469260    5.6780020   -2.1883130  
C    -1.0956770    3.9494110   -1.0064060  
O    -0.0001340    4.4074830   -1.7085800  
C    -1.0605410    2.8648180   -0.1261700  
H    -1.9672090    0.9102100    2.0795510  
H    -5.4473500    3.0036260    0.9499060  
H    -4.4094220    4.8320880   -0.9592670  
H    -1.3066650    5.7560230   -2.4399240  
H     0.7518740    4.4724890   -1.0801290  
H    -4.6307450    1.1622450    2.4535830  
C     4.1049950   -2.5649580   -2.5149250  
C     5.2385900   -2.9585600   -1.8804670  
C     5.3504220   -2.1645260   -0.6745240  
C     4.1639340   -1.2726130   -0.6545670  
N     3.4638670   -1.5552160   -1.8041450  
C     3.8619370   -0.3450940    0.3189840  
C     4.8948700   -0.1795260    1.3419150  
O     4.9051940    0.7401940    2.1627630  
C     6.1003060   -1.1902720    1.4139330  
O     6.8502470   -1.1225980    2.3738450  
C     6.2773890   -2.1371940    0.3197110  
H     5.9410520   -3.7063800   -2.2180780  
H     7.1359180   -2.8002160    0.3507550  
H     3.6850390   -2.9101400   -3.4505480  
H     2.5453020   -1.1843730   -2.0014550  
C    -1.0511770   -3.8084110   -1.1251060  
C    -1.3592990   -2.6234540   -0.5183430  
C    -2.7545410   -2.7375180   -0.0872470  
C    -3.2142530   -4.0858510   -0.5056720  
N    -2.1284860   -4.6847180   -1.1120220  
C    -4.4644840   -4.5727100   -0.2982290  
C    -5.4332910   -3.7307620    0.3970300  
O    -6.5832960   -4.0773330    0.6192320  
C    -4.9572150   -2.3147610    0.8837210  
O    -5.7381370   -1.6017560    1.4954990  
C    -3.5823440   -1.8981430    0.5865410  
H    -4.7795800   -5.5616180   -0.6168690  
H    -3.2840660   -0.9146320    0.9337060  
H    -0.1180500   -4.1062640   -1.5840160  
H    -2.1384040   -5.5980380   -1.5382500  
