58


C    -4.3343680   -1.2270290    1.7045780  
C    -4.7912970   -0.3518780    0.7510830  
C    -6.0424690   -0.9288560    0.2399260  
C    -6.2467380   -2.1976510    0.9824690  
N    -5.1741750   -2.3093650    1.8509470  
C    -7.2882030   -3.0480330    0.8078170  
C    -8.2913950   -2.7155780   -0.1999750  
O    -9.2652590   -3.4148690   -0.4294500  
C    -8.0842760   -1.3964920   -1.0252120  
O    -8.8925100   -1.1056050   -1.8912590  
C    -6.9184300   -0.5525760   -0.7251880  
H    -7.4077430   -3.9686030    1.3708260  
H    -6.8181140    0.3680760   -1.2861760  
H    -3.4540730   -1.1346850    2.3263040  
H    -5.0646780   -3.0401600    2.5375720  
C    -0.4837250    0.7267180    0.1435520  
C    -1.6492250    0.0107230    0.3444460  
C    -2.7180280    0.9575680    0.2605080  
C    -2.0325200    2.2578150   -0.0136440  
N    -0.7379750    2.1213370   -0.0731330  
C    -2.7619810    3.4839110   -0.1973070  
C    -4.1101150    3.4177540   -0.1277070  
O    -4.9235070    4.4668640   -0.2945230  
C    -4.8437550    2.1236110    0.1592450  
O    -6.0706480    2.2046120    0.2277970  
C    -4.0887720    0.8675250    0.3652830  
H    -1.7387930   -1.0559440    0.4908440  
H    -2.2362230    4.4110230   -0.3955080  
H    -5.8337930    4.1142830   -0.1695870  
C     1.3557470   -1.0112620    0.2956600  
C     0.8670500    0.2646270    0.1164210  
C     2.0825740    1.0773390   -0.1130630  
C     3.1958930    0.0973800   -0.0336570  
N     2.7469910   -1.1144310    0.2079510  
C     4.5802770    0.4819630   -0.1931200  
C     4.8116800    1.8076740   -0.4323940  
O     6.0279450    2.3181810   -0.6428730  
C     3.7021230    2.8200890   -0.5176340  
O     4.0193750    3.9864440   -0.7397580  
C     2.3020940    2.3854100   -0.3393040  
H     5.8902950    3.2835390   -0.7752670  
H     1.5091470    3.1216900   -0.3972500  
H     0.7822380   -1.9094790    0.4931120  
C     5.7670540   -3.3144950   -2.2721200  
C     5.0702260   -2.2092740   -1.9223850  
C     5.8223940   -1.6168100   -0.8210020  
C     6.9884210   -2.5418130   -0.6436880  
N     6.9524890   -3.5264280   -1.4935230  
C     8.0033120   -2.3040130    0.3496030  
C     7.8726130   -1.2071900    1.1292150  
O     8.7342190   -0.8649120    2.1011170  
C     6.7101840   -0.2605960    0.9858580  
O     6.6477720    0.6746320    1.7785410  
C     5.6804250   -0.4970150   -0.0709080  
H     4.1470220   -1.8393550   -2.3422840  
H     8.8340240   -2.9930160    0.4535130  
H     8.3670200   -0.0451940    2.4986870  
H     5.5326620   -4.0300070   -3.0513510  
