60


C     3.1874590   -0.9895370    1.8473390  
C     4.4706970   -1.4194380    1.8962560  
C     4.6329400   -2.4245070    0.8681010  
C     3.3132470   -2.5520440    0.2022070  
N     2.4585410   -1.6560140    0.8493090  
C     3.0679400   -3.3736640   -0.8475620  
C     4.1610100   -4.2052940   -1.3502990  
O     4.0297530   -4.9682990   -2.2948600  
C     5.5599040   -4.1045150   -0.6421190  
O     6.4794870   -4.8004880   -1.0433020  
C     5.7015300   -3.1640700    0.4716200  
H     5.2338020   -1.0761840    2.5797580  
H     2.1029840   -3.4574140   -1.3318860  
H     6.6764880   -3.0826330    0.9425610  
H     2.6852920   -0.2483070    2.4522630  
C     0.4909140    2.1246970    0.0489160  
C    -0.7942810    1.6710930   -0.1828360  
C    -0.7706960    0.2512300   -0.0480520  
C     0.6437240   -0.0622640    0.2921900  
N     1.3697260    1.0171840    0.3303580  
C     1.1043440   -1.4114580    0.5491450  
C     0.1620470   -2.3916310    0.4803700  
O     0.4123320   -3.6787320    0.7215260  
C    -1.2746160   -2.1130340    0.0937380  
O    -1.9995730   -3.1107490    0.0360460  
C    -1.7228280   -0.7407360   -0.1770920  
H    -1.6556470    2.2633690   -0.4385990  
H    -0.4472540   -4.1378200    0.5602640  
C    -3.4022560    0.3782610   -1.6546950  
C    -3.0841660   -0.4925700   -0.6440020  
C    -4.3600590   -1.0419520   -0.1665000  
C    -5.4185390   -0.4074830   -0.9911270  
N    -4.7633280    0.4387790   -1.8688480  
C    -6.7491550   -0.6379160   -0.8674850  
C    -7.1977080   -1.5663310    0.1662770  
O    -8.3726510   -1.8379980    0.3564440  
C    -6.1023670   -2.2281930    1.0756890  
O    -6.4496030   -2.9880120    1.9646410  
C    -4.6900830   -1.9068860    0.8251620  
H    -7.4980810   -0.1581020   -1.4900940  
H    -3.9529310   -2.4031350    1.4440090  
H    -2.7297050    0.9589070   -2.2716550  
H    -5.2118180    0.9625990   -2.6048700  
C    -1.3270160    6.2638150   -0.0829520  
C    -1.1595050    4.8995630   -0.0075220  
C     0.2486690    4.6361500   -0.0240060  
C     0.8882120    5.8970310   -0.1011430  
N    -0.0932370    6.8647690   -0.1475040  
C     2.2798380    6.0614630   -0.0961120  
C     3.0564380    4.9219880    0.0061590  
O     4.4124710    5.0210330    0.0285530  
C     2.4648890    3.6322080    0.0864700  
O     3.3771450    2.6372260    0.1746510  
C     1.0543740    3.4475790    0.0459860  
H    -1.9664830    4.1917390    0.0950970  
H     0.0729700    7.8583840   -0.1909480  
H     2.7571620    7.0343570   -0.1569810  
H     4.7578560    4.1120580    0.0974180  
H     2.8815340    1.7743120    0.2782990  
H    -2.2323670    6.8536640   -0.0901690  
