58


C     3.5941890   -1.3740070   -1.6907220  
C     3.8678580   -2.6980500   -1.7441590  
C     4.9047150   -2.9702100   -0.7733750  
C     5.2302730   -1.6700860   -0.1376910  
N     4.4082030   -0.7113250   -0.7561510  
C     6.1089850   -1.5326570    0.8823430  
C     6.8230880   -2.7216430    1.3561030  
O     7.6323910   -2.6793260    2.2684920  
C     6.5269970   -4.0968630    0.6610130  
O     7.1240420   -5.0935350    1.0353950  
C     5.5233250   -4.1218820   -0.4047540  
H     3.4048800   -3.4189230   -2.4026220  
H     6.3377260   -0.5888660    1.3609180  
H     5.2919490   -5.0804220   -0.8591670  
H     2.8873180   -0.7917140   -2.2649320  
C     0.9786750    2.0074700   -0.0711320  
C     1.7181490    0.8651810   -0.2782140  
C     3.0927610    1.2919950   -0.3145920  
C     3.0301970    2.7669660   -0.1170780  
N     1.8070900    3.1802530    0.0269850  
C     4.2145850    3.5882040   -0.0751980  
C     5.4091250    2.9751200   -0.2278380  
O     6.5914750    3.6100450   -0.2038040  
C     5.5240200    1.4910570   -0.4615850  
O     6.6457330    1.0385840   -0.6741360  
C     4.2920920    0.6546580   -0.4614080  
H     1.3325420   -0.1369840   -0.3629510  
H     4.1282250    4.6576820    0.0790800  
H     7.2686550    2.9222920   -0.3847380  
C    -2.1378640   -1.0334580   -0.3560330  
C    -3.2931970   -0.3230440   -0.1392500  
C    -2.8216350    1.0595780    0.0618210  
C    -1.3395570    0.9769840   -0.0707430  
N    -0.9714720   -0.2592720   -0.3174720  
C    -0.4607850    2.1356650    0.0605220  
C    -1.1126360    3.3299080    0.3167270  
O    -0.5272490    4.5094610    0.4786310  
C    -2.6164260    3.4218840    0.4497200  
O    -3.0869960    4.5346010    0.6784470  
C    -3.4524150    2.2201410    0.3093000  
H    -1.2684030    5.1405150    0.6463890  
H    -4.5281640    2.3052410    0.4075750  
H    -2.0469690   -2.0963720   -0.5469650  
C    -4.6476290   -0.7897860   -0.1100790  
C    -5.1316440   -2.0664880   -0.2825720  
C    -6.5572150   -1.9678470   -0.1544530  
C    -6.8069850   -0.5076440    0.1056580  
N    -5.6968150    0.1696090    0.1303280  
C    -8.1358290    0.0095630    0.2948330  
C    -9.1626150   -0.8708960    0.2304780  
O   -10.4484040   -0.5418280    0.3853090  
C    -8.9441740   -2.3508570   -0.0302320  
O    -9.9518430   -3.0581550   -0.0679930  
C    -7.5855910   -2.8525550   -0.2191950  
H    -4.5662030   -2.9679190   -0.4735510  
H    -8.2912050    1.0663180    0.4811060  
H   -10.9441460   -1.3874130    0.2853030  
H    -7.4654650   -3.9154680   -0.4033000  
