62


C    -1.8404450    2.7040670   -0.4073460  
C    -2.7829440    3.2496140    0.4281550  
C    -3.6127740    2.1713380    0.8740780  
C    -3.1159950    0.9803250    0.2771480  
N    -2.0503100    1.3380470   -0.5194180  
C    -3.6894210   -0.2993300    0.4842500  
C    -4.8031410   -0.3034740    1.3227570  
O    -5.4568450   -1.4911500    1.5854130  
C    -5.3173460    0.8719060    1.9254920  
O    -6.4257100    0.6418390    2.7172740  
C    -4.7398000    2.1063010    1.7167940  
H    -2.8608590    4.2944010    0.6942090  
H    -1.4374320    0.6888540   -0.9929050  
H    -6.1762550   -1.2906740    2.2124060  
H    -6.6865390    1.4598870    3.1655600  
H    -5.1475720    2.9999130    2.1832270  
C     0.4905990   -1.9814710    0.0552030  
C    -0.6270640   -1.2404820    0.4364150  
C    -1.7658910   -1.8261440   -0.1836430  
C    -1.2908640   -2.9534030   -0.9293700  
N     0.0648360   -3.0122900   -0.7663900  
C    -2.1381100   -3.8010820   -1.6514570  
C    -3.4905430   -3.5164090   -1.6021120  
O    -4.3805470   -4.3006810   -2.2583510  
C    -3.9958350   -2.3951150   -0.8724060  
O    -5.3611070   -2.2530090   -0.9734520  
C    -3.1638180   -1.5196510   -0.1794790  
H    -0.6117380   -0.4005190    1.1155450  
H     0.7158370   -3.6825720   -1.1525760  
H    -1.7786450   -4.6575190   -2.2114350  
H    -5.2601720   -3.9228050   -2.0629220  
H    -5.7107070   -2.0517840   -0.0777940  
C     1.8860580   -1.8356190    0.3276240  
C     2.5690300   -0.8721680    1.0266920  
C     3.9558570   -1.2193790    0.9068450  
C     3.9593640   -2.4820480    0.0913660  
N     2.7535380   -2.8346720   -0.2499130  
C     5.1850690   -3.1573340   -0.2450550  
C     6.3387350   -2.5992160    0.1909860  
O     7.5564340   -3.1034220   -0.0371820  
C     6.3672800   -1.3107310    0.9992530  
O     7.4848610   -0.9068680    1.3329170  
C     5.1151580   -0.6450190    1.3275700  
H     2.1799490   -0.0068230    1.5425380  
H     5.1677640   -4.0717840   -0.8275700  
H     8.1713530   -2.4686790    0.4022040  
H     5.1560350    0.2884970    1.8795130  
C    -0.8553320    4.0456830   -2.2796100  
C     0.3558850    4.5216810   -2.6577220  
C     1.3204320    4.0946380   -1.6645610  
C     0.5551880    3.3239650   -0.6551670  
N    -0.7708670    3.3172310   -1.0824040  
C     1.0916280    2.7600270    0.4556910  
C     2.5283700    2.8846910    0.6671100  
O     3.1094910    2.3712630    1.6143480  
C     3.3636780    3.7070180   -0.3818820  
O     4.5637500    3.8411820   -0.2051310  
C     2.6606390    4.2790830   -1.5349260  
H     0.5657860    5.1094480   -3.5396310  
H     0.5010800    2.2170730    1.1858330  
H     3.2488780    4.8423800   -2.2529000  
H    -1.8216060    4.1477000   -2.7552670  
