58


C    -5.2875010    2.1791680   -0.6157300  
C    -6.6027970    2.2267680   -0.2995910  
C    -6.9755470    0.9250550    0.2126000  
C    -5.7494050    0.0933050    0.1632050  
N    -4.7371130    0.9120430   -0.3601450  
C    -5.6807410   -1.1817550    0.6121910  
C    -6.8967760   -1.7978560    1.1486830  
O    -6.9204500   -2.9387850    1.5807260  
C    -8.2147150   -0.9447200    1.1754720  
O    -9.2386870   -1.4458620    1.6109380  
C    -8.1503040    0.4352020    0.6863490  
H    -7.2596060    3.0756640   -0.4246660  
H    -4.7810580   -1.7846190    0.5818410  
H    -9.0568550    1.0308440    0.7332150  
H    -4.6542650    2.9435440   -1.0452430  
C    -1.0163720    2.8620080    0.8387990  
C    -2.3157390    2.5044310    0.7035320  
C    -2.3575930    1.3280990   -0.1365540  
C    -0.9585720    1.0255330   -0.5027460  
N    -0.1706840    1.9895070    0.1366550  
C    -0.5730240    0.0139050   -1.3230260  
C    -1.5948680   -0.9014830   -1.8053850  
O    -1.3415260   -1.9204800   -2.4319590  
C    -3.1001230   -0.5804960   -1.4965020  
O    -3.9680460   -1.2442910   -2.0287820  
C    -3.3971850    0.5614480   -0.5928030  
H    -3.1579730    2.9872840    1.1760900  
H     0.4514860   -0.1724710   -1.6197120  
H    -0.5745030    3.6586290    1.4205360  
C     1.2178380    2.1083190    0.1199000  
C     1.9565190    3.2576970    0.1156840  
C     3.3423990    2.8669780    0.1072200  
C     3.3513230    1.3823570    0.1340120  
N     2.0281340    0.9795890    0.1911620  
C     4.4776550    0.6021280    0.1433330  
C     5.7484540    1.3407320   -0.1100690  
O     6.7728050    0.7831270   -0.4573590  
C     5.7657440    2.9044170    0.0099050  
O     6.8467130    3.4735710    0.0240440  
C     4.4897200    3.5999030    0.0810730  
H     1.5760220    4.2676530    0.0732240  
H     4.4968990    4.6848690    0.1142680  
H     1.7935770    0.0356610   -0.1355310  
C     1.9489050   -2.7649640   -1.4208950  
C     2.7208090   -3.8274300   -1.1072970  
C     3.8493440   -3.2860450   -0.3631800  
C     3.6173790   -1.7999620   -0.3516730  
N     2.4928090   -1.5210130   -0.9545460  
C     4.5414350   -0.8660500    0.2764030  
C     5.5376130   -1.4578000    1.0136070  
O     6.3860120   -0.7794970    1.7840960  
C     5.7781840   -2.9467080    1.0405000  
O     6.7224100   -3.3524290    1.7135660  
C     4.8862860   -3.8428160    0.2893540  
H     2.5421370   -4.8696690   -1.3307670  
H     7.0143390   -1.4454300    2.1453120  
H     5.0907140   -4.9080010    0.3299000  
H     1.0031400   -2.7438730   -1.9507450  
