60


C    -2.2642910   -1.4764220    0.1816390  
C    -2.6683800   -2.7840580    0.3345110  
C    -4.0996670   -2.8174290    0.2311580  
C    -4.5327430   -1.4147850   -0.0054860  
N    -3.3819010   -0.6558730    0.0052180  
C    -5.8224490   -1.0330610   -0.1853860  
C    -6.8651740   -2.0538460   -0.1291670  
O    -8.0517040   -1.8020280   -0.2747450  
C    -6.4326760   -3.5423150    0.1377390  
O    -7.2933470   -4.4085200    0.1919120  
C    -5.0088440   -3.8318440    0.3073810  
H    -2.0216730   -3.6294690    0.5201510  
H    -6.1213260   -0.0048410   -0.3646700  
H    -4.7213200   -4.8640270    0.4832130  
H    -3.3040290    0.3157610   -0.2554120  
C    -0.9512710   -0.8934290    0.1841990  
C     0.2768360   -1.4988170    0.2061930  
C     1.2438320   -0.4342180    0.1942500  
C     0.4307310    0.8105720    0.1514780  
N    -0.8487300    0.5335220    0.1506980  
C     1.0228740    2.1411080    0.1227610  
C     2.3783100    2.1619130    0.3201860  
O     3.0696050    3.2952270    0.4804450  
C     3.2113790    0.9272830    0.4477270  
O     4.4128870    1.1160050    0.7007070  
C     2.6179160   -0.4249470    0.2666940  
H     0.4912080   -2.5564150    0.2271220  
H     4.0091550    3.0322220    0.5853070  
C    -2.8507180    3.7404980    1.6424790  
C    -2.8114810    4.9746660    1.0781820  
C    -1.6033210    5.0428040    0.2849540  
C    -0.9271580    3.7303040    0.4552390  
N    -1.7169190    3.0003360    1.3168110  
C     0.2741460    3.3844750   -0.1143510  
C     0.8239920    4.3599730   -1.0915520  
O     1.7409220    4.0927610   -1.8470160  
C     0.1708670    5.7837910   -1.2020210  
O     0.7225880    6.6249520   -1.8935540  
C    -1.0739410    6.0325870   -0.4827240  
H    -3.5401270    5.7633230    1.1967240  
H    -1.5354200    7.0100520   -0.5843480  
H    -3.6026140    3.3067870    2.2891600  
H    -1.6609710    1.9835850    1.3100980  
C     2.5382700   -3.7869940   -2.6925560  
C     2.2959250   -2.6179040   -2.0127880  
C     3.1823140   -2.5847160   -0.8873260  
C     3.9591620   -3.7746270   -0.9514980  
N     3.5305220   -4.4923870   -2.0490910  
C     4.9810390   -4.0689340   -0.0496100  
C     5.2560670   -3.1205210    0.9281160  
O     6.2451570   -3.3494920    1.8280260  
C     4.5291680   -1.9069370    1.0080260  
O     4.9217300   -1.1099570    2.0545130  
C     3.4542340   -1.6241150    0.1441510  
H     1.5630420   -1.8756600   -2.2908380  
H     3.9287040   -5.3630990   -2.3650350  
H     5.5717110   -4.9779630   -0.0995990  
H     6.2886380   -2.5501810    2.3875520  
H     4.9469530   -0.1842670    1.7248750  
H     2.0748950   -4.1769030   -3.5876410  
