58


C     2.7230410   -1.2365930   -0.2971480  
C     3.5881990   -0.3369960    0.2998220  
C     4.9062570   -0.8991770    0.2732680  
C     4.7756650   -2.2216580   -0.3863660  
N     3.4444320   -2.3564440   -0.7122930  
C     5.8101100   -3.0758600   -0.5924910  
C     7.1424400   -2.6773420   -0.1456000  
O     8.1319210   -3.3784210   -0.2895740  
C     7.3040760   -1.2776090    0.5530430  
O     8.4102800   -0.9249260    0.9332500  
C     6.1116740   -0.4449580    0.7224290  
H     3.3132960    0.5973370    0.7613790  
H     5.6984410   -4.0418840   -1.0745550  
H     6.2343370    0.5186760    1.2078710  
H     2.9831720   -3.1824660   -1.0703530  
C    -0.2984560    2.1178130   -0.2308980  
C     0.9024430    1.4230550   -0.2203830  
C     0.5685740    0.0401670   -0.3741250  
C    -0.9208510    0.0428050   -0.4383380  
N    -1.4172020    1.2385360   -0.3388140  
C    -1.6964880   -1.1741840   -0.6061870  
C    -0.9852090   -2.3185410   -0.8370430  
O    -1.5589980   -3.4964380   -1.1338640  
C     0.5001130   -2.3522050   -0.7979610  
O     1.0207790   -3.4468280   -1.0682510  
C     1.2888020   -1.1333350   -0.4774050  
H     1.8935230    1.8470020   -0.2873900  
H    -0.8132630   -4.1265760   -1.2522880  
C     1.9482780    5.2826730    1.8149380  
C     1.1799400    6.3509060    1.4893330  
C     0.0924710    5.8613180    0.6668700  
C     0.3027730    4.4055600    0.5240490  
N     1.4476210    4.1212170    1.2202080  
C    -0.5373880    3.5347790   -0.1467050  
C    -1.7102780    4.1526030   -0.8219870  
O    -2.4485570    3.5507850   -1.5778320  
C    -1.9757340    5.6875080   -0.6148000  
O    -2.9965230    6.1709420   -1.0728940  
C    -0.9838070    6.4820720    0.1130830  
H     1.3387410    7.3757980    1.7909790  
H    -1.1664980    7.5472660    0.2169650  
H     2.8409930    5.2305530    2.4233110  
H     1.7446050    3.1797680    1.4357420  
C    -3.8696200   -0.0963790   -1.1699410  
C    -5.1921860   -0.3212080   -0.9904140  
C    -5.3384940   -1.5270340   -0.2094020  
C    -3.9640080   -2.0133280    0.0614960  
N    -3.0949860   -1.1153450   -0.5751340  
C    -3.6843000   -3.0830790    0.8447450  
C    -4.8004180   -3.8406830    1.4170340  
O    -4.6307370   -4.8156990    2.1316860  
C    -6.2630100   -3.3721050    1.0969180  
O    -7.2023470   -4.0059010    1.5513660  
C    -6.4315620   -2.1734560    0.2740310  
H    -5.9944180    0.3028290   -1.3571810  
H    -2.6824150   -3.4252100    1.0656410  
H    -7.4432450   -1.8245790    0.0907350  
H    -3.3711340    0.7244400   -1.6629000  
