62


C    -3.4193760    0.8236240   -0.2129240  
C    -2.1065970    0.9257640    0.2141880  
C    -1.5955360    2.1688530   -0.2575580  
C    -2.6457750    2.8085090   -0.9723190  
N    -3.7307870    1.9560250   -0.9696730  
C    -2.5118040    4.0782680   -1.5448620  
C    -1.2840390    4.7054980   -1.4089020  
O    -1.0854850    5.9328660   -1.9551350  
C    -0.2129250    4.0766740   -0.7094420  
O     0.9400730    4.8245840   -0.6827910  
C    -0.3365130    2.8184210   -0.1264910  
H    -1.5620310    0.1662840    0.7563120  
H    -4.6783510    2.2510320   -1.1585670  
H    -3.3107230    4.5704400   -2.0892470  
H    -0.1572140    6.1785470   -1.7928280  
H     1.6621910    4.2796920   -0.3232470  
C     2.1108250   -0.8861480   -0.8940350  
C     1.1932210    0.1239270   -0.9735890  
C     1.4188140    0.9918230    0.1479970  
C     2.5066050    0.4532690    0.8802490  
N     2.9195620   -0.7065540    0.2275900  
C     3.0265160    1.0633010    2.0275860  
C     2.4250400    2.2366060    2.4537450  
O     2.8796470    2.8642460    3.5752260  
C     1.3319640    2.7928850    1.7391400  
O     0.8344750    3.9523850    2.2943730  
C     0.8145740    2.1989120    0.5861650  
H     0.4385720    0.2373630   -1.7383720  
H     3.8662690    0.6584940    2.5811100  
H     2.3078880    3.6372560    3.7258420  
H    -0.0051430    4.1766470    1.8577360  
H     2.2636910   -1.7459970   -1.5303450  
C    -4.3744350   -0.2317820   -0.0224570  
C    -4.4332780   -1.2051200    0.9422150  
C    -5.5834410   -2.0262640    0.6844460  
C    -6.2213780   -1.4668730   -0.5316510  
N    -5.4881950   -0.3352370   -0.8830030  
C    -7.3061280   -2.0004690   -1.1406320  
C    -7.9230810   -3.1878210   -0.5464330  
O    -8.9055380   -3.7308620   -1.0269490  
C    -7.2940960   -3.7689720    0.7718970  
O    -7.8089760   -4.7531960    1.2842620  
C    -6.1111300   -3.1122090    1.3190620  
H    -3.7612760   -1.2960780    1.7835880  
H    -7.7552860   -1.5849640   -2.0378100  
H    -5.6723790   -3.5331550    2.2186320  
H    -5.4232750   -0.0429690   -1.8496720  
C     4.1350680   -2.1777920    1.8053270  
C     3.9771730   -1.5507000    0.6054270  
C     5.1261180   -1.8933310   -0.2212910  
C     5.9687000   -2.7847270    0.6115750  
N     5.3181760   -2.9034390    1.8265630  
C     7.1376920   -3.3353660    0.1984680  
C     7.6111280   -3.0292730   -1.1500810  
O     8.6487040   -3.4799680   -1.6088310  
C     6.7377180   -2.0724080   -2.0429140  
O     7.1208370   -1.7981440   -3.1681510  
C     5.4872820   -1.5455170   -1.4827650  
H     7.7424290   -3.9897340    0.8187640  
H     4.8897170   -0.8858770   -2.1039490  
H     3.4837820   -2.1608650    2.6684950  
H     5.6565180   -3.4363180    2.6123330  
