60


C     2.2322420   -0.6188060   -0.6060400  
C     1.3465950    0.2034920    0.0411180  
C     2.0396740    1.4190150    0.3972480  
C     3.3681690    1.2813010   -0.0625900  
N     3.4620360    0.0274540   -0.6669160  
C     4.3422040    2.2687540    0.1075780  
C     3.9549320    3.4290370    0.7608950  
O     4.8552840    4.4279220    0.9519870  
C     2.6212420    3.5876640    1.2340140  
O     2.4014330    4.7921440    1.8618240  
C     1.6668360    2.6029170    1.0636130  
H     5.3617860    2.1579010   -0.2436280  
H     4.3997260    5.1509090    1.4179470  
H     1.4695870    4.8705340    2.1158370  
H     0.6533630    2.7419630    1.4305030  
H     2.1056670   -1.6027040   -1.0325110  
C    -0.4163480   -1.1912390    1.1265690  
C    -1.7712880   -1.2500540    1.1989380  
C    -2.2988210   -0.1568800    0.4149930  
C    -1.1221570    0.5424960   -0.1435140  
N     0.0042460   -0.1157230    0.3403480  
C    -1.1674580    1.6092980   -0.9872640  
C    -2.4715070    2.1064450   -1.3784840  
O    -2.6393570    3.0448360   -2.1437520  
C    -3.7490180    1.3941540   -0.7939590  
O    -4.8378590    1.8271990   -1.1324300  
C    -3.5911020    0.2488090    0.1423010  
H    -2.3429210   -1.9943880    1.7307640  
H    -0.2812850    2.0896610   -1.3860870  
H     0.3299210   -1.8306520    1.5784960  
C    -4.8314160   -0.8455110    2.0494820  
C    -4.7553570   -0.3553220    0.7704890  
C    -6.1054780   -0.6287470    0.2145590  
C    -6.8248250   -1.3073740    1.3305570  
N    -6.0729080   -1.4131730    2.3962320  
C    -8.1807540   -1.7668290    1.2028770  
C    -8.8019890   -1.5823410    0.0132490  
O   -10.0598730   -1.9652940   -0.2530690  
C    -8.1020610   -0.9166820   -1.1380460  
O    -8.7238850   -0.7951920   -2.1914450  
C    -6.7117190   -0.4362850   -0.9721180  
H    -8.6679270   -2.2499730    2.0424940  
H   -10.2211240   -1.7000770   -1.1855780  
H    -6.2635270    0.0738460   -1.8153310  
H    -4.0579770   -0.7991980    2.8064470  
C     4.9800410   -0.3304660   -2.5656990  
C     6.1358140   -0.9904430   -2.8094610  
C     6.5452540   -1.6375130   -1.5753250  
C     5.5197760   -1.2989350   -0.5608610  
N     4.5918710   -0.4986570   -1.2256110  
C     5.5292880   -1.7130540    0.7276740  
C     6.6363710   -2.5651710    1.1639040  
O     6.7336400   -2.9963490    2.3011320  
C     7.7435530   -2.9384090    0.1102470  
O     8.6748550   -3.6463390    0.4560100  
C     7.6093020   -2.4185790   -1.2562000  
H     6.6626110   -1.0300210   -3.7519370  
H     4.7640020   -1.4430390    1.4473920  
H     8.3792560   -2.6842490   -1.9741860  
H     4.3582730    0.2703040   -3.2155180  
