60


C    -3.5557980   -0.2664280   -0.0705700  
C    -2.2174480    0.0813810    0.0743650  
C    -2.0269170    1.3411540   -0.5593670  
C    -3.2878360    1.7559790   -1.0707190  
N    -4.1870800    0.7503420   -0.7971090  
C    -3.4856180    2.9836880   -1.7079340  
C    -2.3805700    3.8106350   -1.8523850  
O    -2.5091050    5.0137050   -2.4645930  
C    -1.0932550    3.4138850   -1.3898890  
O    -0.0874670    4.3024740   -1.6928820  
C    -0.9111320    2.1916440   -0.7502990  
H    -1.4836620   -0.5201350    0.5847480  
H    -5.1881190    0.8724800   -0.8187250  
H    -4.4513070    3.3078570   -2.0808180  
H    -1.6292820    5.4343620   -2.4511190  
H     0.5833480    4.3210520   -0.9847990  
C     1.0247820    0.6302170   -0.7096770  
C     2.2928800    0.5337910   -0.1935510  
C     2.4959840    1.7453760    0.6092160  
C     1.2354420    2.5158890    0.5165960  
N     0.3832520    1.7927650   -0.3117670  
C     0.9965250    3.6984950    1.1494520  
C     2.0613590    4.2685740    1.9754360  
O     1.9331970    5.3105440    2.5975900  
C     3.4201860    3.4882320    2.0544030  
O     4.3381010    3.9633610    2.7009750  
C     3.5378340    2.2027890    1.3464090  
H     0.0286870    4.1915010    1.1465030  
H     4.4638300    1.6463710    1.4255090  
H     0.5037950   -0.0503680   -1.3687860  
C     3.2196830   -0.5438800   -0.4196080  
C     3.0343300   -1.7179000   -1.1103460  
C     4.2807750   -2.4232450   -1.0269690  
C     5.1671730   -1.5145410   -0.2190330  
N     4.5447910   -0.4271360    0.1301580  
C     6.5268280   -1.8654670    0.0935030  
C     6.9842600   -3.0533140   -0.3674340  
O     8.2204900   -3.5185520   -0.1606640  
C     6.1149200   -3.9937390   -1.1849040  
O     6.6399300   -5.0468610   -1.5518210  
C     4.7393190   -3.6154500   -1.4893000  
H     2.1383210   -2.0626660   -1.6077570  
H     7.1452430   -1.1930880    0.6774840  
H     8.2421410   -4.3930000   -0.6145780  
H     4.1466070   -4.3113300   -2.0746090  
C    -7.3967080   -2.2035700   -1.3063070  
C    -6.2785270   -1.4290600   -1.2656290  
C    -5.4897970   -1.8535610   -0.1252820  
C    -6.2454260   -2.9643230    0.4897080  
N    -7.4025220   -3.1034290   -0.2528640  
C    -5.8533730   -3.6908960    1.5726730  
C    -4.5691140   -3.3829870    2.1634080  
O    -4.1048720   -3.9633450    3.1338390  
C    -3.7063150   -2.2367670    1.5117840  
O    -2.5852160   -2.0612230    1.9535460  
C    -4.2791280   -1.4284640    0.3929380  
H    -6.0082390   -0.6922680   -2.0059530  
H    -6.4493690   -4.4890270    2.0036250  
H    -8.2084820   -2.1992270   -2.0212370  
H    -8.0949810   -3.8199660   -0.1004760  
