62


C     0.0375590    1.6152160   -0.0507160  
C     1.1643190    0.7958340   -0.1532170  
C     0.7326860   -0.5566380   -0.0899260  
C    -0.6865230   -0.5239440    0.0309350  
N    -1.0712560    0.7946930    0.0638240  
C    -1.4935990   -1.6761320    0.0874500  
C    -0.8066980   -2.8875830   -0.0293570  
O    -1.4890040   -4.0547650   -0.0403670  
C     0.6109350   -2.9520160   -0.1658970  
O     1.0859580   -4.2367880   -0.2472070  
C     1.4176660   -1.8114690   -0.1547710  
H     2.1718410    1.1272510   -0.3513000  
H    -2.0157600    1.1610500    0.0774910  
H    -0.8154360   -4.7521490   -0.1650250  
H     1.7995710   -4.2382260   -0.9285550  
C    -4.5442510    0.1422030   -2.5516600  
C    -5.6496640   -0.1668420   -1.8040620  
C    -5.1896960   -0.8718720   -0.6411810  
C    -3.7765230   -0.9594250   -0.7404120  
N    -3.4115820   -0.3302910   -1.9138380  
C    -2.9682350   -1.6067960    0.2187430  
C    -3.6369790   -2.1678960    1.3082310  
O    -2.9284750   -2.7782520    2.3002300  
C    -5.0489200   -2.0876380    1.4212930  
O    -5.5477470   -2.6894210    2.5645690  
C    -5.8267120   -1.4533840    0.4719510  
H    -6.6727050    0.0841140   -2.0481910  
H    -2.4711300   -0.2758500   -2.2723200  
H    -3.5763440   -3.1312160    2.9342960  
H    -6.5141780   -2.6287850    2.5621450  
H    -6.9079770   -1.4059980    0.5869040  
H    -4.4615610    0.6741410   -3.4887280  
C     3.0051190    4.7586680    0.7512670  
C     2.2469420    5.8517580    0.4761600  
C     0.9266130    5.3817220    0.1165790  
C     0.9833490    3.9109950    0.1870960  
N     2.2816920    3.5890520    0.5432770  
C    -0.0715510    3.0585770   -0.0567520  
C    -1.3709560    3.7225830   -0.3072460  
O    -2.4292330    3.1116450   -0.3797720  
C    -1.4233210    5.2882750   -0.4837100  
O    -2.4902520    5.7874850   -0.8116870  
C    -0.2139350    6.0484490   -0.2305000  
H     2.5649590    6.8833610    0.5185020  
H    -0.2599280    7.1290780   -0.3183930  
H     4.0374340    4.7007430    1.0703890  
H     2.5439420    2.6796810    0.8979620  
C     4.5269260    0.1354840    2.3507610  
C     3.3610520   -0.3476570    1.8436560  
C     3.6865860   -1.1296130    0.6697540  
C     5.1599700   -1.0607430    0.5343230  
N     5.6052350   -0.2493770    1.5612100  
C     5.8881520   -1.6755420   -0.4349620  
C     5.1685990   -2.4958320   -1.3890390  
O     5.6937430   -3.0733430   -2.3283130  
C     3.6183570   -2.6836740   -1.1818120  
O     3.0815600   -3.5550730   -1.8632610  
C     2.8939540   -1.8562860   -0.1967290  
H     2.3749940   -0.2078500    2.2576870  
H     6.9630640   -1.5714680   -0.5406840  
H     4.6950680    0.7302930    3.2390780  
H     6.5757910   -0.1112990    1.7963910  
