62


C     1.1512420    1.5435360   -0.2184450  
C     1.7708910    2.7244770   -0.5567440  
C     3.1853940    2.4894960   -0.6051290  
C     3.3890920    1.1265240   -0.2911020  
N     2.1382430    0.5371380   -0.1116970  
C     4.6609450    0.5351530   -0.1853680  
C     5.7505990    1.3773180   -0.4268330  
O     7.0091120    0.8706980   -0.3853020  
C     5.5619660    2.7427830   -0.7668000  
O     6.7416210    3.4197720   -0.9954750  
C     4.3032280    3.3061370   -0.8629560  
H     1.2627930    3.6462230   -0.8035730  
H     2.0270010   -0.2287670    0.5436040  
H     7.6285490    1.6127290   -0.4997170  
H     6.5611230    4.3652910   -1.1042160  
H     4.1852790    4.3559290   -1.1221580  
C    -2.3218100    3.8627210    1.3890530  
C    -1.0701370    3.4613540    1.0071370  
C    -1.2058050    2.1580960    0.4202090  
C    -2.5822170    1.8236360    0.4692000  
N    -3.2394510    2.8874730    1.0454670  
C    -3.1048840    0.5785340    0.0343630  
C    -2.1424550   -0.3435960   -0.4078640  
O    -2.5242260   -1.5851440   -0.8421640  
C    -0.7687160   -0.0272790   -0.4707730  
O    -0.0006080   -1.0596450   -0.9764440  
C    -0.2648190    1.2198560   -0.0842590  
H    -0.1539970    4.0140170    1.1504900  
H    -4.1989480    2.8555690    1.3549010  
H    -1.7158620   -2.0295530   -1.1586810  
H     0.8923290   -0.7284710   -1.1905460  
H    -2.6461460    4.7711410    1.8762660  
C    -4.5304270    0.2914520    0.0442270  
C    -5.6011570    1.1616080    0.0253610  
C    -6.8112800    0.3869370    0.0404040  
C    -6.3845940   -1.0345110    0.0725830  
N    -5.0077530   -1.0214370    0.0950830  
C    -7.2383840   -2.0902510    0.0778470  
C    -8.6730290   -1.8239640    0.0528200  
O    -9.5147890   -2.7106100    0.0526620  
C    -9.1488580   -0.3242450    0.0252270  
O   -10.3488770   -0.0870410    0.0087480  
C    -8.1323210    0.7241260    0.0205360  
H    -5.5503090    2.2337200   -0.0923480  
H    -6.9078110   -3.1242080    0.0999770  
H    -8.4732340    1.7549940   -0.0027590  
H    -4.4063990   -1.8208410   -0.0409920  
C     3.3357210   -3.2534960   -2.0830070  
C     3.5907290   -1.9497360   -1.7963160  
C     4.3329850   -1.9185860   -0.5506640  
C     4.4979790   -3.3336250   -0.1371950  
N     3.8507040   -4.0882180   -1.0987460  
C     5.1779370   -3.7479270    0.9621310  
C     5.7918580   -2.7339200    1.8089570  
O     6.4567490   -3.0003390    2.7980510  
C     5.5744030   -1.2207100    1.4360880  
O     5.9767090   -0.3706420    2.2087310  
C     4.8478240   -0.8844590    0.1830380  
H     3.3282420   -1.0952450   -2.4016900  
H     5.3032660   -4.7920540    1.2316840  
H     2.8186280   -3.6804100   -2.9323450  
H     3.8363520   -5.0957970   -1.1234630  
