58


C     3.0093720   -2.2071120   -1.5098970  
C     3.2613450   -1.2148030   -0.5911760  
C     4.5931040   -1.5044840   -0.0384200  
C     5.0583950   -2.7409470   -0.7140990  
N     4.0472650   -3.1027120   -1.5914960  
C     6.2408490   -3.3625190   -0.4869380  
C     7.1385630   -2.7945980    0.5165490  
O     8.2238450   -3.2797470    0.7917300  
C     6.6592270   -1.5066650    1.2737630  
O     7.3732340   -1.0263810    2.1376730  
C     5.3584400   -0.9193520    0.9163630  
H     6.5490170   -4.2667770   -1.0026850  
H     5.0699700   -0.0091330    1.4262500  
H     2.1459780   -2.3123620   -2.1529620  
H     4.1091730   -3.8586580   -2.2570840  
C    -1.1850630   -1.0205220   -0.1945920  
C     0.1081420   -1.4897860   -0.2817080  
C     0.9555310   -0.3286810   -0.2469210  
C     0.0034610    0.8107260   -0.1258030  
N    -1.2334630    0.4060340   -0.1061720  
C     0.4514790    2.1944250   -0.0494890  
C     1.8028460    2.3771920   -0.0190910  
O     2.3752430    3.5779390    0.1371120  
C     2.7889640    1.2539390   -0.1270690  
O     3.9820290    1.5558280   -0.0938720  
C     2.3152300   -0.1506110   -0.2963560  
H     0.4279470   -2.5218670   -0.3048710  
H     3.3432050    3.4244880    0.0756310  
C    -3.0667590    3.3850390    2.4458430  
C    -1.9990920    2.7313690    1.9216160  
C    -1.5294260    3.5022320    0.7929880  
C    -2.4244060    4.6859120    0.7073300  
N    -3.3329160    4.5521540    1.7363090  
C    -2.3142370    5.6855310   -0.2048790  
C    -1.2452260    5.6011130   -1.1866480  
O    -1.0423590    6.4562440   -2.0351470  
C    -0.3063590    4.3406760   -1.1549560  
O     0.5173670    4.2159670   -2.0436450  
C    -0.4830110    3.3330180   -0.0757660  
H    -1.6019320    1.7870820    2.2561080  
H    -2.9716780    6.5492030   -0.2280090  
H    -3.6903670    3.1136900    3.2872260  
H    -4.0735270    5.2047420    1.9381440  
C    -2.3968440   -1.7938640   -0.1655570  
C    -2.5303880   -3.1539670   -0.3314300  
C    -3.9368110   -3.4294620   -0.2076600  
C    -4.5513520   -2.0830230    0.0413450  
N    -3.6596670   -1.1388840    0.0649040  
C    -5.9728420   -1.9299590    0.2262680  
C    -6.7390150   -3.0439130    0.1655790  
O    -8.0707040   -3.0541300    0.3174120  
C    -6.1474100   -4.4132520   -0.0851800  
O    -6.9297620   -5.3639870   -0.1215370  
C    -4.6995860   -4.5489190   -0.2693580  
H    -1.7508740   -3.8771870   -0.5272250  
H    -6.3944090   -0.9468540    0.4031250  
H    -8.3336890   -3.9972900    0.2206180  
H    -4.3112110   -5.5474880   -0.4447800  
