58


C    -1.2363500   -1.6186260    0.3792020  
C    -0.5263820   -0.4979450    0.0515150  
C    -1.5260520    0.5131760   -0.3037320  
C    -2.8583770   -0.1285390   -0.1322820  
N    -2.6012200   -1.4004950    0.3214150  
C    -4.0871090    0.4764300   -0.3420840  
C    -4.0040760    1.8527230   -0.8494700  
O    -4.9831650    2.5597880   -1.0801180  
C    -2.6034220    2.5190010   -1.1118570  
O    -2.5847860    3.6436800   -1.5829240  
C    -1.3969860    1.7796860   -0.7656450  
H    -0.4421820    2.2746640   -0.8914300  
H    -0.8643580   -2.5817550    0.7022220  
H    -3.2887130   -2.1355590    0.1745060  
C     2.6835630   -3.2237340   -1.2944620  
C     1.4929580   -2.6140070   -1.0693420  
C     1.7745840   -1.3536650   -0.4190820  
C     3.2546560   -1.2679950   -0.3087280  
N     3.7395540   -2.4212370   -0.8784390  
C     3.9796610   -0.1982060    0.2001060  
C     3.1487970    0.9051900    0.6768380  
O     3.5833710    1.9841470    1.0786350  
C     1.5771630    0.7852940    0.6824750  
O     0.9554120    1.6836600    1.2226960  
C     0.9307500   -0.3764580    0.0492500  
H     0.5194670   -2.9820060   -1.3539490  
H     2.8904250   -4.1828010   -1.7505070  
H     4.6439550   -2.7818020   -0.5891890  
C     6.8762140    3.0893420   -0.6082280  
C     8.0428920    2.4237150   -0.4290440  
C     7.7028070    1.0690620   -0.0552320  
C     6.2128310    0.9987260   -0.0470400  
N     5.7805900    2.2457270   -0.4299520  
C     5.4628200   -0.1303010    0.2420230  
C     6.2603190   -1.3115030    0.6056460  
O     5.7722560   -2.4068440    0.8773310  
C     7.8352380   -1.2413440    0.6348540  
O     8.4436840   -2.2493490    0.9553210  
C     8.4832570    0.0033800    0.2578620  
H     9.0417730    2.8191210   -0.5413030  
H     9.5679090    0.0416320    0.2571220  
H     6.7084190    4.1254390   -0.8715520  
H     4.8637600    2.5658730   -0.1265060  
C    -7.8726110    2.0057950    1.4204890  
C    -8.6206260    0.8765490    1.3938650  
C    -7.8051480   -0.1556520    0.7937160  
C    -6.4905530    0.4768360    0.4817890  
N    -6.5898550    1.7741980    0.9244550  
C    -5.4028380   -0.1667470   -0.0872620  
C    -5.6413840   -1.5770280   -0.4238710  
O    -4.7883850   -2.3204120   -0.9073180  
C    -7.0413940   -2.2459070   -0.1429260  
O    -7.1898470   -3.4124430   -0.4683330  
C    -8.0721360   -1.4554230    0.5084860  
H    -9.6333250    0.7579810    1.7503030  
H    -9.0252480   -1.9271050    0.7252130  
H    -8.1320490    2.9953990    1.7730520  
H    -6.0200130    2.4948330    0.4904020  
