60


C     1.0871200    0.7311690   -0.6121510  
C     2.1662720   -0.0734060   -0.3534130  
C     3.3387840    0.6906220   -0.6617490  
C     2.9011040    1.9722410   -1.0850070  
N     1.5194270    1.9788960   -1.0388670  
C     3.7792790    2.9966340   -1.4517980  
C     5.1345870    2.7163820   -1.3940020  
O     6.0382810    3.6659820   -1.7662620  
C     5.5988150    1.4502140   -0.9523280  
O     6.9748110    1.3457150   -0.9604370  
C     4.7323880    0.4218940   -0.5737240  
H     2.1173160   -1.0879230    0.0117590  
H     0.9207570    2.6947340   -1.4219950  
H     3.4440860    3.9731080   -1.7851550  
H     6.9218750    3.2633850   -1.7031030  
H     7.2264710    0.4209120   -0.8076750  
C    -0.8802560   -0.6685180   -1.1680820  
C    -2.2102960   -0.7283830   -0.8927630  
C    -2.5309080    0.3883960   -0.0387000  
C    -1.2616600    1.1213440    0.1647050  
N    -0.2812170    0.4292220   -0.5490290  
C    -1.1245860    2.2571360    0.8959410  
C    -2.3182210    2.8230240    1.5129210  
O    -2.3106650    3.8763230    2.1303970  
C    -3.6663060    2.0291530    1.3904970  
O    -4.6047870    2.3901120    2.0739000  
C    -3.7155730    0.8239480    0.5159960  
H    -2.9027810   -1.4622500   -1.2738160  
H    -0.1795130    2.7732950    1.0247150  
H    -0.2673050   -1.3156880   -1.7810130  
C    -4.9810350    0.1366180    0.3266180  
C    -5.2193440   -1.2110580    0.2534040  
C    -6.6436530   -1.3490590    0.0487830  
C    -7.1424800    0.0632940   -0.0026490  
N    -6.1830140    0.9221830    0.1637460  
C    -8.5366520    0.3603980   -0.2207200  
C    -9.3884580   -0.6824330   -0.3549000  
O   -10.7098180   -0.5596290   -0.5531600  
C    -8.9159650   -2.1159320   -0.2917020  
O    -9.7667780   -2.9959950   -0.4281240  
C    -7.4899680   -2.3965820   -0.0839390  
H    -4.5118890   -2.0154240    0.3967240  
H    -8.8717460    1.3907900   -0.2596400  
H   -11.0476410   -1.4816670   -0.6082180  
H    -7.1873260   -3.4389760   -0.0559700  
C     7.5591930   -0.7068170    2.6717860  
C     6.7530920   -0.0326740    1.8104210  
C     6.1488980   -1.0104820    0.9275870  
C     6.6755020   -2.3296980    1.3604060  
N     7.5384620   -2.0710480    2.4074700  
C     6.3308900   -3.5243440    0.8149380  
C     5.3679920   -3.5213470   -0.2744290  
O     4.9601020   -4.5376300   -0.8153400  
C     4.8145060   -2.1353990   -0.7814220  
O     4.0438870   -2.1428800   -1.7252840  
C     5.2530890   -0.8828130   -0.1085200  
H     6.5850340    1.0329140    1.7920630  
H     6.7217450   -4.4765040    1.1599330  
H     8.1681340   -0.3248620    3.4805160  
H     8.0099990   -2.7777040    2.9501160  
