58


C     4.8345430   -1.7031980   -2.5357690  
C     6.1521260   -1.9974960   -2.6356820  
C     6.7698040   -1.6675280   -1.3683310  
C     5.6825470   -1.1524220   -0.5006990  
N     4.5167350   -1.1713270   -1.2740320  
C     5.8491190   -0.7943460    0.7963350  
C     7.1927050   -0.8728690    1.3740630  
O     7.4297390   -0.5688960    2.5317330  
C     8.3660100   -1.3728420    0.4579770  
O     9.4949540   -1.4273810    0.9165830  
C     8.0469890   -1.7683040   -0.9181020  
H     6.6544790   -2.3925220   -3.5068500  
H     5.0406820   -0.4614110    1.4374800  
H     8.8570640   -2.1463540   -1.5342430  
H     4.0460730   -1.7940780   -3.2706370  
C     2.0796030   -1.5462150   -1.0563610  
C     3.2230340   -0.8357890   -0.8625010  
C     2.7921930    0.4490270   -0.2756150  
C     1.3188890    0.2954400   -0.1683040  
N     0.9179060   -0.8587600   -0.6231590  
C     0.4848580    1.3537450    0.3781980  
C     1.1110480    2.5039460    0.7731750  
O     0.4702560    3.5458950    1.3281910  
C     2.5781850    2.6937850    0.6133620  
O     3.0663220    3.7588100    0.9922070  
C     3.4072490    1.5957620    0.0632810  
H     1.1661120    4.2207310    1.4956320  
H     4.4760150    1.7702820   -0.0064460  
H     1.9778810   -2.5333860   -1.4897030  
C    -1.5277940    0.0047770    0.9086090  
C    -2.8842970    0.0787220    0.8270990  
C    -3.1958100    1.3768570    0.2379580  
C    -1.8991050    2.0469770   -0.0133590  
N    -0.9061590    1.1708870    0.4446590  
C    -1.7744850    3.2523050   -0.6189160  
C    -2.9922500    3.9692610   -1.0042410  
O    -2.9667750    5.0563010   -1.5583350  
C    -4.3767580    3.3079470   -0.6804970  
O    -5.4025740    3.9087410   -0.9537390  
C    -4.3755430    1.9766320   -0.0641630  
H    -0.8248990    3.7309460   -0.8175150  
H    -5.3357090    1.5058350    0.1195040  
H    -0.9165970   -0.8133730    1.2582360  
C    -3.8530880   -1.5153920    2.5233650  
C    -3.8301170   -0.9377900    1.2868670  
C    -4.8991910   -1.5727220    0.5167360  
C    -5.5368870   -2.5592090    1.4234390  
N    -4.8438520   -2.4812550    2.6174650  
C    -6.5823080   -3.3544190    1.0842500  
C    -7.1164420   -3.2573030   -0.2719460  
O    -8.0546150   -3.9305990   -0.6683630  
C    -6.4349310   -2.2432520   -1.2615420  
O    -6.8465020   -2.1658650   -2.4072580  
C    -5.3188930   -1.4268770   -0.7665170  
H    -7.0364110   -4.0675090    1.7654680  
H    -4.8625850   -0.7275540   -1.4595020  
H    -3.2238450   -1.3001430    3.3771840  
H    -5.0831470   -2.9875710    3.4556880  
