62


C    -0.5294120   -0.4634420    3.2050000  
C     0.2761100    0.3783020    2.4879810  
C    -0.5105880    0.9105410    1.4105640  
C    -1.8096040    0.3530060    1.5425330  
N    -1.7976690   -0.4688900    2.6496950  
C    -2.8849510    0.6326050    0.6737640  
C    -2.6042250    1.5378100   -0.3492450  
O    -3.5797350    1.8996240   -1.2287770  
C    -1.3248580    2.1325790   -0.4920320  
O    -1.2386850    2.9965870   -1.5677760  
C    -0.2524120    1.8304870    0.3551140  
H     1.3198650    0.5662410    2.6819660  
H    -2.5484940   -1.0934290    2.8986380  
H    -3.1564700    2.5460890   -1.8273710  
H    -0.8609010    3.8422580   -1.2456190  
H    -0.3118890   -1.0592360    4.0803740  
C     3.8289550    0.1068260    0.0341480  
C     4.5700140    1.2367680   -0.2021320  
C     3.6406930    2.3376750   -0.1763540  
C     2.3115560    1.6913270    0.0881700  
N     2.4255790    0.4068770    0.2119950  
C     1.0676820    2.4675040    0.1517840  
C     1.2290970    3.8047370   -0.0506820  
O     0.1949780    4.6904430   -0.0594310  
C     2.5439620    4.4793080   -0.2870010  
O     2.5225970    5.7076100   -0.4334340  
C     3.7605920    3.6760300   -0.3403230  
H     5.6444560    1.3145920   -0.2989050  
H     0.6319530    5.5645220   -0.2108420  
H     4.6973640    4.1904760   -0.5302410  
C     6.8715580   -1.9169790   -2.4161150  
C     6.7418450   -3.1692280   -1.8754130  
C     5.7416390   -3.0815030   -0.8503490  
C     5.3046490   -1.7348320   -0.8066120  
N     6.0175740   -1.0467200   -1.7627840  
C     4.2719390   -1.2748420    0.0515640  
C     3.7042110   -2.2445650    0.8999030  
O     2.7733750   -1.8915290    1.8162540  
C     4.1458420   -3.5931640    0.8683500  
O     3.4941550   -4.4048770    1.7781500  
C     5.1466630   -4.0187740    0.0175420  
H     7.2906450   -4.0521130   -2.1726780  
H     5.8211050   -0.0963080   -2.0384070  
H     2.4615990   -2.7092720    2.2433610  
H     3.7557050   -5.3266890    1.6375890  
H     5.4666140   -5.0588590    0.0209150  
H     7.5124080   -1.5608940   -3.2101160  
C    -4.9444000    0.0316220    2.0179450  
C    -4.2185910    0.0374010    0.8624380  
C    -5.0214420   -0.6896710   -0.1233630  
C    -6.2662860   -1.1060160    0.5680600  
N    -6.1483410   -0.6528100    1.8661640  
C    -7.2793100   -1.7989630   -0.0139560  
C    -7.1405690   -2.1823940   -1.4133870  
O    -7.9938230   -2.8091450   -2.0246010  
C    -5.8186700   -1.7710760   -2.1610920  
O    -5.6768580   -2.0943820   -3.3297720  
C    -4.8020560   -1.0120450   -1.4225540  
H    -8.1838030   -2.0886090    0.5124080  
H    -3.9063360   -0.7129880   -1.9546820  
H    -4.7017410    0.4900770    2.9680190  
H    -6.8779320   -0.7018790    2.5596990  
