60


C     1.3368640   -1.5117650   -1.0653400  
C     0.6512870   -0.3847160   -0.6354280  
C     1.6678590    0.6251510   -0.3745530  
C     2.9194940    0.0418330   -0.6886490  
N     2.6766060   -1.2488890   -1.1241900  
C     4.1616240    0.6880400   -0.5243800  
C     4.1108590    1.9789880    0.0044700  
O     5.2632240    2.6875160    0.1819090  
C     2.8721010    2.5738470    0.3462990  
O     2.9979090    3.8516580    0.8581730  
C     1.6646400    1.9255350    0.1670360  
H     3.3964590   -1.9280670   -1.3189280  
H     5.0126900    3.5526810    0.5511890  
H     2.1177160    4.2230880    1.0178310  
H     0.7348240    2.4197820    0.4228750  
H     0.9432270   -2.4818400   -1.3200980  
C    -2.2134300   -3.5767640    0.2262380  
C    -3.3904210   -2.9093980    0.2882660  
C    -3.0521060   -1.5181750    0.0355680  
C    -1.5687190   -1.5306030   -0.1761280  
N    -1.0951160   -2.7392630   -0.0536510  
C    -0.7996450   -0.3227440   -0.4825840  
C    -1.5599390    0.8089860   -0.6241650  
O    -1.0486340    2.0134790   -0.9631200  
C    -3.0314920    0.8636430   -0.4008870  
O    -3.5715970    1.9669400   -0.4846470  
C    -3.7905380   -0.3804470   -0.0637400  
H    -4.3773640   -3.3109490    0.4635360  
H    -1.8277280    2.6158790   -0.9693340  
H    -2.0417550   -4.6389750    0.3545490  
C    -5.2298890   -0.3158380    0.1490890  
C    -5.9523590   -0.9684940    1.1092140  
C    -7.3308700   -0.5734700    0.8952010  
C    -7.2674720    0.3430070   -0.2874640  
N    -6.0500300    0.4963600   -0.7154970  
C    -8.4566290    0.9444070   -0.8370240  
C    -9.6380730    0.6682770   -0.2366210  
O   -10.8199320    1.1616670   -0.6343260  
C    -9.7301170   -0.2413610    0.9642910  
O   -10.8453350   -0.4374010    1.4442700  
C    -8.5038670   -0.8544580    1.5031170  
H    -5.5764020   -1.5991610    1.9023440  
H    -8.3848220    1.6006070   -1.6970770  
H   -11.4827590    0.7877150   -0.0122720  
H    -8.6122190   -1.5095670    2.3622110  
C     5.7306750   -0.5169990   -2.1061690  
C     5.4307950    0.0368500   -0.8957510  
C     6.6059640   -0.1762500   -0.0495030  
C     7.6014320   -0.8952700   -0.8815490  
N     7.0007450   -1.0870980   -2.1101260  
C     8.8368550   -1.2675630   -0.4583290  
C     9.2207290   -0.9573510    0.9141690  
O    10.3080310   -1.2518200    1.3880070  
C     8.1724810   -0.2139010    1.8217970  
O     8.4694150    0.0442960    2.9773920  
C     6.8722210    0.1427460    1.2417900  
H     9.5513630   -1.7900260   -1.0871930  
H     6.1657050    0.6735690    1.8697730  
H     5.1275070   -0.5389330   -3.0048980  
H     7.4616000   -1.4687150   -2.9212050  
