62


C     1.2461890    1.9456360    0.1169370  
C     1.8916580    3.1445120    0.3549260  
C     3.2933120    2.9088850    0.2350840  
C     3.4633600    1.5284300   -0.0710190  
N     2.2063210    0.9553000   -0.0942730  
C     4.7333230    0.9180690   -0.2417070  
C     5.8185340    1.8004290   -0.1328990  
O     7.1086770    1.3457200   -0.3006010  
C     5.6610360    3.1742370    0.1746090  
O     6.8609530    3.8614190    0.2598310  
C     4.4202070    3.7397990    0.3733100  
H     1.4129300    4.0734910    0.6327800  
H     2.0360890    0.1590140   -0.7001760  
H     7.6786750    2.1373580   -0.3055350  
H     6.6898930    4.8145830    0.2376020  
H     4.3188350    4.7934140    0.6228880  
C    -1.2060150    2.4936010   -0.1774190  
C    -0.1643890    1.6497670    0.0814580  
C    -0.8150680    0.3515180    0.3630470  
C    -2.2670840    0.6203650    0.2062270  
N    -2.4724350    1.8741470   -0.0970490  
C    -3.2756310   -0.4265690    0.4049900  
C    -2.7746420   -1.6526220    0.7857030  
O    -3.5619100   -2.7420330    1.0181710  
C    -1.3491080   -1.9281330    0.9875270  
O    -1.0095000   -3.0677710    1.3429090  
C    -0.3632480   -0.8503210    0.7618030  
H    -2.9234360   -3.4485050    1.2700060  
H     0.6809280   -1.0875280    0.9387290  
H    -1.1539820    3.5414620   -0.4456550  
C    -4.6825490   -0.1601160    0.2148170  
C    -5.3356200    1.0110920   -0.1698100  
C    -6.7254340    0.7342570   -0.2095460  
C    -6.8925730   -0.6342740    0.1602400  
N    -5.6482330   -1.1466960    0.4104880  
C    -8.1500470   -1.2482460    0.2249020  
C    -9.2546420   -0.4723890   -0.0870550  
O   -10.5024910   -1.0158450   -0.0415640  
C    -9.1075220    0.8976060   -0.4584300  
O   -10.3081240    1.5239010   -0.7361680  
C    -7.8715100    1.5021340   -0.5222860  
H    -4.8370090    1.9422780   -0.3860760  
H    -5.4221650   -2.0910940    0.6873490  
H    -8.2850830   -2.2878950    0.5041160  
H   -11.1308850   -0.3171400   -0.2943290  
H   -10.1407370    2.4435010   -0.9901220  
H    -7.7800900    2.5481460   -0.8077330  
C     7.5178640   -2.0241060    1.5386230  
C     7.1054040   -3.1545230    0.9151870  
C     6.0323490   -2.7783450    0.0201670  
C     5.8460200   -1.3115220    0.1893280  
N     6.7491120   -0.9239070    1.1579270  
C     4.9179990   -0.5382770   -0.4738230  
C     4.0629000   -1.2733970   -1.4190770  
O     3.1384520   -0.7598440   -2.0414870  
C     4.2875430   -2.8160660   -1.6546540  
O     3.6010460   -3.3723340   -2.4963320  
C     5.2845690   -3.5056240   -0.8487780  
H     7.4918820   -4.1529490    1.0591180  
H     5.4103180   -4.5744280   -0.9898360  
H     8.3070360   -1.8924120    2.2675530  
H     7.1035070    0.0262500    1.1673340  
