58


C     1.6004880   -0.0064210    0.6043540  
C     0.9217460    1.1499530    0.3320790  
C     1.9336410    2.2162620    0.2398880  
C     3.2464510    1.5788140    0.4740950  
N     2.9708040    0.2238460    0.6878840  
C     4.4438130    2.2077120    0.4835110  
C     4.4552770    3.6519560    0.2424550  
O     5.4782730    4.3158970    0.2387800  
C     3.0775670    4.3603850   -0.0158700  
O     3.0606830    5.5623290   -0.2175170  
C     1.8487010    3.5482280    0.0003820  
H     5.3866570    1.7001710    0.6571340  
H     0.8976040    4.0351580   -0.1761190  
H     1.2315980   -1.0126380    0.7486490  
C    -0.5080190    1.2770570    0.1673590  
C    -1.4727650    0.2994860    0.2094650  
C    -2.7227840    0.9704030   -0.0268170  
C    -2.3373790    2.4080590   -0.2057370  
N    -1.0506370    2.5773090   -0.0886770  
C    -3.3037050    3.4307700   -0.4965250  
C    -4.5966690    3.0486490   -0.6095900  
O    -5.6070520    3.8839950   -0.8695060  
C    -5.0325470    1.6127720   -0.4067110  
O    -6.2412630    1.4017440   -0.4140840  
C    -4.0198430    0.5560880   -0.1467060  
H    -1.3380410   -0.7614020    0.3642050  
H    -2.9896160    4.4606190   -0.6232700  
H    -6.4181460    3.3267410   -0.8581850  
C    -3.6712860   -2.5605270    3.0336180  
C    -3.5715600   -1.4144940    2.3086630  
C    -4.2515430   -1.6380940    1.0513500  
C    -4.7677240   -3.0285080    1.1081350  
N    -4.3623800   -3.5363550    2.3288650  
C    -5.5075200   -3.6270310    0.1403700  
C    -5.8267910   -2.8576510   -1.0553770  
O    -6.5155630   -3.2893070   -1.9656660  
C    -5.2446220   -1.4051620   -1.1763940  
O    -5.3839650   -0.8067060   -2.2276130  
C    -4.4918110   -0.8301950   -0.0303560  
H    -3.0786600   -0.5048950    2.6156360  
H    -5.8913660   -4.6393500    0.2204380  
H    -3.2966940   -2.7774320    4.0253900  
H    -4.6222630   -4.4417370    2.6879130  
C     4.4368150   -0.9663320    2.2585030  
C     5.4079510   -1.9048130    2.1970650  
C     5.5454040   -2.3140020    0.8095170  
C     4.5629550   -1.5218850    0.0346260  
N     3.8995650   -0.7324940    0.9781710  
C     4.3827570   -1.5945340   -1.3039260  
C     5.2142230   -2.5396320   -2.0549820  
O     5.1238740   -2.6858610   -3.2618730  
C     6.2592120   -3.4030090   -1.2577430  
O     6.9549500   -4.2001620   -1.8637310  
C     6.3548720   -3.2145020    0.1958400  
H     5.9809160   -2.2861150    3.0300250  
H     3.6598770   -0.9949490   -1.8469860  
H     7.0842840   -3.8116290    0.7345850  
H     4.0410650   -0.4129410    3.0993110  
