60


C     0.6270330    0.0109930   -1.0341170  
C     0.5852400    1.2673700   -0.4341100  
C     1.9550830    1.5434460   -0.0247730  
C     2.7320380    0.4082880   -0.3698860  
N     1.8846280   -0.5059990   -0.9741010  
C     4.1079690    0.2649010   -0.0620790  
C     4.6993400    1.3930690    0.5337430  
O     6.0385820    1.4226650    0.7864720  
C     3.9355430    2.5347520    0.8747150  
O     4.6774720    3.5414020    1.4681360  
C     2.5803470    2.6176670    0.6316020  
H     2.2534420   -1.2190910   -1.5951600  
H     6.2374960    2.3194490    1.1126470  
H     4.1812250    4.3727660    1.4241550  
H     2.0262870    3.5123470    0.8881790  
H    -0.1574960   -0.5128120   -1.5607690  
C    -3.6437130    0.0775010    0.3229750  
C    -2.2673430    0.1282450    0.2185060  
C    -1.8756330    1.4684590   -0.0867830  
C    -3.1254140    2.2531280   -0.1339850  
N    -4.1635890    1.3527920    0.0391520  
C    -3.2056600    3.5997590   -0.2987440  
C    -1.9676640    4.3361740   -0.4450710  
O    -1.9058530    5.5516160   -0.5626890  
C    -0.6135370    3.5285830   -0.4495280  
O     0.4152020    4.1727620   -0.5829760  
C    -0.6314900    2.0500500   -0.3014080  
H    -1.6087250   -0.7188410    0.3324550  
H    -4.1439330    4.1449920   -0.3217400  
H    -5.0724700    1.6469840    0.3670430  
C    -4.1630590   -2.1991000    1.2845380  
C    -4.4939400   -1.0271410    0.6411060  
C    -5.9367710   -1.1803680    0.3411620  
C    -6.2797900   -2.5117020    0.9011270  
N    -5.2285060   -3.0895120    1.4418430  
C    -7.6036980   -3.0505120    0.8100590  
C    -8.5500120   -2.3140510    0.1710630  
O    -9.8265620   -2.7022910    0.0160650  
C    -8.2319030   -0.9830930   -0.4331820  
O    -9.1361050   -0.3699300   -1.0030750  
C    -6.8562360   -0.4509630   -0.3235760  
H    -7.8234450   -4.0234050    1.2355680  
H   -10.2613910   -1.9774040   -0.4843610  
H    -6.6664110    0.5020980   -0.8072640  
H    -3.1921820   -2.4671320    1.6844430  
C     6.8440110   -2.0632460    2.5403190  
C     5.9223560   -1.1962130    2.0484660  
C     5.7292190   -1.5082720    0.6508400  
C     6.6277650   -2.6566400    0.3668970  
N     7.2878340   -2.9296610    1.5463690  
C     6.7556780   -3.2723980   -0.8370270  
C     5.9164610   -2.7975890   -1.9192560  
O     5.9580700   -3.2351580   -3.0586590  
C     4.8540100   -1.6771620   -1.5986220  
O     3.9909370   -1.4901450   -2.4492820  
C     4.9079530   -0.9567730   -0.3096000  
H     5.4254450   -0.4148320    2.5998360  
H     7.4575770   -4.0769060   -1.0318240  
H     7.2405120   -2.1473130    3.5434620  
H     7.9424690   -3.6845880    1.6763200  
