62


C     1.0247430    1.3302050   -1.7667930  
C     2.3620390    1.4117670   -1.4974380  
C     2.6246600    0.5512640   -0.3744340  
C     1.3970750   -0.0433680    0.0060510  
N     0.4327960    0.4520300   -0.8625880  
C     1.2721350   -0.9662280    1.0469250  
C     2.4301580   -1.2979440    1.7349050  
O     2.3824440   -2.1929750    2.7565400  
C     3.6780370   -0.7032680    1.4042080  
O     4.7195580   -1.0697900    2.2281580  
C     3.7818660    0.2167980    0.3626400  
H     3.0810050    2.0062150   -2.0431620  
H     0.3253930   -1.4196500    1.3165700  
H     3.2939570   -2.2887990    3.0886420  
H     5.5531220   -1.1213570    1.7251430  
H     0.4167320    1.8092340   -2.5200560  
C    -1.4715760   -0.9228440   -1.5623660  
C    -2.8190000   -0.9171930   -1.3385000  
C    -3.1145830    0.1723750   -0.4420060  
C    -1.8867750    0.8170300   -0.1569040  
N    -0.8949990    0.1196680   -0.8404990  
C    -1.7742210    1.9588530    0.6372690  
C    -2.9576270    2.4790870    1.1381280  
O    -2.9409200    3.6015590    1.9018680  
C    -4.2127060    1.8667530    0.8687290  
O    -5.2730990    2.5086880    1.4608160  
C    -4.3211050    0.6919960    0.1162500  
H    -3.5256220   -1.6112540   -1.7688380  
H    -0.8268900    2.4444280    0.8421940  
H    -3.8775420    3.7972660    2.1002520  
H    -5.9977030    2.5384500    0.7927080  
H    -0.8475530   -1.5658520   -2.1655170  
C     5.2767470    2.2122260    0.1227280  
C     6.5789150    2.4970660   -0.1177470  
C     7.2593240    1.2388010   -0.3446320  
C     6.2204220    0.1838500   -0.2232350  
N     5.0309320    0.8296360    0.0635300  
C     6.4596730   -1.1501320   -0.3797760  
C     7.8217650   -1.5812810   -0.6888140  
O     8.1248460   -2.7499390   -0.8710770  
C     8.9387610   -0.4807720   -0.7962840  
O    10.0881330   -0.8218980   -1.0228290  
C     8.5503440    0.9240770   -0.6235240  
H     7.0300990    3.4785690   -0.1298820  
H     5.6739260   -1.9001360   -0.3725730  
H     9.3278440    1.6753500   -0.7250500  
H     4.4520200    2.8732710    0.3516860  
C    -5.5545440   -3.5355690    0.6695810  
C    -4.8919070   -2.3489400    0.6775210  
C    -5.7711170   -1.3550180    0.1050020  
C    -7.0249700   -2.0738500   -0.2389870  
N    -6.8176920   -3.3939250    0.1068340  
C    -8.1219900   -1.5045840   -0.8012480  
C    -8.0783860   -0.0751930   -1.0497890  
O    -8.9775770    0.5504080   -1.5883260  
C    -6.8091700    0.7217210   -0.5669520  
O    -6.9008350    1.9483810   -0.5743500  
C    -5.6111920   -0.0022590   -0.1081950  
H    -3.8952960   -2.1753520    1.0507030  
H    -9.0095630   -2.0580230   -1.0900820  
H    -5.2306610   -4.5036410    1.0281910  
H    -7.5157210   -4.1186210    0.0478770  
