58


C     2.7556850    2.5251730   -0.2515530  
C     3.2552850    3.7722010   -0.5493760  
C     2.3635600    4.7444810    0.0214810  
C     1.2811510    3.9747330    0.6923950  
N     1.5793320    2.6468740    0.4865950  
C     0.2378960    4.5411780    1.3515590  
C     0.1581790    5.9976920    1.4080830  
O    -0.7474810    6.5953100    1.9692140  
C     1.2924570    6.8316960    0.7061350  
O     1.2421870    8.0516760    0.7421410  
C     2.3706200    6.1076970    0.0285050  
H     4.1535710    3.9818550   -1.1120270  
H    -0.5428720    3.9652400    1.8384100  
H     3.1481880    6.6935550   -0.4523520  
H     1.0676380    1.8406000    0.8167370  
C     3.2362850    1.2093650   -0.5825630  
C     4.3372360    0.8236850   -1.2959430  
C     4.2952460   -0.6194040   -1.3144270  
C     3.0584410   -0.9711820   -0.5362480  
N     2.4528220    0.0993830   -0.1140040  
C     2.6522030   -2.3466870   -0.3077360  
C     3.4542890   -3.3016300   -0.8640700  
O     3.2014510   -4.6094910   -0.7906000  
C     4.7005420   -2.9757740   -1.6531950  
O     5.3377590   -3.9237920   -2.1094250  
C     5.0895560   -1.5751080   -1.8476170  
H     5.0890480    1.4509740   -1.7538830  
H     3.9443190   -5.0501050   -1.2631670  
H     5.9949630   -1.3784190   -2.4129150  
C    -1.7594170   -1.3805470   -0.3754250  
C    -0.4171270   -1.4118290   -0.6882180  
C     0.1997150   -2.2431000    0.2975900  
C    -0.9419500   -2.6705650    1.1823980  
N    -2.0734840   -2.1676190    0.7826780  
C    -0.7528830   -3.5402330    2.3087330  
C     0.5067020   -3.9697710    2.5510330  
O     0.8455630   -4.7731150    3.5630690  
C     1.6864450   -3.5573610    1.6893300  
O     2.7880120   -3.9708360    2.0509900  
C     1.4765710   -2.6892220    0.5164960  
H     0.0853890   -0.9084870   -1.5007000  
H    -1.5955020   -3.8291520    2.9265780  
H     1.8211990   -4.8867610    3.4843820  
C    -2.7027190    0.1412500   -2.1290820  
C    -2.8308640   -0.6884810   -1.0364540  
C    -4.2633680   -0.7078750   -0.7078560  
C    -4.9265070    0.1709670   -1.6987560  
N    -3.9149870    0.6465660   -2.5233870  
C    -6.2551190    0.4298090   -1.7533420  
C    -7.1196640   -0.2063060   -0.7596770  
O    -8.3281710   -0.0406220   -0.7271850  
C    -6.4434410   -1.1438350    0.3041260  
O    -7.1443490   -1.6855670    1.1421610  
C    -4.9856750   -1.3377280    0.2521030  
H    -6.7102390    1.0805190   -2.4936940  
H    -4.5183790   -1.9824360    0.9861760  
H    -1.8041060    0.4151720   -2.6659570  
H    -4.0547450    1.2827910   -3.2942500  
