62


C    -0.7745470   -0.5074730    3.0101980  
C     0.1457700    0.3040810    2.4029860  
C    -0.4730450    0.8248720    1.2164630  
C    -1.7786490    0.2747430    1.1507520  
N    -1.9291650   -0.5438380    2.2482650  
C    -2.7119210    0.5912590    0.1301700  
C    -2.2720480    1.5407850   -0.8043610  
O    -3.0876580    1.9315990   -1.8310080  
C    -0.9726830    2.0970710   -0.7501610  
O    -0.7135770    2.9791490   -1.7767720  
C    -0.0461980    1.7574730    0.2363620  
H     1.1448720    0.5167510    2.7534920  
H    -2.8118160   -0.9307330    2.5462450  
H    -2.5673150    2.5321060   -2.3964480  
H     0.2401460    3.1730100   -1.7949650  
H    -0.7083160   -1.0754840    3.9272820  
C     4.0817090   -0.0714900   -0.0524130  
C     2.7030650    0.1420450    0.0122050  
C     2.4875930    1.5384280    0.1381400  
C     3.7716860    2.1592320    0.1353440  
N     4.7068440    1.1668860    0.0240060  
C     3.9421440    3.5460160    0.2273080  
C     2.7989080    4.3211780    0.3281350  
O     2.9020020    5.6729280    0.4394450  
C     1.5049940    3.7238690    0.3250210  
O     0.4776970    4.6360420    0.4468310  
C     1.3181290    2.3463200    0.2265810  
H     1.9378370   -0.6116800   -0.0781100  
H     5.7080520    1.2580120   -0.1006700  
H     4.9176790    4.0202310    0.2318880  
H     2.0014860    6.0258400    0.5494510  
H    -0.3470350    4.1633890    0.6499500  
C    -4.0239190   -0.0382320    0.0597290  
C    -4.4444630   -1.2439870    0.5791440  
C    -5.8294010   -1.4229070    0.2361670  
C    -6.2160380   -0.2168840   -0.5378770  
N    -5.0951010    0.5832520   -0.5873490  
C    -7.4499300   -0.0078610   -1.0635990  
C    -8.4746240   -1.0273000   -0.8574900  
O    -9.6116070   -0.9258490   -1.2940340  
C    -8.0890810   -2.3111550   -0.0332660  
O    -8.9385490   -3.1713260    0.1507690  
C    -6.7252320   -2.4206670    0.4795350  
H    -3.8240030   -1.9810870    1.0664460  
H    -7.7149060    0.8801550   -1.6291900  
H    -6.4701100   -3.3131050    1.0433390  
H    -4.9734910    1.3914480   -1.1802800  
C     3.0857140   -4.3792960    0.5693330  
C     3.0660290   -3.0186380    0.5755140  
C     4.3223450   -2.5606420    0.0268290  
C     5.0929900   -3.7799840   -0.2889930  
N     4.2781340   -4.8459440    0.0345220  
C     6.3551260   -3.8154860   -0.8033410  
C     7.0234940   -2.5556520   -1.0300980  
O     8.1484960   -2.4428060   -1.4961630  
C     6.2606670   -1.2344260   -0.6370990  
O     6.9001420   -0.1912100   -0.6917540  
C     4.8369420   -1.2960550   -0.2082640  
H     2.2711060   -2.4062630    0.9696380  
H     6.8748550   -4.7357610   -1.0494130  
H     2.3361960   -5.0789860    0.9138930  
H     4.5510470   -5.8139650   -0.0308840  
