62


C    -0.0766130    1.6095220   -0.0213710  
C     1.1281610    0.9090870   -0.1579210  
C     0.8377110   -0.4779140   -0.1441540  
C    -0.5825960   -0.5924340   -0.0297200  
N    -1.0945360    0.6719280    0.0593470  
C    -1.2746440   -1.8260290   -0.0195550  
C    -0.4436990   -2.9361830   -0.1300110  
O    -0.9815700   -4.1958430   -0.1179820  
C     0.9763500   -2.8615930   -0.2486800  
O     1.5690910   -4.0920230   -0.3359680  
C     1.6595400   -1.6496400   -0.2238700  
H     2.0920860    1.3593260   -0.3297260  
H    -2.0760300    0.9219120    0.0713020  
H    -0.2255380   -4.8037680   -0.2625950  
H     2.3114840   -4.0118270   -0.9897240  
C    -4.6559940    0.1573690   -2.2404980  
C    -3.4204710   -0.2858510   -1.8456330  
C    -3.6186640   -1.1488310   -0.7109420  
C    -5.0195960   -1.1985370   -0.4771440  
N    -5.6213640   -0.3832770   -1.4134330  
C    -5.6023710   -1.9874970    0.5207460  
C    -4.7469830   -2.7663860    1.2825920  
O    -5.2417190   -3.5804510    2.2551430  
C    -3.3416710   -2.7382850    1.0745880  
O    -2.6303160   -3.5518620    1.9351650  
C    -2.7482620   -1.9169640    0.1132160  
H    -2.4829090   -0.0417390   -2.3235880  
H    -6.6152530   -0.2462470   -1.5088290  
H    -6.6730370   -2.0275660    0.6933950  
H    -4.4654660   -4.0386700    2.6303190  
H    -1.9873780   -4.0615760    1.3984120  
H    -4.9327880    0.8146740   -3.0525750  
C     4.4058100    0.6279790    2.3520340  
C     5.5913610    0.3428030    1.7580540  
C     5.3130480   -0.5577780    0.6584820  
C     3.8415690   -0.7656430    0.6531130  
N     3.3597780   -0.0320490    1.7089940  
C     3.1382000   -1.5543520   -0.2343880  
C     3.9719030   -2.3303450   -1.1500480  
O     3.5453510   -3.2477910   -1.8562200  
C     5.5147660   -2.0379320   -1.2500040  
O     6.1463720   -2.5816640   -2.1401620  
C     6.1185160   -1.1541490   -0.2589600  
H     6.5654260    0.7023740    2.0553180  
H     7.1904030   -0.9912510   -0.3043220  
H     4.1956700    1.2533950    3.2094470  
H     2.3774430    0.0888580    1.9084600  
C     2.4840750    5.2814390    0.4429220  
C     2.1003100    3.9773040    0.4325390  
C     0.6669260    3.9959590    0.1728230  
C     0.3548180    5.4389090    0.0640600  
N     1.4182160    6.1881660    0.2103140  
C    -0.9814530    5.9263140   -0.1673460  
C    -1.9774950    5.0182600   -0.2537920  
O    -3.2761440    5.3350360   -0.4310850  
C    -1.7122990    3.5521790   -0.1315700  
O    -2.7007050    2.8129740   -0.1594630  
C    -0.3055280    3.0344910    0.0181970  
H     2.7237480    3.1169260    0.6221350  
H    -1.1630400    6.9926740   -0.2434040  
H    -3.7584080    4.4813100   -0.4255260  
H     3.4777100    5.6791700    0.6129740  
