58


C     4.0888910    0.9400390   -0.3124640  
C     4.5412810    2.2119090   -0.0914350  
C     3.3889300    3.0282350    0.1808950  
C     2.2116400    2.1288340    0.0716720  
N     2.6982610    0.8827060   -0.2760180  
C     0.9080270    2.5159800    0.2448520  
C     0.7332480    3.8894350    0.7975500  
O    -0.3055550    4.2616740    1.3114380  
C     1.9450460    4.8843180    0.7802530  
O     1.7317540    6.0621610    1.0267520  
C     3.2651900    4.3499230    0.4868160  
H     5.5718570    2.5339670   -0.0689930  
H     4.1123020    5.0279290    0.5192900  
H     2.1228380    0.0594100   -0.0707160  
C    -0.0852840   -1.7839840    1.0416980  
C    -1.4201560   -1.7823690    0.8292830  
C    -1.7435720   -0.4380340    0.3769580  
C    -0.4322130    0.2952170    0.4062080  
N     0.5231000   -0.5151330    0.7782460  
C    -0.2997260    1.6951920    0.0347980  
C    -1.4268250    2.2425050   -0.5261340  
O    -1.4615500    3.4622230   -1.0606870  
C    -2.7550390    1.5395900   -0.5756200  
O    -3.7146020    2.1829880   -0.9878440  
C    -2.8756930    0.1328010   -0.1023360  
H    -2.1110980   -2.6047430    0.9421700  
H    -2.4005600    3.6283810   -1.3014040  
H     0.5507250   -2.6036780    1.3574940  
C    -5.6704540   -1.8520710    2.7838450  
C    -4.5835570   -1.2185880    2.2806840  
C    -4.8509480   -1.0854550    0.8544890  
C    -6.2030880   -1.7150180    0.6789600  
N    -6.6724370   -2.1593570    1.8083350  
C    -6.8520330   -1.7737320   -0.6034660  
C    -6.2027920   -1.2402330   -1.6643870  
O    -6.6829290   -1.2398530   -2.9164910  
C    -4.8385120   -0.6184480   -1.5326150  
O    -4.2853550   -0.2427600   -2.5610500  
C    -4.1886500   -0.5271370   -0.1903990  
H    -3.7048520   -0.8785780    2.8090500  
H    -7.8276980   -2.2372840   -0.6968890  
H    -5.9903250   -0.8159470   -3.4687020  
H    -5.8547980   -2.1349430    3.8134520  
C     6.0264980   -0.1571560   -1.3725120  
C     6.5383130   -1.3963160   -1.5429360  
C     5.6651870   -2.3305930   -0.8616930  
C     4.5840300   -1.5183090   -0.2530290  
N     4.8369500   -0.1902770   -0.6177890  
C     3.6082510   -2.0265130    0.5392620  
C     3.5465280   -3.4755080    0.7203960  
O     2.6481250   -4.0217830    1.3451660  
C     4.6710580   -4.3572580    0.0732830  
O     4.6506150   -5.5648610    0.2417180  
C     5.7107790   -3.6784810   -0.7083850  
H     7.4286850   -1.6469920   -2.1012810  
H     2.8567940   -1.4287000    1.0398640  
H     6.5013030   -4.2899550   -1.1323290  
H     6.3735380    0.7945900   -1.7493830  
