60


C     0.9819630   -1.0582100   -2.4650320  
C     2.1628970   -1.1778140   -1.7800920  
C     2.1528260   -0.1941550   -0.7321360  
C     0.9108560    0.4853440   -0.8232060  
N     0.2241420   -0.0558770   -1.8901810  
C     0.5248890    1.5335760    0.0431140  
C     1.4427490    1.8394000    1.0567940  
O     1.1301870    2.7671300    1.9893360  
C     2.6791620    1.1553460    1.1879710  
O     3.4387410    1.6008690    2.2428300  
C     3.0853840    0.1671480    0.2869160  
H     2.9470970   -1.8873750   -1.9976340  
H    -0.6755350    0.2620260   -2.2149880  
H     1.8970790    2.8028950    2.5948960  
H     3.8063240    0.8016950    2.6878510  
H     0.6099520   -1.6079340   -3.3180120  
C    -3.7388320    0.2008790   -0.1112720  
C    -2.3630430    0.2743570   -0.0082930  
C    -1.9764870    1.6500080   -0.1329710  
C    -3.2325120    2.4156340   -0.2935700  
N    -4.2496060    1.4871570   -0.3045360  
C    -3.3114500    3.7702480   -0.3752540  
C    -2.0770700    4.5342410   -0.3115570  
O    -2.0364790    5.7557410   -0.3235490  
C    -0.7181650    3.7464520   -0.2420090  
O     0.3184660    4.3660570   -0.3860590  
C    -0.7433800    2.2616870   -0.0799730  
H    -1.6990640   -0.5461150    0.2093840  
H    -4.2506020    4.3078730   -0.4584510  
H    -5.2394800    1.6815580   -0.2402980  
C    -3.1351130   -4.2311650   -0.4642610  
C    -2.9033370   -2.8932710   -0.5387440  
C    -4.1579750   -2.2663460   -0.1625600  
C    -5.0670430   -3.4224940    0.0968070  
N    -4.4603520   -4.5663940   -0.0681280  
C    -6.4423060   -3.2445290    0.4754910  
C    -6.9165150   -1.9805630    0.5597250  
O    -8.1893720   -1.6771600    0.8680900  
C    -6.0458740   -0.7931580    0.2845470  
O    -6.5963270    0.3124330    0.3183910  
C    -4.5891870   -0.9706070   -0.0133110  
H    -1.9916410   -2.4064480   -0.8501450  
H    -7.0693840   -4.1090070    0.6627810  
H    -8.2513250   -0.6992870    0.8317950  
H    -2.4402690   -5.0347700   -0.6778330  
C     6.2768470   -0.4395610   -2.7367210  
C     5.1652340   -0.0445370   -2.0610180  
C     5.2485140   -0.5942680   -0.7280050  
C     6.5250910   -1.3521100   -0.6807850  
N     7.0853000   -1.2391340   -1.9374000  
C     6.9939130   -2.0238530    0.4019820  
C     6.2040950   -1.9635710    1.6188770  
O     6.4902860   -2.5580200    2.6457760  
C     4.9200870   -1.0530470    1.6239450  
O     4.4079200   -0.8376760    2.7214160  
C     4.4112630   -0.4875380    0.3629320  
H     4.3692700    0.5741060   -2.4438630  
H     7.9060200   -2.6117320    0.4005620  
H     6.5776500   -0.2144430   -3.7513650  
H     7.9952640   -1.5894290   -2.1928110  
