62


C    -0.3046820   -0.2478640   -0.1654850  
C     0.0909060    1.0788360   -0.0126670  
C    -1.0835710    1.8566990    0.1628350  
C    -2.1940760    0.9642260    0.1158820  
N    -1.6962180   -0.2963900   -0.0812580  
C    -3.5345000    1.3943510    0.2286490  
C    -3.7236690    2.7672230    0.4054590  
O    -4.9788560    3.2547070    0.5779150  
C    -2.6236390    3.6692050    0.4593780  
O    -3.0025940    4.9846760    0.6524090  
C    -1.3207580    3.2376420    0.3410160  
H     1.1141500    1.4191530   -0.0435210  
H    -2.2314080   -1.1442640   -0.2004230  
H    -4.9143720    4.2258100    0.5934630  
H    -2.2302140    5.5602180    0.5514330  
H    -0.4949270    3.9444260    0.3863980  
C     4.0619990   -0.7701280   -0.3784280  
C     4.1454020   -2.1190380   -0.6107820  
C     2.7866280   -2.6023730   -0.6626120  
C     1.9526030   -1.3824280   -0.4233700  
N     2.6930890   -0.3313030   -0.2618610  
C     0.4838630   -1.4397910   -0.3836510  
C    -0.0476960   -2.6911270   -0.5766590  
O    -1.3836540   -2.9441520   -0.5692830  
C     0.7576830   -3.9081800   -0.8226330  
O     0.1467950   -4.9761290   -0.9842610  
C     2.2204700   -3.8133670   -0.8599120  
H     5.0324790   -2.7016800   -0.8185540  
H    -1.4419710   -3.9124810   -0.7479940  
H     2.7763360   -4.7291850   -1.0366010  
C     8.0191260   -1.3132900    1.4591340  
C     8.4914950   -0.0415280    1.2687480  
C     7.4562800    0.6942970    0.6006130  
C     6.3728250   -0.1958360    0.3988990  
N     6.7490090   -1.4142020    0.9205620  
C     5.1411610    0.1861280   -0.1948200  
C     5.0473620    1.5343410   -0.5887580  
O     3.9396790    1.9998270   -1.2179330  
C     6.1342190    2.4280400   -0.3980520  
O     5.8772560    3.7079560   -0.8555210  
C     7.3239890    2.0319030    0.1795230  
H     9.4609860    0.3305660    1.5700190  
H     6.1232120   -2.1977490    1.0300350  
H     4.1064980    2.9357630   -1.4302910  
H     6.6783140    4.2470220   -0.7820970  
H     8.1367650    2.7434780    0.3109770  
H     8.4851140   -2.1701560    1.9246380  
C    -4.7128140   -2.2255950    2.5259630  
C    -4.0843470   -1.1137750    2.0676980  
C    -4.8541910   -0.6130620    0.9440640  
C    -6.0050150   -1.5364050    0.7926790  
N    -5.8504550   -2.4991880    1.7706750  
C    -6.9993430   -1.4009850   -0.1234910  
C    -6.9355280   -0.2724240   -1.0373270  
O    -7.7975070   -0.0302080   -1.8696770  
C    -5.6849300    0.6798530   -0.9558680  
O    -5.5571160    1.5355210   -1.8116430  
C    -4.6841520    0.4728930    0.1281540  
H    -3.1806500   -0.6775410    2.4648400  
H    -7.8448990   -2.0783910   -0.1934960  
H    -4.4470710   -2.8740620    3.3503390  
H    -6.5069520   -3.2416020    1.9528870  
