58


C     5.3152270   -3.3713330   -1.8651720  
C     6.5782400   -3.4797890   -1.3787140  
C     6.8221840   -2.3108500   -0.5629900  
C     5.5830580   -1.4917530   -0.6447750  
N     4.7217330   -2.1719640   -1.4828090  
C     5.4000560   -0.2835490   -0.0208230  
C     6.4640260    0.0992340    0.9439420  
O     6.3175710    0.9782840    1.7745350  
C     7.8224800   -0.6881920    0.9399050  
O     8.7518290   -0.2464550    1.5980300  
C     7.9031190   -1.9181240    0.1628980  
H     7.2740450   -4.2865410   -1.5580640  
H     8.8300590   -2.4826500    0.1924920  
H     4.7636900   -4.0605350   -2.4917520  
H     3.7164880   -2.0358560   -1.3609620  
C     1.0208910   -1.0098900   -0.2300620  
C     0.5080900    0.2616220   -0.1416940  
C     1.7042740    1.1270270   -0.1325920  
C     2.8557390    0.1816550   -0.1835630  
N     2.4185750   -1.0603220   -0.2627500  
C     4.2374210    0.6147760   -0.1612490  
C     4.4096650    1.9773300   -0.2499300  
O     5.5996280    2.5605380   -0.3832730  
C     3.2676710    2.9549640   -0.2231080  
O     3.5435970    4.1509350   -0.2872340  
C     1.8797410    2.4595830   -0.1407830  
H     5.4264790    3.5292460   -0.3766620  
H     1.0609620    3.1688210   -0.1195540  
H     0.4658870   -1.9391620   -0.2795070  
C    -0.8607750    0.6770800   -0.0859050  
C    -2.0023370   -0.0921150   -0.0582810  
C    -3.0985490    0.8265310    0.0051310  
C    -2.4448230    2.1801890    0.0030390  
N    -1.1487770    2.0874190   -0.0524700  
C    -3.2083940    3.3968140    0.0406870  
C    -4.5549900    3.2797790    0.0812690  
O    -5.3989810    4.3156830    0.1304920  
C    -5.2528070    1.9339200    0.0942930  
O    -6.4783550    1.9612390    0.1946940  
C    -4.4599270    0.6885420    0.0177220  
H    -2.0711120   -1.1691220   -0.0449380  
H    -2.7088190    4.3589620    0.0393200  
H    -6.2965450    3.9124690    0.1746960  
C    -4.2591080   -2.8278870    2.6766730  
C    -5.2041580   -3.6393140    2.1511450  
C    -5.7328780   -2.9120420    1.0014570  
C    -4.9522810   -1.6300320    0.9899580  
N    -4.0975630   -1.5905110    1.9682860  
C    -5.1853720   -0.5955030   -0.0081860  
C    -6.1395320   -0.8692040   -0.9442100  
O    -6.4404390   -0.0486590   -1.9573680  
C    -6.9307820   -2.1510220   -0.9538160  
O    -7.7624490   -2.2940020   -1.8476900  
C    -6.6820740   -3.1684650    0.0817340  
H    -5.5196120   -4.6144250    2.4951270  
H    -7.1628240   -0.4961910   -2.4527230  
H    -7.2793220   -4.0743950    0.0446010  
H    -3.6349440   -3.0033730    3.5446360  
