60


C    -2.8124960   -1.6446860    0.0710840  
C    -3.7464000   -0.6358850   -0.0309480  
C    -5.0489150   -1.2324060    0.0772080  
C    -4.8317150   -2.6901940    0.2545460  
N    -3.4711230   -2.8727960    0.2520300  
C    -5.8305420   -3.6027140    0.3868310  
C    -7.2094210   -3.1331210    0.3604730  
O    -8.1740000   -3.8763720    0.4735200  
C    -7.4637360   -1.5904250    0.1792510  
O    -8.6136660   -1.1774830    0.1591390  
C    -6.3049380   -0.7041500    0.0416250  
H    -3.5158320    0.4070760   -0.1800060  
H    -5.6526950   -4.6661970    0.5135940  
H    -6.4897020    0.3579450   -0.0876970  
H    -2.9906550   -3.7594810    0.2795100  
C    -0.2104210    1.8602210   -0.1353150  
C     1.0311280    1.2564240   -0.1956630  
C     0.8002410   -0.1568130   -0.1437400  
C    -0.6704460   -0.2725910   -0.0524130  
N    -1.2504190    0.8927780   -0.0333000  
C    -1.3670400   -1.5639400    0.0056310  
C    -0.5478560   -2.6609950   -0.0427380  
O    -0.9987580   -3.9378370   -0.0300430  
C     0.9298150   -2.5810000   -0.1568980  
O     1.5144030   -3.6768440   -0.2487940  
C     1.6302060   -1.2688250   -0.1436120  
H     1.9722870    1.7513380   -0.3741180  
H    -0.1863330   -4.4903480   -0.1064550  
C     1.9166550    5.4863990    1.3200110  
C     1.5568120    4.2058480    1.0249920  
C     0.2850830    4.2545620    0.3445040  
C    -0.0825870    5.6838160    0.2808700  
N     0.9629770    6.3791630    0.8600740  
C    -1.2463950    6.1785760   -0.2201470  
C    -2.2225830    5.2324030   -0.7320500  
O    -3.3291170    5.5587400   -1.1337270  
C    -1.8255050    3.7114990   -0.7872610  
O    -2.5629790    2.9631690   -1.3990020  
C    -0.5438270    3.2662720   -0.1569190  
H     2.1095910    3.3180220    1.2870100  
H    -1.4946080    7.2354700   -0.2235660  
H     2.7952710    5.8509680    1.8353620  
H     0.9673900    7.3741250    1.0223630  
C     3.0672120   -1.2436820   -0.1074730  
C     3.9493220   -0.1812540    0.1446580  
C     5.2662030   -0.6839830    0.0849910  
C     5.1652780   -2.0809110   -0.2061060  
N     3.8385550   -2.3839860   -0.3144470  
C     6.2897500   -2.9056710   -0.3342770  
C     7.5312480   -2.3160650   -0.1660270  
O     8.6561070   -3.0640160   -0.2777820  
C     7.6527220   -0.9186850    0.1270270  
O     8.9598190   -0.5063360    0.2606370  
C     6.5497310   -0.1076270    0.2536640  
H     3.6634630    0.8294590    0.3882520  
H     3.4159900   -3.2929770   -0.4532140  
H     6.2220340   -3.9653850   -0.5547250  
H     9.4188100   -2.4773000   -0.1291250  
H     8.9894310    0.4432780    0.4506140  
H     6.6616660    0.9513120    0.4754330  
