60


C    -3.1597520    1.4469560   -0.7808790  
C    -3.0339110    0.1376570   -0.3616310  
C    -4.3576260   -0.2600200    0.1313740  
C    -5.2425600    0.9152800   -0.0704610  
N    -4.4477030    1.8973310   -0.6354580  
C    -6.5547770    0.9792740    0.2624580  
C    -7.1662460   -0.1874210    0.8928490  
O    -8.3402360   -0.2285140    1.2256380  
C    -6.2474880   -1.4306360    1.1602670  
O    -6.7256860   -2.4121580    1.7064480  
C    -4.8405840   -1.3730180    0.7434190  
H    -7.1683430    1.8602760    0.1002660  
H    -4.2365190   -2.2521190    0.9221450  
H    -2.3881780    2.0962930   -1.1689030  
H    -4.7627350    2.8252620   -0.8754990  
C     1.0482370    1.6459190   -0.2427160  
C     1.7694640    0.4803040   -0.2820060  
C     0.8011630   -0.5889690   -0.3417890  
C    -0.5048260    0.1035540   -0.3303560  
N    -0.3618900    1.3940110   -0.2464700  
C    -1.7861760   -0.6075920   -0.3980090  
C    -1.6753590   -1.9645040   -0.5611690  
O    -2.7426000   -2.7692900   -0.7694880  
C    -0.3812320   -2.6700560   -0.6274340  
O    -0.4372640   -3.8908260   -0.8819360  
C     0.9120550   -1.9541930   -0.4017650  
H     2.8416220    0.3701450   -0.3295360  
H    -2.3676520   -3.6678960   -0.8954050  
C     4.6595590    3.6118670    1.4892930  
C     3.7351300    2.6700780    1.1680180  
C     2.7261610    3.3764830    0.3933730  
C     3.2211370    4.7844810    0.3644620  
N     4.3527060    4.9152550    1.0007410  
C     2.4874580    5.8356850   -0.2874990  
C     1.3135230    5.5112850   -0.8746700  
O     0.5266820    6.3924220   -1.5153160  
C     0.7816030    4.1011850   -0.8846320  
O    -0.2650450    3.9197130   -1.5021630  
C     1.5514590    3.0067140   -0.2034200  
H     3.7328760    1.6254620    1.4439840  
H     2.8770820    6.8475960   -0.2947960  
H    -0.2237710    5.8627780   -1.8632980  
H     5.5672310    3.4792970    2.0664910  
C     4.1189150   -1.5430470    2.7022700  
C     2.9607780   -1.4198870    1.9741890  
C     3.0601190   -2.3126650    0.8547120  
C     4.3146150   -2.9689720    0.9747010  
N     4.9423240   -2.4670070    2.0961300  
C     4.7435570   -3.9647080    0.0948270  
C     3.8673760   -4.3381240   -0.9138810  
O     4.2219520   -5.3102750   -1.7928000  
C     2.5915410   -3.7321450   -1.0500970  
O     1.8768720   -4.2137110   -2.1157080  
C     2.1744240   -2.6818730   -0.2119790  
H     2.1354170   -0.7687250    2.2201560  
H     5.8368020   -2.7728190    2.4462580  
H     5.7031810   -4.4629670    0.1877930  
H     3.4503420   -5.4352500   -2.3782140  
H     0.9378940   -4.2915250   -1.8264530  
H     4.4228510   -1.0451820    3.6121100  
