64


C     2.8711970   -1.0620360   -0.3233310  
C     1.6242070   -1.3214510    0.2060450  
C     1.0732100   -2.4351350   -0.5056540  
C     2.0345100   -2.8268600   -1.4742520  
N     3.1038990   -1.9531150   -1.3748390  
C     1.8470850   -3.9104070   -2.3378100  
C     0.6525980   -4.6073610   -2.2330010  
O     0.4068790   -5.6654250   -3.0575580  
C    -0.3289140   -4.2258400   -1.2813940  
O    -1.4683850   -5.0011710   -1.3150200  
C    -0.1489820   -3.1513280   -0.4073400  
H     1.1387860   -0.7454030    0.9803530  
H     4.0308740   -2.1658890   -1.7148700  
H     2.5816890   -4.2112250   -3.0777610  
H    -0.4926360   -5.9797200   -2.8588400  
H    -2.1458210   -4.5846930   -0.7541740  
C     3.8466170   -0.0527630    0.0207510  
C     4.0908550    0.5871740    1.2177770  
C     5.1697190    1.5051100    1.0081740  
C     5.5593350    1.3860300   -0.3522840  
N     4.7695360    0.4032070   -0.9254050  
C     6.5818010    2.1561350   -0.9160080  
C     7.2339760    3.0589800   -0.0886980  
O     8.2374170    3.8372640   -0.5891070  
C     6.8709990    3.1794860    1.2790790  
O     7.6174560    4.1140230    1.9725270  
C     5.8582690    2.4182670    1.8327090  
H     3.5837980    0.3798510    2.1501380  
H     4.6219200    0.3145080   -1.9204260  
H     6.8809040    2.0706750   -1.9557940  
H     8.5691650    4.3843970    0.1435910  
H     7.3371860    4.1278660    2.8994980  
H     5.5965810    2.5304110    2.8830970  
C    -2.6813830    0.5545730    0.1544370  
C    -1.7704670   -0.3778740   -0.2975930  
C    -1.8704420   -1.5284890    0.5471610  
C    -2.8780280   -1.2514020    1.5085120  
N    -3.3721430    0.0083860    1.2341040  
C    -3.2517980   -2.1611500    2.5041680  
C    -2.5907110   -3.3788740    2.5304440  
O    -2.8953900   -4.2992600    3.4890890  
C    -1.5901670   -3.6837840    1.5693000  
O    -1.0222070   -4.9294570    1.7329560  
C    -1.2149540   -2.7880470    0.5666820  
H    -1.1301740   -0.2653330   -1.1607250  
H    -3.9718020    0.5373770    1.8489980  
H    -4.0180220   -1.9484730    3.2424980  
H    -2.2994520   -5.0574620    3.3576170  
H    -0.2458190   -4.9964470    1.1501950  
C    -2.0348520    2.7645640   -0.8525640  
C    -2.9501040    1.9016420   -0.3185000  
C    -4.2354990    2.5984300   -0.3471720  
C    -3.9738470    3.9362320   -0.9377940  
N    -2.6282900    3.9586780   -1.2429590  
C    -4.9166940    4.8957330   -1.1187070  
C    -6.2909970    4.6046540   -0.7226630  
O    -7.2039030    5.4079810   -0.8373900  
C    -6.5998750    3.1829090   -0.1273760  
O    -7.7447340    2.9106300    0.1962800  
C    -5.4914480    2.2327310    0.0209680  
H    -4.7023200    5.8680830   -1.5516300  
H    -5.7290500    1.2488130    0.4125710  
H    -0.9711980    2.6178800   -0.9839890  
H    -2.1339670    4.7589180   -1.6052650  
