60


C    -4.0816110   -0.8879350   -0.8238010  
C    -4.5256180   -2.1937440   -0.7647320  
C    -3.4269870   -2.9997290   -0.3309420  
C    -2.3158280   -2.1304860   -0.1582300  
N    -2.7322910   -0.8653430   -0.4950120  
C    -1.0363660   -2.5747850    0.2600420  
C    -0.9621570   -3.9330690    0.6125690  
O     0.1771590   -4.4408030    1.1523070  
C    -2.0695340   -4.8068900    0.4496070  
O    -1.7979190   -6.1109140    0.8235960  
C    -3.2833790   -4.3696860   -0.0360670  
H    -5.5362550   -2.5260830   -0.9598490  
H    -2.2112070   -0.0482560   -0.1966240  
H     0.0242270   -5.3912040    1.2981990  
H    -2.6010280   -6.6457520    0.7422100  
H    -4.1133730   -5.0621720   -0.1606490  
C    -0.2833910    1.5618000    1.7631960  
C     1.0678810    1.6255220    1.7015100  
C     1.4851330    0.3668300    1.1009600  
C     0.2191480   -0.3918190    0.8919030  
N    -0.8050550    0.3306570    1.2672070  
C     0.1796310   -1.7313280    0.3082210  
C     1.3714530   -2.1639870   -0.2107140  
O     1.5071550   -3.2988210   -0.9120330  
C     2.6640910   -1.4379390   -0.0306820  
O     3.6885600   -1.9779990   -0.4436080  
C     2.6769640   -0.1114850    0.6571140  
H     1.7019870    2.4555920    1.9779270  
H     2.4694580   -3.3941770   -1.0814850  
H    -0.9804130    2.3207580    2.1011490  
C     4.2205120    1.0890360    2.1567970  
C     5.4250060    1.7028410    2.1315590  
C     5.9553200    1.5743850    0.7920880  
C     4.9489920    0.8091900    0.0162780  
N     3.9019370    0.5126000    0.9131130  
C     5.0595000    0.5570440   -1.3079590  
C     6.2632730    1.0147020   -2.0104910  
O     6.4347710    0.8237600   -3.2031620  
C     7.3622190    1.7774180   -1.1921260  
O     8.3776010    2.1473330   -1.7591920  
C     7.1047570    2.0264680    0.2276390  
H     5.9113690    2.1866310    2.9664910  
H     4.3242970    0.0106460   -1.8841560  
H     7.8464470    2.5899220    0.7854140  
H     3.5279750    0.9608630    2.9768530  
C    -5.7777370    0.5202410   -2.0647680  
C    -4.7977390    0.3408190   -1.1316510  
C    -4.6246610    1.6323690   -0.4692940  
C    -5.5770790    2.5705830   -1.1131730  
N    -6.2657520    1.8248570   -2.0471320  
C    -5.6977520    3.8831230   -0.7854300  
C    -4.8464450    4.4175300    0.2733580  
O    -4.8845290    5.5823630    0.6395160  
C    -3.8360090    3.4352850    0.9715700  
O    -3.0787900    3.8716170    1.8280800  
C    -3.8247430    2.0334210    0.5528740  
H    -6.4049110    4.5552960   -1.2616140  
H    -3.1522660    1.3594470    1.0727400  
H    -6.1781280   -0.1972790   -2.7683080  
H    -6.9331830    2.1997330   -2.7028860  
