58


C     5.7341170   -3.2771380   -2.2570390  
C     5.1205320   -2.1327700   -1.8611920  
C     5.8843770   -1.5901640   -0.7592450  
C     7.0172680   -2.5276420   -0.5470340  
N     6.8626990   -3.5295290   -1.4839790  
C     7.9934870   -2.3728360    0.3831490  
C     7.9355140   -1.2045720    1.2489880  
O     8.7735800   -0.9600240    2.1029970  
C     6.7303220   -0.2097800    1.0751490  
O     6.6353670    0.7243980    1.8512280  
C     5.7394900   -0.4596830   -0.0020560  
H     4.2171540   -1.7156150   -2.2768160  
H     8.8197710   -3.0663590    0.5051400  
H     5.4595880   -3.9641740   -3.0465620  
H     7.4881110   -4.3111670   -1.5988390  
C     1.4072150   -0.9822300    0.2764250  
C     0.9195160    0.3002830    0.1078620  
C     2.1381180    1.1128120   -0.0982490  
C     3.2507170    0.1302820   -0.0217140  
N     2.7927870   -1.0870530    0.1991220  
C     4.6362650    0.5086370   -0.1624450  
C     4.8694130    1.8408230   -0.3809130  
O     6.0867460    2.3504630   -0.5786770  
C     3.7643790    2.8569260   -0.4601580  
O     4.0830080    4.0259080   -0.6687140  
C     2.3612580    2.4238970   -0.2990860  
H     5.9551740    3.3196180   -0.6846550  
H     1.5703920    3.1628420   -0.3504150  
H     0.8274340   -1.8795820    0.4604000  
C    -0.4273480    0.7581600    0.1273780  
C    -1.5966810    0.0314780    0.3117840  
C    -2.6643010    0.9669500    0.2331640  
C    -1.9837710    2.2742910   -0.0218360  
N    -0.6868550    2.1501230   -0.0750070  
C    -2.7161620    3.4983150   -0.1982650  
C    -4.0647020    3.4218510   -0.1544500  
O    -4.8808380    4.4691780   -0.3206620  
C    -4.7973180    2.1182450    0.0903680  
O    -6.0282610    2.1999990    0.1051400  
C    -4.0461970    0.8648040    0.3163240  
H    -1.6764620   -1.0358690    0.4537330  
H    -2.1930650    4.4316280   -0.3731910  
H    -5.7904550    4.1044500   -0.2278260  
C    -4.2464850   -1.3480870    1.4925450  
C    -4.7377710   -0.3556710    0.6740120  
C    -6.0631900   -0.8822440    0.2524140  
C    -6.1547010   -2.2075500    0.9277940  
N    -5.0926940   -2.4527820    1.6569000  
C    -7.2860490   -3.0755440    0.7691980  
C    -8.2886170   -2.6672750   -0.0475480  
O    -9.4000120   -3.3756300   -0.2944060  
C    -8.2220110   -1.3494610   -0.7628100  
O    -9.1619330   -1.0465300   -1.4957940  
C    -7.0494860   -0.4679890   -0.5658390  
H    -7.3122430   -4.0276730    1.2873120  
H    -9.9267170   -2.8277260   -0.9175080  
H    -7.0626840    0.4853900   -1.0777850  
H    -3.3119900   -1.3258880    2.0387930  
