58


C     1.8363510   -1.0396530   -1.3857320  
C     1.9683920   -2.3760510   -1.1955250  
C     3.1069230   -2.5793450   -0.3278840  
C     3.6438220   -1.2301940   -0.0257420  
N     2.8279550   -0.3149780   -0.7124620  
C     4.6837040   -1.0043450    0.8109300  
C     5.3425690   -2.1567940    1.4327250  
O     6.2766040   -2.0383660    2.2089760  
C     4.8145620   -3.5946070    1.0903250  
O     5.3624260   -4.5646300    1.5896360  
C     3.6639380   -3.7048370    0.1918050  
H     1.3490210   -3.1485200   -1.6296380  
H     5.0759800   -0.0201730    1.0337920  
H     3.2806430   -4.6985200   -0.0201500  
H     1.1134240   -0.5006880   -1.9818400  
C    -0.2598430    2.7407500   -0.0709220  
C     0.4419710    1.5550790   -0.1731740  
C     1.7972870    1.8750460   -0.4898250  
C     1.8746190    3.3512450   -0.5745590  
N     0.6016090    3.8114420   -0.3238390  
C     3.0076190    4.0577090   -0.8271800  
C     4.2414140    3.3214970   -1.0483140  
O     5.3235520    3.8529450   -1.2397700  
C     4.1893590    1.7468750   -1.0425720  
O     5.1893620    1.1239960   -1.3519490  
C     2.9103810    1.0887470   -0.6925750  
H     0.0159160    0.5789650   -0.0108180  
H     3.0398560    5.1416780   -0.8638470  
H     0.3313480    4.7793430   -0.2275920  
C    -3.4818430   -0.2026890    0.3275900  
C    -4.5112730    0.5899960    0.7602370  
C    -3.9839510    1.9362170    0.8019480  
C    -2.5649730    1.7897970    0.3614880  
N    -2.2872410    0.5595280    0.0725740  
C    -1.6539530    2.9343630    0.2661670  
C    -2.2195850    4.1536590    0.5411450  
O    -1.5497270    5.3199890    0.4908300  
C    -3.6441400    4.3250620    0.9657680  
O    -4.0206320    5.4782930    1.1975990  
C    -4.5095550    3.1489220    1.0910570  
H    -5.5042750    0.2849080    1.0564930  
H    -2.2149440    6.0030100    0.7509070  
H    -5.5382950    3.3160840    1.3948340  
C    -6.4622390   -3.2476510   -1.0412250  
C    -5.9138840   -2.0653610   -0.6509750  
C    -4.5315440   -2.3710640   -0.3415420  
C    -4.4179890   -3.8414310   -0.6324610  
N    -5.5522810   -4.3418220   -1.0361040  
C    -3.1765300   -4.5493980   -0.5003370  
C    -2.0942890   -3.8466360   -0.0909530  
O    -0.8721920   -4.3743160    0.0672310  
C    -2.1722740   -2.3820180    0.2625750  
O    -1.1552880   -1.8840390    0.7333040  
C    -3.4566840   -1.6324860    0.0718340  
H    -6.3963300   -1.1008970   -0.6035300  
H    -3.1271390   -5.6081220   -0.7291310  
H    -0.3144280   -3.6505710    0.4318220  
H    -7.4840640   -3.4290980   -1.3539130  
