58


C    -2.8373550   -1.0745070    0.0487440  
C    -3.5486030    0.0820200    0.3433630  
C    -4.9431230   -0.2256810    0.2871110  
C    -5.0367820   -1.6654210   -0.0605840  
N    -3.7437550   -2.1089530   -0.1964250  
C    -6.2065230   -2.3413600   -0.2007160  
C    -7.4580250   -1.6174860   -0.0026310  
O    -8.5569000   -2.1423970   -0.1090770  
C    -7.3829390   -0.0900080    0.3655030  
O    -8.4235690    0.5316960    0.5329590  
C    -6.0655490    0.5270390    0.4924290  
H    -3.1358670    1.0348280    0.6316040  
H    -6.2571640   -3.3960110   -0.4525650  
H    -6.0238610    1.5813020    0.7495370  
H    -3.4233830   -3.0603880   -0.3352790  
C     0.7140860    1.6461050   -0.1464240  
C    -0.5628630    1.0984800   -0.1484600  
C    -0.4461960   -0.3073540   -0.0235650  
C     1.0078130   -0.5898500    0.0043040  
N     1.6508730    0.6251730   -0.0848080  
C     1.5765500   -1.8396770    0.0498850  
C     0.6159880   -2.9449560    0.2682990  
O     0.9477480   -4.0492420    0.6578110  
C    -0.9061620   -2.6952970    0.0302640  
O    -1.6023780   -3.6953240   -0.1242840  
C    -1.4141430   -1.3177340    0.0217800  
H    -1.4565010    1.6821250   -0.2691720  
H     2.6066170    0.7306270    0.2566740  
C     5.2250030    0.0003170    1.8426000  
C     6.1706870   -0.9098420    1.5219630  
C     5.4823930   -1.9097970    0.7148010  
C     4.0569440   -1.4380510    0.6728600  
N     3.9301370   -0.3141180    1.3212520  
C     3.0088250   -2.1717150   -0.0209550  
C     3.4442040   -3.2521050   -0.7481450  
O     2.6537690   -3.9708110   -1.5447460  
C     4.8715450   -3.7328910   -0.7404610  
O     5.1377630   -4.7230540   -1.4181790  
C     5.8810120   -3.0094330    0.0496530  
H     7.2185960   -0.9101500    1.7869850  
H     3.2168550   -4.6951950   -1.9008520  
H     6.8982910   -3.3878320    0.0321030  
H     5.3349350    0.9043220    2.4290200  
C    -1.7590690    5.2955760   -0.3163850  
C    -0.8161040    6.2614480   -0.3755390  
C     0.4574900    5.5548900   -0.3442730  
C     0.0769700    4.1070790   -0.2636700  
N    -1.2145740    3.9712200   -0.2448970  
C     1.0885170    3.0432080   -0.2144170  
C     2.3931450    3.4775360   -0.2377700  
O     3.4565070    2.6624010   -0.1956120  
C     2.7849100    4.9230620   -0.3135650  
O     3.9929230    5.1720880   -0.3264450  
C     1.7443800    5.9542280   -0.3680270  
H    -0.9541140    7.3319590   -0.4330110  
H     4.2377160    3.2662220   -0.2289450  
H     2.0663520    6.9895910   -0.4226780  
H    -2.8363100    5.4055420   -0.3165410  
