60


C    -1.1155070    1.2285740    0.2655600  
C    -2.4746970    1.2592590    0.3927090  
C    -2.9759850   -0.0402860    0.0195260  
C    -1.8511740   -0.8268190   -0.3291200  
N    -0.7108500   -0.0294300   -0.1841800  
C    -1.9449970   -2.1861580   -0.6394280  
C    -3.2075880   -2.7538780   -0.5905840  
O    -3.3714260   -4.0745170   -0.8596700  
C    -4.3594360   -1.9869690   -0.2610410  
O    -5.5251620   -2.7063920   -0.2853830  
C    -4.2808410   -0.6171030    0.0089130  
H    -3.0516280    2.1074330    0.7326060  
H    -1.0893230   -2.7975650   -0.8976770  
H    -4.3226220   -4.2551470   -0.7304890  
H    -6.0735870   -2.3990390    0.4770810  
H    -0.3791580    2.0039000    0.4185230  
C     2.8629810    0.2996200    2.3114410  
C     1.5851540    0.3011090    1.8578810  
C     1.6118310   -0.1882580    0.4977120  
C     3.0262240   -0.4891860    0.1902100  
N     3.7578030   -0.1448570    1.3283650  
C     3.4695090   -1.0505780   -0.9654130  
C     2.4946140   -1.3353120   -2.0078400  
O     2.7760620   -1.8770770   -3.0651030  
C     0.9960960   -0.9265320   -1.7614310  
O     0.1989190   -1.0294950   -2.6746940  
C     0.6213750   -0.4013470   -0.4234790  
H     0.7092810    0.6042780    2.4111240  
H     4.5050740   -1.3164980   -1.1429210  
H     3.2560020    0.5942200    3.2749770  
C     5.7654100   -0.9095230    2.5680040  
C     5.1376460   -0.3092990    1.5221460  
C     6.2161470    0.2756680    0.7055550  
C     7.4549700   -0.1196020    1.4400870  
N     7.1801070   -0.8006920    2.5193760  
C     8.7599990    0.2458630    0.9591290  
C     8.8346970    1.0038450   -0.1620670  
O     9.9840300    1.4249440   -0.7094550  
C     7.6009840    1.4508310   -0.8981080  
O     7.7466040    2.1431530   -1.9016670  
C     6.2678090    1.0377780   -0.4017210  
H     9.6440100   -0.0709290    1.5011830  
H     9.7287620    1.9460590   -1.5017670  
H     5.4039430    1.3600670   -0.9743460  
H     5.3056040   -1.4335680    3.3976030  
C    -5.4454040    3.1928820   -1.8101070  
C    -6.5831440    3.4638380   -1.1207260  
C    -6.8020620    2.3615510   -0.2081130  
C    -5.6736210    1.4185580   -0.4193740  
N    -4.8975960    1.9803600   -1.4047910  
C    -5.4788710    0.2256310    0.2410170  
C    -6.5665570   -0.1595920    1.1385730  
O    -6.6707150   -1.2775780    1.6474000  
C    -7.7082960    0.8710650    1.4756230  
O    -8.5049630    0.5805400    2.3529290  
C    -7.7737910    2.1097300    0.7085930  
H    -7.2181820    4.3295040   -1.2385240  
H    -8.5897980    2.7952350    0.9133510  
H    -4.9574580    3.7669940   -2.5865750  
H    -4.0247980    1.5865910   -1.7251410  
