58


C    -1.5896300   -1.5189880    0.4934830  
C    -0.8873090   -0.4234220    0.0684790  
C    -1.8988240    0.5481300   -0.3661670  
C    -3.2241120   -0.0882750   -0.1295820  
N    -2.9525230   -1.3152260    0.4294260  
C    -4.4622260    0.4813840   -0.3785580  
C    -4.3995690    1.8052010   -1.0131940  
O    -5.3883290    2.4778150   -1.2978390  
C    -3.0089900    2.4542050   -1.3540200  
O    -3.0057660    3.5243410   -1.9376110  
C    -1.7890700    1.7672110   -0.9454670  
H    -0.8425820    2.2621550   -1.1198490  
H    -1.2077180   -2.4487170    0.8936830  
H    -3.6402970   -2.0623660    0.3610040  
C     2.2692030   -3.2700300   -1.1693650  
C     1.0866890   -2.6441090   -0.9365680  
C     1.3857320   -1.3634610   -0.3303240  
C     2.8536930   -1.2978910   -0.2229090  
N     3.3270170   -2.4929300   -0.7100250  
C     3.5929630   -0.2217820    0.2279430  
C     2.8084550    0.9398570    0.6896920  
O     3.2882260    1.9086990    1.2447680  
C     1.2418360    0.9128160    0.5282120  
O     0.6280950    1.9210680    0.8314100  
C     0.5690680   -0.3228280    0.0586240  
H     0.1080370   -3.0169010   -1.1965810  
H     2.4641880   -4.2282580   -1.6315190  
H     4.3053980   -2.6504200   -0.9098850  
C    -8.2420860    2.1363840    1.2775410  
C    -8.9819450    1.0047040    1.3601580  
C    -8.1643180   -0.0721330    0.8477640  
C    -6.8569900    0.5379370    0.4670380  
N    -6.9622060    1.8687330    0.7912550  
C    -5.7691440   -0.1479670   -0.0516970  
C    -5.9992960   -1.5847580   -0.2517990  
O    -5.1429890   -2.3673620   -0.6633960  
C    -7.3940760   -2.2330290    0.0955780  
O    -7.5377340   -3.4244040   -0.1245860  
C    -8.4249110   -1.3936440    0.6824650  
H    -9.9905700    0.9122050    1.7353310  
H    -9.3733720   -1.8495230    0.9478880  
H    -8.5049970    3.1522060    1.5418060  
H    -6.4013190    2.5518430    0.2903110  
C     5.0389830   -0.2215600    0.2639260  
C     5.8931970   -1.2842270    0.4700490  
C     7.2253920   -0.7432120    0.3667910  
C     7.0051160    0.7063420    0.0529460  
N     5.7409930    1.0066520    0.0008790  
C     8.1099230    1.6062340   -0.1583760  
C     9.3606540    1.1035220   -0.0343630  
O    10.4821540    1.8198450   -0.1916970  
C     9.6135910   -0.3498110    0.3019380  
O    10.7898060   -0.7073180    0.3888510  
C     8.4758000   -1.2510740    0.4942430  
H     5.6389640   -2.2863340    0.7892360  
H     7.9241400    2.6482740   -0.3929840  
H    11.2164220    1.1827180   -0.0383470  
H     8.6962290   -2.2893040    0.7230490  
