60


C     0.1362250   -1.2104930    2.1896100  
C    -1.2102250   -1.4044920    2.0150020  
C    -1.6948130   -0.2883790    1.2553580  
C    -0.5828700    0.5652970    1.0197160  
N     0.5137730   -0.0110910    1.6275660  
C    -0.6818160    1.7844300    0.3008880  
C    -1.9349560    2.0192930   -0.2943130  
O    -2.1062740    3.0775180   -1.1287880  
C    -3.0512200    1.1771530   -0.0623120  
O    -4.2060800    1.6440680   -0.6637860  
C    -2.9721810    0.0344860    0.7272170  
H    -1.7832670   -2.2523570    2.3626280  
H     1.4543220    0.1967870    1.2917030  
H    -3.0410820    3.0714370   -1.4028810  
H    -4.9117450    0.9815000   -0.6046390  
H     0.8729340   -1.8404100    2.6681200  
C     3.6997860    1.4402630   -0.4531370  
C     4.0169830    2.7494210   -0.7068470  
C     2.8065870    3.4988320   -0.4705100  
C     1.7796740    2.4617470   -0.1225790  
N     2.3202440    1.2788730   -0.0956720  
C     0.3902200    2.7958190    0.1664340  
C     0.1522360    4.1401340    0.3203640  
O    -1.0105240    4.6477430    0.7432740  
C     1.1698360    5.2002490    0.0213550  
O     0.8308530    6.3773520    0.1694150  
C     2.5196970    4.8169210   -0.4116520  
H     4.9841560    3.1599230   -0.9617400  
H    -0.8850810    5.6237780    0.7249830  
H     3.2277090    5.6132660   -0.6191200  
C     4.5625610    0.2872680   -0.4679060  
C     5.8194060    0.1759470   -1.0079870  
C     6.2412080   -1.1768140   -0.7394280  
C     5.0863850   -1.7806640    0.0039780  
N     4.1150990   -0.9311680    0.1590240  
C     5.1210080   -3.1453630    0.4654470  
C     6.2316770   -3.8718350    0.1991620  
O     6.4023630   -5.1499260    0.5630530  
C     7.4091100   -3.2912480   -0.5513550  
O     8.3741780   -4.0307340   -0.7427570  
C     7.3558060   -1.8972400   -1.0092190  
H     6.3766080    0.9283960   -1.5486190  
H     4.2741030   -3.5603860    1.0001950  
H     7.2946950   -5.3977040    0.2314750  
H     8.2214460   -1.5139780   -1.5406610  
C    -4.5661720   -1.2257630    2.2374890  
C    -4.1517420   -0.8029790    1.0055840  
C    -5.1029080   -1.3628360    0.0478940  
C    -6.1059140   -2.1213240    0.8394940  
N    -5.7130730   -2.0033940    2.1576410  
C    -7.1639740   -2.7838560    0.3089160  
C    -7.3416350   -2.7655270   -1.1412060  
O    -8.2716850   -3.3205810   -1.7048000  
C    -6.2751140   -1.9992150   -2.0051540  
O    -6.3899500   -1.9948940   -3.2199970  
C    -5.1768880   -1.3154020   -1.3121510  
H    -7.8841610   -3.3342960    0.9066580  
H    -4.4329720   -0.8154160   -1.9252300  
H    -4.1183540   -1.0162710    3.1997690  
H    -6.2005150   -2.4041480    2.9436250  
