60


C    -2.8947300    1.2864940    0.7727870  
C    -3.8767200    0.4559920    0.2590390  
C    -3.1829880   -0.6957490   -0.2851570  
C    -1.7998770   -0.4928280   -0.0661420  
N    -1.6564250    0.7108610    0.5992910  
C    -0.7968800   -1.3844290   -0.5057300  
C    -1.2409490   -2.5107880   -1.1986210  
O    -0.3424320   -3.4387110   -1.6187260  
C    -2.6255850   -2.7294170   -1.4266060  
O    -2.8911530   -3.9000760   -2.1069180  
C    -3.5917040   -1.8493570   -0.9826710  
H    -0.7726470    1.1472210    0.8129370  
H    -0.8356020   -4.1178770   -2.1116750  
H    -3.8494480   -4.0165300   -2.1906190  
H    -4.6442360   -2.0601300   -1.1392120  
H    -2.9974240    2.2149770    1.3172590  
C     1.3884870   -1.0618160    3.2617410  
C     2.6458380   -0.8284580    2.7983380  
C     2.5853510   -0.8276340    1.3512220  
C     1.1675420   -1.0702360    1.0078950  
N     0.4940300   -1.1946660    2.2107010  
C     0.6399290   -1.1482620   -0.2507160  
C     1.5842080   -0.9366910   -1.3579350  
O     1.2451140   -0.8739960   -2.5263430  
C     3.1114770   -0.7344340   -1.0261720  
O     3.8884190   -0.6556120   -1.9629860  
C     3.5517170   -0.6628870    0.3862540  
H     3.5221650   -0.6489790    3.4021380  
H     1.0359830   -1.1331430    4.2822630  
H    -0.4738370   -1.4710620    2.2844570  
C     5.6676310   -1.2708150    1.6055880  
C     4.9756470   -0.5192770    0.6963420  
C     5.9406010    0.4405200    0.1462620  
C     7.2313010    0.1716580    0.8273990  
N     6.9912790   -0.8733750    1.6998550  
C     8.3856000    0.8496300    0.6044920  
C     8.3699060    1.9440450   -0.3596850  
O     9.3548330    2.6160280   -0.6260120  
C     7.0079780    2.2708330   -1.0721390  
O     6.9603470    3.2037160   -1.8574150  
C     5.8344990    1.4437140   -0.7604580  
H     9.3172440    0.6251870    1.1149420  
H     4.9169740    1.6597620   -1.2946070  
H     5.3103580   -2.1019360    2.1989470  
H     7.6993920   -1.3396280    2.2454140  
C    -6.0401110    4.1638130   -0.5980200  
C    -7.3132210    3.7597860   -0.3478810  
C    -7.2554840    2.3680600    0.0440090  
C    -5.8245730    1.9919520    0.0103720  
N    -5.1345580    3.1404050   -0.3455120  
C    -5.3139950    0.7472630    0.2697750  
C    -6.3111410   -0.2914830    0.6035250  
O    -6.0107460   -1.4516400    0.8388710  
C    -7.8398500    0.0969830    0.6720240  
O    -8.6410030   -0.7819720    0.9544810  
C    -8.2234120    1.4699970    0.3800960  
H    -8.2060990    4.3627840   -0.4269690  
H    -9.2773550    1.7264200    0.4200690  
H    -5.6797420    5.1290410   -0.9292740  
H    -4.1720020    3.1223330   -0.6513920  
