58


C    -4.5477620    0.3497920   -0.0228170  
C    -4.0553800   -0.8541430    0.4638650  
C    -5.1149480   -1.8136430    0.4326620  
C    -6.3016790   -1.1033320   -0.1053380  
N    -5.8904070    0.1824020   -0.3656120  
C    -7.5200510   -1.6772480   -0.2784080  
C    -7.6853710   -3.0831680    0.0786260  
O    -8.7427680   -3.6830600   -0.0446760  
C    -6.4398320   -3.8569800    0.6474410  
O    -6.5596420   -5.0363330    0.9484590  
C    -5.1804310   -3.1298770    0.7938710  
H    -3.0683920   -1.0293940    0.8603090  
H    -8.3795290   -1.1422230   -0.6698600  
H    -4.3270450   -3.6716250    1.1907070  
H    -6.4622290    0.9734780   -0.6373890  
C    -0.2412000    1.5940090   -0.0610530  
C    -1.4297990    0.8768230   -0.1012240  
C    -2.5087120    1.7992430   -0.1205280  
C    -1.8930750    3.1453590   -0.1133500  
N    -0.5318480    2.9533730   -0.0503980  
C    -2.5738630    4.3196020   -0.1580490  
C    -4.0218270    4.2644950   -0.2583460  
O    -4.7348990    5.2544140   -0.2906940  
C    -4.7076710    2.8547170   -0.3431780  
O    -5.9125200    2.8410060   -0.5717580  
C    -3.8952080    1.6325340   -0.1541650  
H    -1.4702850   -0.1963020   -0.1499590  
H    -2.0930570    5.2920030   -0.1263080  
H     0.1706150    3.6782070   -0.0648030  
C     1.3206530   -2.5189470    0.0488140  
C     2.6563870   -2.3065670    0.0432710  
C     2.8148600   -0.8596810   -0.0043360  
C     1.4134920   -0.3372280   -0.0165060  
N     0.5545500   -1.3119620    0.0188090  
C     1.1176320    1.0990210   -0.0394790  
C     2.2203880    1.9187190   -0.0410940  
O     2.1558300    3.2628590   -0.0749690  
C     3.6264110    1.4186850   -0.0430450  
O     4.5157830    2.2673660   -0.1262540  
C     3.8966400   -0.0396760    0.0083550  
H     3.4498840   -3.0388540    0.0689580  
H     3.0971040    3.5623940   -0.0984850  
H     0.7906700   -3.4626680    0.0790060  
C     6.5237140   -2.6505820   -2.5237120  
C     5.4318880   -1.9939820   -2.0619610  
C     5.8827370   -1.3153210   -0.8541890  
C     7.3352290   -1.6899240   -0.7485520  
N     7.6979640   -2.4687140   -1.7253670  
C     8.1689340   -1.2029340    0.3169590  
C     7.6056630   -0.3842030    1.2362240  
O     8.2620220    0.1290140    2.2857010  
C     6.1527940    0.0034100    1.1727880  
O     5.7058960    0.6872480    2.0876750  
C     5.3013510   -0.4840210    0.0465000  
H     4.4389700   -1.9698400   -2.4866660  
H     9.2117100   -1.4955900    0.3663680  
H     7.6030940    0.6583930    2.7852210  
H     6.5972780   -3.2735030   -3.4072890  
