64


C     2.7957810   -2.2217410   -0.4065850  
C     3.8159750   -1.3114250   -0.5722590  
C     3.2294820   -0.0087380   -0.3440880  
C     1.8605500   -0.2058950   -0.0377220  
N     1.6270210   -1.5654680   -0.0727790  
C     0.9493170    0.8442300    0.2137720  
C     1.4809120    2.1327680    0.1270140  
O     0.6840900    3.2225430    0.3615220  
C     2.8461210    2.3490350   -0.1931760  
O     3.1983650    3.6890570   -0.2380180  
C     3.7240920    1.3077840   -0.4235750  
H     0.7121430   -1.9815740    0.0086150  
H     1.2554280    4.0066100    0.2849800  
H     4.1392280    3.7638030   -0.4552170  
H     4.7644730    1.4999450   -0.6750220  
H     2.8254110   -3.3004510   -0.4707570  
C     5.6269390   -2.4258990   -1.9558930  
C     5.2047790   -1.6117730   -0.9290170  
C     6.4052150   -1.1381340   -0.2741620  
C     7.5133030   -1.7027840   -0.9567800  
N     7.0081440   -2.4895540   -1.9721490  
C     8.8396760   -1.4606700   -0.5764400  
C     9.0518570   -0.6379800    0.5189750  
O    10.3260180   -0.3687390    0.9336000  
C     7.9548410   -0.0745700    1.2222600  
O     8.3254030    0.7194480    2.2952730  
C     6.6469860   -0.3146960    0.8438050  
H     7.5593690   -2.9966850   -2.6460190  
H     9.6899480   -1.8926100   -1.0947660  
H    10.2545090    0.1918330    1.7252930  
H     7.5343740    0.9661110    2.7967570  
H     5.8204530    0.1210990    1.4006810  
H     5.0406190   -2.9536630   -2.6949650  
C    -0.8935640   -0.3554020    1.4782990  
C    -0.4595980    0.5702610    0.5509550  
C    -1.6540780    1.1525270   -0.0210320  
C    -2.7659320    0.5426430    0.6081420  
N    -2.2735550   -0.3590810    1.5298660  
C    -4.1077620    0.8336420    0.2784130  
C    -4.2947890    1.7754980   -0.7342010  
O    -5.5595170    2.1315130   -1.1046980  
C    -3.1898850    2.3922840   -1.3768370  
O    -3.5590650    3.3048450   -2.3483670  
C    -1.8846410    2.1006130   -1.0357000  
H    -2.8415680   -1.0043510    2.0563200  
H    -5.4733430    2.7965680   -1.8103050  
H    -2.7654470    3.7197180   -2.7173670  
H    -1.0551930    2.6020280   -1.5250770  
H    -0.3158150   -0.9744340    2.1508390  
C    -5.4345060    0.1475700    2.3239770  
C    -5.2357560    0.1891810    0.9749860  
C    -6.3422540   -0.5608760    0.3789550  
C    -7.1901800   -1.0296270    1.5024130  
N    -6.5733830   -0.5838210    2.6541780  
C    -8.3296700   -1.7545740    1.3592890  
C    -8.7535270   -2.1189280    0.0124370  
O    -9.7612570   -2.7705810   -0.2193110  
C    -7.8567540   -1.6522790   -1.1933080  
O    -8.1862550   -1.9596550   -2.3280240  
C    -6.6535190   -0.8627270   -0.9064420  
H    -8.9377260   -2.0828080    2.1968780  
H    -6.0554330   -0.5263800   -1.7457910  
H    -4.8444770    0.6081740    3.1060530  
H    -6.9632750   -0.6608210    3.5803970  
