60


C     0.9285850   -0.0413870   -1.3946980  
C     2.1997140   -0.5095360   -1.2262010  
C     2.8435180    0.3218340   -0.2384030  
C     1.9000710    1.3091850    0.1406790  
N     0.7215330    1.0719320   -0.5784390  
C     2.1772020    2.2893350    1.0969590  
C     3.4584860    2.3078310    1.6233730  
O     3.8070020    3.2557950    2.5309480  
C     4.4367970    1.3507550    1.2401060  
O     5.6423610    1.5123370    1.8703450  
C     4.1451940    0.3168470    0.3435210  
H     2.6455120   -1.3189630   -1.7866000  
H     1.4645910    3.0460850    1.3981240  
H     4.7540390    3.1072440    2.7188040  
H     6.3467210    1.3412090    1.1986910  
H     0.1470270   -0.3579980   -2.0693430  
C    -3.5219790   -0.1246050   -0.1507730  
C    -2.1459120   -0.1798890   -0.2101070  
C    -1.7086000    1.1708500   -0.4032440  
C    -2.9728750    1.9673900   -0.4512530  
N    -4.0216130    1.2095610   -0.3007990  
C    -2.9782400    3.3965050   -0.6220820  
C    -1.7812940    4.0106630   -0.7490970  
O    -1.6230010    5.3302560   -0.9049340  
C    -0.4731630    3.2451620   -0.7391650  
O     0.5475480    3.8982510   -0.9407910  
C    -0.4888310    1.7813070   -0.5206070  
H    -1.5111330   -1.0486610   -0.1112700  
H    -3.9153920    3.9408910   -0.6410170  
H    -0.6547950    5.4690530   -1.0111950  
C    -4.1663980   -2.5229480    0.2016700  
C    -4.4693300   -1.1900530    0.0426340  
C    -5.9346400   -1.0964240    0.1128130  
C    -6.4283510   -2.4775080    0.3233500  
N    -5.2995200   -3.2828650    0.3664860  
C    -7.7300260   -2.8353690    0.4434750  
C    -8.7421680   -1.7841190    0.3607450  
O    -9.9390770   -2.0037250    0.4561280  
C    -8.2472660   -0.3097070    0.1382210  
O    -9.0734480    0.5844110    0.0659130  
C    -6.8020550   -0.0573210    0.0239940  
H    -8.0589480   -3.8585700    0.5972810  
H    -6.4606100    0.9588650   -0.1296000  
H    -3.1942880   -2.9977880    0.2090830  
H    -5.3130530   -4.2830400    0.4982990  
C     3.6610370   -4.0441820    0.3852410  
C     4.8784470   -4.4353330   -0.0692210  
C     5.6611220   -3.2353430   -0.2806330  
C     4.7800720   -2.0961070    0.0836820  
N     3.5928050   -2.6585110    0.4916270  
C     5.1148200   -0.7619800    0.0292120  
C     6.5137190   -0.4987440   -0.3101150  
O     7.0488920    0.6052940   -0.1963950  
C     7.4334330   -1.6715770   -0.8171740  
O     8.5393610   -1.3906190   -1.2482170  
C     6.9306130   -3.0377020   -0.7234460  
H     5.2126760   -5.4500010   -0.2283620  
H     7.5855870   -3.8461290   -1.0318630  
H     2.8061600   -4.6452650    0.6655070  
H     2.7661300   -2.1207330    0.7066100  
