58


C     7.1165290   -2.7748130    0.1407140  
C     5.8810810   -2.2166890    0.0941000  
C     6.0554660   -0.7891580   -0.0692600  
C     7.5222900   -0.5602760   -0.1206500  
N     8.1062830   -1.8023440    0.0179480  
C     8.1189690    0.6473030   -0.2947100  
C     7.2670380    1.8164360   -0.4368140  
O     7.6983040    2.9447150   -0.6224640  
C     5.7096450    1.6166180   -0.3426660  
O     5.0007570    2.6068080   -0.3605910  
C     5.1640930    0.2409130   -0.2001610  
H     4.9403540   -2.7341290    0.1916560  
H     9.1951190    0.7806110   -0.3484370  
H     7.3964410   -3.8131810    0.2594210  
H     9.0986830   -1.9754940    0.0049850  
C     2.4907080   -1.4871440    2.8537540  
C     1.2666600   -1.2570720    2.3295340  
C     1.5158440   -0.5991440    1.0516760  
C     3.0114050   -0.5155120    0.9716880  
N     3.5695510   -1.0392440    2.0236440  
C     3.6981970    0.0776720   -0.1646340  
C     2.8977440    0.5367610   -1.1673700  
O     3.3688290    1.0732470   -2.3003610  
C     1.3973440    0.4766530   -1.1119470  
O     0.7835440    0.9842140   -2.0468780  
C     0.7146270   -0.1578990    0.0532110  
H     0.3004220   -1.4785380    2.7566280  
H     2.5758700    1.3599980   -2.8048620  
H     2.7341970   -1.9548020    3.8003180  
C    -2.2618300    1.4646020    2.8447030  
C    -3.4343490    1.1216550    2.2553140  
C    -3.0558320    0.4060940    1.0412970  
C    -1.5617900    0.4116560    1.0746300  
N    -1.1093500    1.0347780    2.1262260  
C    -0.7604260   -0.2201160    0.0406910  
C    -1.4494880   -0.8409340   -0.9561120  
O    -0.8614330   -1.5036110   -1.9576040  
C    -2.9528950   -0.8226980   -1.0444560  
O    -3.4506440   -1.2832500   -2.0643430  
C    -3.7628530   -0.1932360    0.0463530  
H    -4.4373620    1.2934650    2.6194800  
H    -1.5898050   -1.7806030   -2.5574800  
H    -2.1168290    1.9995820    3.7758720  
C    -6.8051710    3.0172980    0.0934690  
C    -7.9172750    2.2705710   -0.1180510  
C    -7.4953060    0.8877600   -0.2083160  
C    -6.0212610    0.8925530   -0.0266720  
N    -5.6690460    2.2106910    0.1468570  
C    -5.2240140   -0.2216960   -0.0800230  
C    -5.9048740   -1.5220860   -0.2543470  
O    -5.3157680   -2.5858110   -0.1748620  
C    -7.4559080   -1.5355460   -0.4909030  
O    -8.0062200   -2.6015940   -0.7110800  
C    -8.1802860   -0.2650530   -0.4300260  
H    -8.9300020    2.6346320   -0.2093740  
H    -9.2549240   -0.2889070   -0.5827530  
H    -6.7056060    4.0878810    0.2129870  
H    -4.7320700    2.5317440    0.3402120  
