60


C     0.4644590    1.6946150   -0.4916670  
C     1.7320600    1.1933370   -0.3856050  
C     1.6364010   -0.2214400   -0.1223730  
C     0.1965100   -0.5304520   -0.0708390  
N    -0.4632460    0.6632230   -0.2382490  
C    -0.3585230   -1.7916690    0.0482240  
C     0.6099810   -2.8960690    0.0598860  
O     0.3048470   -4.0778970   -0.0592270  
C     2.1298710   -2.5714770    0.2553140  
O     2.8551770   -3.4768730    0.6188740  
C     2.6061880   -1.1837260    0.0338620  
H     2.6479880    1.7598860   -0.4609750  
H    -1.4260400    0.6960180   -0.5504820  
C     0.6777430    3.9105340   -1.6340930  
C     0.0137110    3.0289480   -0.8193200  
C    -1.2013860    3.7104250   -0.3733170  
C    -1.1770010    5.0500600   -1.0093890  
N    -0.0024070    5.1010670   -1.7466870  
C    -2.1324120    5.9972750   -0.8550580  
C    -3.2756410    5.6952830    0.0090650  
O    -4.1860040    6.4827970    0.2020560  
C    -3.3088520    4.2964610    0.7218020  
O    -4.2368610    4.0285600    1.4651140  
C    -2.2081520    3.3563670    0.4667410  
H    -2.0906530    6.9732560   -1.3285800  
H    -2.2378520    2.4070960    0.9916490  
H     1.6046420    3.7580770   -2.1711750  
H     0.2728550    5.8714270   -2.3371300  
C    -1.7873860   -2.0405070    0.0714010  
C    -2.8434600   -1.1916240    0.3533620  
C    -4.0608300   -1.9499200    0.2560200  
C    -3.6547520   -3.3298250   -0.1115490  
N    -2.2822990   -3.3109480   -0.2155670  
C    -4.5210230   -4.3590610   -0.2948730  
C    -5.9478720   -4.1046170   -0.1233240  
O    -6.8011690   -4.9674630   -0.2697160  
C    -6.4010540   -2.6491280    0.2671920  
O    -7.5935570   -2.4211020    0.4120420  
C    -5.3721980   -1.6247770    0.4385370  
H    -2.7804480   -0.1755480    0.7130680  
H    -4.2048850   -5.3624980   -0.5622570  
H    -5.6971010   -0.6249200    0.7110070  
H    -1.6577000   -4.0987730   -0.3426130  
C     5.0291830    1.5834060    2.5350580  
C     6.2538760    1.2679710    2.0096600  
C     6.0333790    0.2871470    0.9845600  
C     4.6355410    0.0498220    0.9278140  
N     4.0492690    0.8572590    1.8802560  
C     4.0478710   -0.9007200    0.0593760  
C     4.9296300   -1.5980080   -0.7763210  
O     4.4343590   -2.4768040   -1.6866690  
C     6.3263930   -1.3603400   -0.7366370  
O     7.0413870   -2.1206620   -1.6422420  
C     6.8840840   -0.4356370    0.1254620  
H     7.2046970    1.6791190    2.3194600  
H     3.0681080    0.8604700    2.1106680  
H     5.1924040   -2.9315250   -2.0945900  
H     7.9885420   -2.0459910   -1.4538550  
H     7.9597660   -0.2724240    0.1372190  
H     4.7629870    2.2717570    3.3246290  
