58


C    -0.9303690   -1.2015790    2.3235610  
C    -0.1159040   -0.1880750    1.9358840  
C    -0.7861250    0.5227470    0.8689910  
C    -2.0855300   -0.1673680    0.6726860  
N    -2.1149200   -1.1929590    1.5941300  
C    -3.0415980    0.1660570   -0.2473940  
C    -2.7520410    1.3404870   -1.0879980  
O    -3.5715420    1.8315800   -1.8439120  
C    -1.3500580    2.0309860   -0.9658530  
O    -1.0584660    2.8761780   -1.7927310  
C    -0.4282610    1.6159390    0.1208600  
H     0.8776800    0.0045720    2.3052310  
H    -0.7686290   -1.9606870    3.0771960  
H    -2.8565390   -1.8718380    1.6620140  
C     3.8200520    0.3364580    0.1188600  
C     4.4598290    1.5412680    0.1504610  
C     3.4091920    2.5367990    0.2400460  
C     2.1401870    1.7370130    0.2260360  
N     2.3866530    0.4630390    0.1592320  
C     0.8298550    2.3695980    0.2698560  
C     0.8327400    3.7311660    0.3916270  
O    -0.2801900    4.4602400    0.5213650  
C     2.0927260    4.5519560    0.4286170  
O     1.9747230    5.7712720    0.5415750  
C     3.3992590    3.8817240    0.3325870  
H     5.5249320    1.7245110    0.1681870  
H     0.0180340    5.3966240    0.5535040  
H     4.2861670    4.5076810    0.3438550  
C     7.1871410   -1.4747070   -2.1787370  
C     6.2842550   -0.5760020   -1.7130350  
C     5.4849170   -1.3090840   -0.7428100  
C     6.0640000   -2.6903660   -0.7704910  
N     7.0595730   -2.7779980   -1.6059450  
C     5.5292360   -3.7527790    0.0382020  
C     4.4743760   -3.4658470    0.8348590  
O     3.8835180   -4.3551210    1.6486640  
C     3.8824350   -2.0813230    0.9165870  
O     2.9988290   -1.9064040    1.7502150  
C     4.4227930   -0.9894850    0.0483190  
H     6.1590220    0.4558850   -2.0059600  
H     5.9708510   -4.7422300   -0.0024320  
H     3.1883440   -3.8491690    2.1240030  
H     7.9598920   -1.3140210   -2.9212410  
C    -6.4273610   -0.7833710    2.5085000  
C    -5.2584860   -0.3369170    1.9783160  
C    -5.2322440   -0.7412640    0.5854450  
C    -6.5050640   -1.4634500    0.3469710  
N    -7.1696020   -1.4763090    1.5604370  
C    -6.9059880   -1.9666370   -0.8489320  
C    -6.0219310   -1.8001890   -1.9938030  
O    -6.3036380   -2.1796920   -3.1198540  
C    -4.6277680   -1.1158250   -1.7572250  
O    -3.8134240   -1.1291170   -2.6607560  
C    -4.3188660   -0.5412290   -0.4170280  
H    -4.5026630    0.2369420    2.4926740  
H    -7.8584820   -2.4655530   -0.9989000  
H    -6.8132650   -0.6657720    3.5126060  
H    -8.1081340   -1.8190360    1.6939730  
