58


C     6.6786840    1.7083730   -1.1010580  
C     7.7926220    0.9759120   -1.3297530  
C     7.5743720   -0.3409300   -0.7719850  
C     6.2135530   -0.3158430   -0.1776490  
N     5.6930700    0.9501190   -0.4345220  
C     5.6635840   -1.3589990    0.5020980  
C     6.4287910   -2.5995590    0.6201490  
O     6.0012650   -3.5842590    1.2028190  
C     7.8507620   -2.6586370   -0.0421850  
O     8.4903860   -3.6957960    0.0192260  
C     8.3528020   -1.4516920   -0.7065910  
H     8.6871550    1.3152880   -1.8314850  
H     4.7051360   -1.3093250    1.0061840  
H     9.3545240   -1.4877900   -1.1239100  
H     6.4637690    2.7361820   -1.3500950  
C     1.7291570   -0.7857740   -0.9009780  
C     0.9728440    0.1849310   -0.2991510  
C     1.9126750    1.2401330    0.1074410  
C     3.2548910    0.7690560   -0.3036010  
N     3.0667510   -0.4423520   -0.9343880  
C     4.4235460    1.4428110   -0.0709410  
C     4.3333580    2.7556250    0.5887550  
O     5.3076100    3.4616810    0.7885240  
C     2.9152850    3.2586250    1.0377320  
O     2.8410210    4.3323890    1.6086820  
C     1.7461380    2.4261190    0.7459420  
H     0.7770980    2.8105150    1.0373990  
H     1.3997880   -1.7076650   -1.3608040  
H     3.8137220   -1.0490780   -1.2412120  
C    -1.7234940   -3.1020700    0.9556270  
C    -0.6435010   -2.3253490    0.6904890  
C    -1.1333790   -1.0352230    0.2508670  
C    -2.6049820   -1.1309240    0.2733390  
N    -2.8997440   -2.4108450    0.6670820  
C    -3.4920980   -0.1084910   -0.0157070  
C    -2.8751310    1.2025210   -0.2320440  
O    -3.4971660    2.2572950   -0.2808220  
C    -1.3175040    1.2966970   -0.4161620  
O    -0.8648260    2.3549310   -0.8139060  
C    -0.4740380    0.1170760   -0.1183460  
H     0.3896810   -2.6064630    0.8244790  
H    -1.7726260   -4.1148860    1.3314130  
H    -3.8243260   -2.6938960    0.9614830  
C    -4.9318370   -0.2771500   -0.0405230  
C    -5.6910010   -1.4251670   -0.1864770  
C    -7.0765730   -1.0442570   -0.1767400  
C    -7.0949460    0.4304970   -0.0103120  
N    -5.7767710    0.8233850    0.0765910  
C    -8.2251570    1.1800160    0.0388990  
C    -9.5139290    0.5023570   -0.0781140  
O   -10.5823770    1.0935790   -0.0442350  
C    -9.5180330   -1.0607610   -0.2556470  
O   -10.5882650   -1.6431090   -0.3535210  
C    -8.2326520   -1.7570420   -0.2945470  
H    -5.3253430   -2.4178390   -0.4044220  
H    -8.2201450    2.2587170    0.1596750  
H    -8.2479220   -2.8356860   -0.4198090  
H    -5.4136910    1.7688140    0.0766490  
