60


C     0.6589780    1.2951240   -0.1900690  
C     1.7299110    0.4232920   -0.1633940  
C     1.2120340   -0.9020460   -0.0522720  
C    -0.2022340   -0.7858960   -0.0160400  
N    -0.5163780    0.5559470   -0.0519420  
C    -1.0803000   -1.8965950   -0.0116390  
C    -0.4411770   -3.1409740   -0.1116270  
O    -1.1655990   -4.2894630   -0.1725350  
C     0.9734570   -3.2831850   -0.1263330  
O     1.3745860   -4.5920050   -0.1681720  
C     1.8347640   -2.1887970   -0.0430150  
H     2.7685640    0.7160740   -0.1916490  
H    -1.4214040    0.8891210   -0.3589660  
H    -0.5060760   -5.0104100   -0.2574730  
H     2.1423510   -4.6391290   -0.7922100  
C     4.8605700   -0.3902100    2.6674920  
C     3.7073460   -0.8062390    2.0732620  
C     4.0707150   -1.6314400    0.9488200  
C     5.5568170   -1.6668220    0.9380140  
N     5.9687890   -0.8757000    1.9938080  
C     6.3128370   -2.3392490    0.0356450  
C     5.6130860   -3.1191010   -0.9736750  
O     6.1751090   -3.7329960   -1.8642470  
C     4.0445020   -3.1990560   -0.8941400  
O     3.5059510   -4.0401840   -1.6147900  
C     3.3085630   -2.3179040    0.0223520  
H     2.7057850   -0.5715820    2.3965230  
H     7.3973790   -2.3137780    0.0143280  
H     4.9911000    0.2293700    3.5449640  
H     6.9282720   -0.7458060    2.2751070  
C    -2.5270060   -1.7439720    0.0603040  
C    -3.2708950   -0.6831310    0.5321980  
C    -4.6638860   -1.0190170    0.4020390  
C    -4.7009000   -2.3761720   -0.1968550  
N    -3.3872330   -2.7447440   -0.3932330  
C    -5.8397960   -3.0616390   -0.4706020  
C    -7.1205840   -2.4322000   -0.1602760  
O    -8.1958700   -2.9731760   -0.3692630  
C    -7.1054700   -0.9917530    0.4725430  
O    -8.1690900   -0.4511670    0.7373850  
C    -5.8112480   -0.3566810    0.7192700  
H    -2.8862970    0.2015850    1.0164550  
H    -5.8479790   -4.0549640   -0.9085000  
H    -5.8145640    0.6367550    1.1579560  
H    -3.0615940   -3.6638370   -0.6556870  
C     0.6361220    2.7297170   -0.2931400  
C     1.5820550    3.5865670   -0.7928910  
C     1.0872890    4.9299980   -0.6572720  
C    -0.2490310    4.8126040   -0.0254680  
N    -0.5042340    3.4501430    0.1134750  
C    -1.0226590    5.8649350    0.3297930  
C    -0.5311880    7.2150660    0.0460980  
O    -1.1608050    8.2203670    0.3335610  
C     0.8619810    7.3625010   -0.6673210  
O     1.2789920    8.4836180   -0.9191720  
C     1.6072600    6.1464390   -0.9851080  
H     2.5101920    3.2942910   -1.2629170  
H    -1.9958440    5.7629850    0.8005710  
H     2.5763560    6.2595520   -1.4614960  
H    -1.1105300    3.1053160    0.8459500  
