60


C     0.0213910    1.6136410   -0.0022350  
C    -1.1476290    0.8500380    0.1087290  
C    -0.7889170   -0.5161420    0.0817010  
C     0.6362680   -0.5602050   -0.0223760  
N     1.0892080    0.7280640   -0.0810920  
C     1.3769200   -1.7574470   -0.0478480  
C     0.6216190   -2.9238800    0.0774330  
O     1.2392830   -4.1198850    0.1305910  
C    -0.8044810   -2.9107400    0.2014780  
O    -1.3382740   -4.1660670    0.3090960  
C    -1.5444190   -1.7327370    0.1610540  
H    -2.1384640    1.2506720    0.2452630  
H     2.0513390    1.0391240   -0.0905780  
H     0.5305590   -4.7862110    0.2355070  
H    -2.0643240   -4.1161430    0.9780280  
C    -4.5450600    0.2992190   -2.4128120  
C    -3.4050230   -0.2232070   -1.8840690  
C    -3.7738030   -0.9642860   -0.7008830  
C    -5.2491250   -0.8318460   -0.5846500  
N    -5.6482260   -0.0360750   -1.6401990  
C    -6.0078200   -1.3845950    0.3957140  
C    -5.3280840   -2.2044210    1.3828610  
O    -5.8843930   -2.7223920    2.3373150  
C    -3.7883020   -2.4675740    1.1922900  
O    -3.2965620   -3.3501950    1.8954680  
C    -3.0245900   -1.6998150    0.1960560  
H    -2.4101510   -0.1193000   -2.2867540  
H    -7.0779720   -1.2326080    0.4908670  
H    -4.6732910    0.8962120   -3.3060580  
H    -6.6058070    0.1912120   -1.8580960  
C     4.7324600   -0.0935820    2.3573530  
C     3.5089560   -0.4589350    1.8944110  
C     3.7152290   -1.1976730    0.6646560  
C     5.1838460   -1.2395220    0.4539990  
N     5.7386130   -0.5385650    1.5075950  
C     5.8053230   -1.8735870   -0.5730820  
C     4.9784850   -2.5637460   -1.5525000  
O     5.4373700   -3.1907380   -2.4950400  
C     3.4155470   -2.4873210   -1.3921540  
O     2.7195500   -2.9653060   -2.2691140  
C     2.8446940   -1.8000090   -0.2035870  
H     2.5594410   -0.2478690    2.3621570  
H     6.8839380   -1.9057630   -0.6920500  
H     4.9891520    0.4630030    3.2490050  
H     6.7277340   -0.4289750    1.6667590  
C    -2.6959500    5.1552510   -0.5447990  
C    -2.2434870    3.8720050   -0.5472440  
C    -0.8309910    3.9594910   -0.2035120  
C    -0.6019590    5.4058180   -0.0402180  
N    -1.6950240    6.1061280   -0.2263740  
C     0.6945430    5.9517420    0.2749660  
C     1.7328030    5.0942570    0.3893840  
O     3.0042850    5.4765530    0.6407420  
C     1.5520610    3.6244590    0.2193270  
O     2.5754090    2.9314610    0.2870240  
C     0.1814350    3.0434330   -0.0151510  
H    -2.7998380    2.9835910   -0.8069410  
H     0.8178460    7.0234020    0.3872200  
H     3.5298130    4.6495610    0.6367770  
H    -3.6969730    5.5072700   -0.7650340  
