60


C     3.4127570   -0.2361500    1.0405340  
C     2.7247990   -1.2237970    0.3678190  
C     3.7249680   -2.2182780   -0.0303250  
C     5.0254420   -1.7291660    0.4969620  
N     4.7503800   -0.5373420    1.1405610  
C     6.2203660   -2.3504890    0.3390430  
C     6.2595730   -3.5923520   -0.4258950  
O     7.2856660   -4.2256890   -0.6218520  
C     4.9087740   -4.1142790   -1.0312710  
O     4.9168490   -5.1396590   -1.6950710  
C     3.6810570   -3.3516460   -0.7798050  
H     7.1511950   -1.9599090    0.7390350  
H     2.7616120   -3.7449760   -1.1918980  
H     3.0281080    0.6878040    1.4486960  
H     5.4388200    0.0550570    1.5798570  
C     0.1711450    2.2556730    0.0124450  
C    -1.0593000    1.6870090   -0.2406780  
C    -0.8381620    0.2599700   -0.2470820  
C     0.6131280    0.1105990   -0.0051980  
N     1.1930190    1.2686390    0.1236600  
C     1.2902350   -1.1849410    0.1065420  
C     0.4647030   -2.2710290    0.0079380  
O     0.8834780   -3.5450170    0.1677770  
C    -0.9934310   -2.1738020   -0.2647270  
O    -1.6176760   -3.2288310   -0.3994710  
C    -1.6462080   -0.8337270   -0.3780990  
H    -2.0240220    2.1743190   -0.2672260  
H     0.0878580   -4.0986350    0.0032380  
C    -1.5379110    5.8630090   -1.7937550  
C    -0.7445930    6.8049840   -1.2242490  
C     0.1871440    6.1142550   -0.3570630  
C    -0.1414790    4.6767320   -0.4593980  
N    -1.2122190    4.5929990   -1.3207590  
C     0.5307030    3.6514390    0.1682330  
C     1.6487450    4.0606180    1.0560060  
O     2.2657430    3.2932570    1.7730420  
C     2.0378030    5.5858590    1.1315890  
O     3.0169340    5.9002440    1.7894430  
C     1.2166300    6.5572640    0.4154460  
H    -0.7920170    7.8717650   -1.3870560  
H     1.4823140    7.6066800    0.4972410  
H    -2.3436850    5.9788500   -2.5062930  
H    -1.5330170    3.7205910   -1.7156950  
C    -3.4814830    0.1389810   -1.6903880  
C    -4.8350370    0.0366240   -1.7792450  
C    -5.2578000   -0.9440490   -0.8136810  
C    -4.0965020   -1.4341760   -0.1698800  
N    -2.9931150   -0.7575240   -0.7258620  
C    -4.1640730   -2.3529910    0.8818560  
C    -5.4183150   -2.8121140    1.2572680  
O    -5.5263660   -3.7187700    2.2689750  
C    -6.5881080   -2.3500730    0.6021840  
O    -7.7562980   -2.8991330    1.0861030  
C    -6.5200130   -1.4218050   -0.4217710  
H    -5.4671160    0.5779350   -2.4703340  
H    -3.2906000   -2.7398270    1.3887380  
H    -6.4704050   -3.9276520    2.3746530  
H    -8.5097500   -2.5684050    0.5749300  
H    -7.4269430   -1.0598580   -0.9015400  
H    -2.7788060    0.7187190   -2.2692390  
