60


C    -2.7473510   -3.3742630   -0.1447160  
C    -3.8739070   -2.5958600   -0.0881510  
C    -3.4565420   -1.2275050   -0.2270260  
C    -2.0472340   -1.2478670   -0.3895630  
N    -1.6456470   -2.5656480   -0.3346620  
C    -1.2537450   -0.0915780   -0.5744110  
C    -1.9707390    1.1100960   -0.6172200  
O    -1.3242530    2.2895450   -0.8271040  
C    -3.3813620    1.1591370   -0.4807410  
O    -3.8881440    2.4359690   -0.5510360  
C    -4.1546000    0.0169890   -0.2494940  
H    -4.8838940   -2.9583870    0.0304770  
H    -0.6831080   -2.8661240   -0.3319300  
H    -2.0338040    2.9617740   -0.8827670  
H    -4.6935310    2.3906720   -1.1196450  
H    -2.6367510   -4.4473400   -0.0786570  
C     0.8938320   -1.1101940   -1.4711380  
C     0.1948420   -0.1751370   -0.7637490  
C     1.2520410    0.6779260   -0.1730510  
C     2.5285140    0.0793260   -0.6480970  
N     2.3023640   -0.9578960   -1.4073770  
C     3.8389980    0.6164440   -0.2807550  
C     3.8117660    1.7251000    0.5218440  
O     4.9146120    2.3969620    0.9114380  
C     2.5481120    2.3244600    1.0320560  
O     2.6332490    3.3222690    1.7526730  
C     1.2459450    1.7406180    0.6488160  
H     4.5767430    3.1328730    1.4704880  
H     0.3500680    2.2272870    1.0149100  
H     0.4906000   -1.9042990   -2.0887790  
C     5.1604080   -0.6609180   -1.9875550  
C     5.0568530   -0.0248360   -0.7764110  
C     6.3568750   -0.1894930   -0.1188830  
C     7.2106360   -0.9446240   -1.0721700  
N     6.4231750   -1.1817790   -2.1822670  
C     8.4950340   -1.3187140   -0.8470720  
C     9.1002730   -0.9808980    0.4361570  
O    10.2488390   -1.2735030    0.7328390  
C     8.2105940   -0.2167850    1.4800420  
O     8.6854340    0.0585790    2.5710640  
C     6.8363930    0.1400840    1.1091760  
H     9.0889620   -1.8712160   -1.5689150  
H     6.2529130    0.6855860    1.8388120  
H     4.3932140   -0.7912100   -2.7352910  
H     6.7147630   -1.7036580   -2.9941500  
C    -6.7596290   -1.6741520    2.9261640  
C    -5.7054950   -1.2546530    2.1770630  
C    -6.2371290   -0.5646190    1.0246660  
C    -7.7143240   -0.6137680    1.1695400  
N    -7.9634270   -1.3197360    2.3293050  
C    -8.6033680   -0.0743880    0.2962010  
C    -8.0658410    0.6402050   -0.8468550  
O    -8.7528870    1.1338260   -1.7267290  
C    -6.5043620    0.8196050   -0.9400070  
O    -6.0986160    1.6220580   -1.7796580  
C    -5.6180390    0.0704370   -0.0324730  
H    -4.6615770   -1.4043070    2.4016340  
H    -9.6800420   -0.1654370    0.3961600  
H    -6.7620990   -2.2111280    3.8654740  
H    -8.8782650   -1.4663460    2.7261590  
