58


C    -3.2367240    1.4668920   -1.5748480  
C    -3.6331840    2.7586880   -1.4875560  
C    -4.7495870    2.8084160   -0.5676170  
C    -4.9806700    1.4132540   -0.1203520  
N    -4.0280010    0.6241280   -0.7809340  
C    -5.9118850    1.0580140    0.7959980  
C    -6.7760200    2.1014520    1.3527030  
O    -7.6416490    1.8667250    2.1802810  
C    -6.5700650    3.5794660    0.8640440  
O    -7.2860400    4.4599810    1.3133730  
C    -5.5058370    3.8391320   -0.1085930  
H    -3.2094080    3.5965650   -2.0224450  
H    -6.0707930    0.0400520    1.1305960  
H    -5.3484800    4.8664050   -0.4230880  
H    -2.4507800    1.0231370   -2.1705740  
C    -0.4896230   -1.8992250    0.1217390  
C    -1.2951800   -0.7916510   -0.0855790  
C    -2.5948090   -1.3132490   -0.4085160  
C    -2.4090890   -2.7949400   -0.4053780  
N    -1.1910440   -3.1299410   -0.0930180  
C    -3.4886910   -3.7014190   -0.6991150  
C    -4.7057010   -3.1674540   -0.9491580  
O    -5.8045370   -3.8878700   -1.2121200  
C    -4.9427370   -1.6767950   -0.9691880  
O    -6.0679840   -1.2885760   -1.2756750  
C    -3.8187990   -0.7620680   -0.6616400  
H    -1.0662910    0.2404070    0.1431470  
H    -3.3151710   -4.7712890   -0.6896800  
H    -6.5180470   -3.2342310   -1.3834190  
C     2.7487700    0.8699260   -0.8288840  
C     3.8075740    0.2432480   -0.2365550  
C     3.2605760   -0.9719090    0.3809040  
C     1.8094510   -0.9646210    0.1090210  
N     1.5642960    0.1782780   -0.6102360  
C     0.9094660   -1.9459140    0.4767000  
C     1.4574940   -3.0522710    1.3037350  
O     0.7674710   -3.8857990    1.8556330  
C     3.0056900   -3.0973650    1.5533230  
O     3.4772190   -4.0516600    2.1464370  
C     3.8360660   -1.9824650    1.0810430  
H     4.9015370   -2.0383120    1.2679570  
H     2.7430680    1.7772230   -1.4175210  
H     0.6897950    0.3456540   -1.0888500  
C     5.5500600    4.2462280    0.5667960  
C     4.7113830    3.1838610    0.4369870  
C     5.5087820    2.0467270    0.0300170  
C     6.9038460    2.5431660   -0.0628230  
N     6.8534620    3.8873520    0.2546220  
C     7.9831940    1.7865020   -0.3882380  
C     7.7674150    0.3747070   -0.6621360  
O     8.6657390   -0.4034210   -0.9402670  
C     6.2965500   -0.1817560   -0.5931230  
O     6.1157090   -1.3585000   -0.8572960  
C     5.1882310    0.7356000   -0.2308660  
H     3.6501580    3.1866830    0.6326210  
H     8.9944280    2.1768640   -0.4443970  
H     5.3277500    5.2615710    0.8673180  
H     7.6581510    4.4904470    0.3252950  
