60


C     1.2175610    0.6653140   -0.0060000  
C     0.8618770   -0.6739070   -0.0645110  
C     2.0708410   -1.4074110   -0.3915990  
C     3.1039990   -0.4482430   -0.5078430  
N     2.5481050    0.7987530   -0.2779870  
C     4.4259610   -0.7920870   -0.8482190  
C     4.6901680   -2.1410070   -1.0878400  
O     5.9476250   -2.5294470   -1.4260520  
C     3.6509430   -3.1037230   -1.0099700  
O     4.0743460   -4.3785080   -1.3029750  
C     2.3554580   -2.7589960   -0.6679340  
H     3.0760420    1.6555280   -0.1871710  
H     5.9331060   -3.4955490   -1.5489590  
H     3.3387630   -5.0048860   -1.2289510  
H     1.5754510   -3.5153970   -0.6567250  
H     0.6132400    1.5236410    0.2496180  
C    -0.4601430   -1.1846730    0.1764740  
C    -1.6892070   -0.5681580    0.0248590  
C    -2.7113930   -1.4810580    0.4139590  
C    -2.0087970   -2.7204820    0.8128280  
N    -0.6539350   -2.4935190    0.6141580  
C    -2.6025920   -3.8435960    1.2827820  
C    -4.0570990   -3.8707320    1.3359530  
O    -4.6937810   -4.8236340    1.7534000  
C    -4.8416180   -2.6223830    0.7979190  
O    -6.0594130   -2.7418900    0.7041980  
C    -4.1020250   -1.3963890    0.4402840  
H    -1.8320090    0.4017810   -0.4229690  
H    -2.0559510   -4.7257890    1.6010680  
H     0.0648400   -3.0257680    1.0832200  
C    -4.8289830   -0.1769600    0.1397510  
C    -4.3972030    1.1376270    0.1164700  
C    -5.5196340    1.9723220   -0.1958620  
C    -6.6780920    1.0579370   -0.3579230  
N    -6.1933430   -0.2133330   -0.1582590  
C    -7.9395490    1.4689100   -0.6482860  
C    -8.1840650    2.8973070   -0.8194550  
O    -9.2847800    3.3588270   -1.0840390  
C    -6.9691850    3.8844700   -0.6567720  
O    -7.1585320    5.0845320   -0.8015840  
C    -5.6593880    3.3225240   -0.3391490  
H    -3.4106380    1.4927670    0.3657670  
H    -8.7763180    0.7866120   -0.7607680  
H    -4.8290710    4.0132520   -0.2249570  
H    -6.7265050   -1.0685340   -0.0562280  
C     6.2563790    0.3445760   -2.1205570  
C     7.1298120    1.3658500   -1.9633400  
C     6.9176550    1.9213140   -0.6432830  
C     5.8287240    1.1200260   -0.0289450  
N     5.4455450    0.1804910   -0.9823680  
C     5.3582330    1.3129390    1.2321490  
C     5.9388310    2.3881400    2.0362320  
O     5.5749430    2.6308590    3.1761300  
C     7.0745670    3.2632010    1.3942980  
O     7.5572870    4.1768220    2.0429690  
C     7.5111060    2.9391730    0.0320880  
H     7.8564700    1.7035770   -2.6879470  
H     4.6009470    0.6869590    1.6916690  
H     8.3138390    3.5338390   -0.3932920  
H     6.1127890   -0.3202270   -2.9599150  
