60


C     1.0631770   -1.5336730   -0.3396540  
C     1.5301550   -2.7943120   -0.0685680  
C     2.9623250   -2.7059860   -0.0421000  
C     3.3097050   -1.3581840   -0.3138550  
N     2.1279300   -0.6613880   -0.5214280  
C     4.6431050   -0.9013650   -0.3958790  
C     5.6285510   -1.8785450   -0.2180510  
O     6.9490260   -1.5356840   -0.3029540  
C     5.2947050   -3.2302160    0.0482930  
O     6.3965820   -4.0496140    0.1984670  
C     3.9838090   -3.6565510    0.1396780  
H     0.9267170   -3.6828170    0.0490410  
H     2.0451390    0.3451830   -0.4830350  
H     7.4624650   -2.3310880   -0.0746310  
H     6.1156180   -4.9209990    0.5149310  
H     3.7515820   -4.7008750    0.3347860  
C    -0.7122570   -0.2618760   -1.5268680  
C    -2.0306570    0.0256280   -1.3918220  
C    -2.4958120   -0.6257780   -0.1876620  
C    -1.3165350   -1.3144290    0.3891620  
N    -0.2482310   -1.0609140   -0.4749880  
C    -1.3193470   -2.0143570    1.5503920  
C    -2.5717040   -2.1121570    2.2928020  
O    -2.6682390   -2.6909600    3.3629140  
C    -3.8531360   -1.4537850    1.6751530  
O    -4.9302380   -1.6512070    2.2083870  
C    -3.7189900   -0.6593720    0.4282340  
H    -2.6259260    0.6192000   -2.0686890  
H    -0.4335940   -2.4846070    1.9616690  
H    -0.0218010    0.0246780   -2.3089470  
C    -6.0716600   -0.7157770   -3.4013490  
C    -5.1137820   -0.9824270   -2.4804230  
C    -5.4546750   -0.1557650   -1.3275150  
C    -6.6994500    0.5578450   -1.7542570  
N    -7.0516010    0.2278200   -2.9653460  
C    -7.3928250    1.4671040   -0.8800960  
C    -6.8805310    1.6645160    0.3562050  
O    -7.4142280    2.4890690    1.2701450  
C    -5.6117710    0.9909220    0.8093130  
O    -5.1617270    1.3187560    1.9012690  
C    -4.9194010    0.0141320   -0.0911270  
H    -4.2803640   -1.6649100   -2.5623910  
H    -8.2939650    1.9655880   -1.2193560  
H    -6.8104330    2.4512070    2.0442820  
H    -6.1717160   -1.1368800   -4.3950270  
C     5.9506360    0.9381660   -1.5447010  
C     4.9939620    0.5011740   -0.6708980  
C     4.4234360    1.6987140   -0.0630500  
C     5.1079280    2.8576850   -0.6941860  
N     6.0175120    2.3210560   -1.5842960  
C     4.8571430    4.1572520   -0.3994930  
C     3.8495340    4.4604890    0.6147210  
O     3.5437690    5.5997460    0.9288470  
C     3.1418230    3.2544400    1.3309150  
O     2.3164650    3.4837470    2.2006060  
C     3.5001320    1.8928930    0.9208320  
H     5.3750340    4.9864960   -0.8718830  
H     3.0338290    1.0743980    1.4603230  
H     6.6128300    0.3446240   -2.1588360  
H     6.6784820    2.8555320   -2.1261330  
