62


C     1.6208210    2.1014320    0.0201110  
C     2.1656470    0.8776970    0.3273690  
C     3.4544210    0.7881990   -0.3046780  
C     3.6603200    2.0118480   -0.9888130  
N     2.5629140    2.8296920   -0.7332270  
C     4.8082220    2.2899780   -1.7324360  
C     5.7836210    1.3039720   -1.7834330  
O     6.9162360    1.5073390   -2.5130860  
C     5.6169930    0.0853990   -1.0818380  
O     6.6830280   -0.7851970   -1.2144950  
C     4.4725000   -0.2016590   -0.3341750  
H     1.7098790    0.1495040    0.9814450  
H     2.2657350    3.5436090   -1.3875050  
H     4.9582390    3.2246900   -2.2626490  
H     7.4422710    0.6902830   -2.4570680  
H     6.3751490   -1.6813350   -0.9952740  
C    -2.6178260    0.5417840    0.2124020  
C    -1.2474770    0.6722600    0.0270460  
C    -0.8731610    1.9894760    0.4239440  
C    -2.0615630    2.6462910    0.8517410  
N    -3.1039880    1.7578730    0.6923220  
C    -2.0864820    3.9695950    1.2977910  
C    -0.8837820    4.6605610    1.2995510  
O    -0.8426750    5.9502060    1.7353020  
C     0.3143450    4.0414220    0.8580540  
O     1.4177280    4.8669890    0.9303050  
C     0.3531590    2.7147180    0.4216870  
H    -0.6105330   -0.0892290   -0.3993580  
H    -4.0117920    1.8696980    1.1170710  
H    -2.9931610    4.4656090    1.6281440  
H     0.0856710    6.2389610    1.6853210  
H     2.2186980    4.3455120    0.7402690  
C    -3.1902190   -1.9035510   -0.1505010  
C    -3.4931510   -0.5726340   -0.0380550  
C    -4.9610710   -0.5139390   -0.2682420  
C    -5.3514190   -1.9332510   -0.4694590  
N    -4.3122120   -2.7243270   -0.4106130  
C    -6.7133500   -2.3129330   -0.7267490  
C    -7.6464600   -1.3321340   -0.8142680  
O    -8.9554900   -1.5510330   -1.0483880  
C    -7.2808520    0.1068470   -0.6609840  
O    -8.1728320    0.9523970   -0.7572830  
C    -5.8702750    0.4717350   -0.3956470  
H    -6.9653860   -3.3598370   -0.8559390  
H    -9.3657170   -0.6593460   -1.0649640  
H    -5.6536910    1.5339910   -0.3369250  
H    -2.2171960   -2.3715540   -0.0641030  
C     5.2760100   -2.0468530    1.2239910  
C     4.3526130   -1.4852470    0.3834370  
C     3.2149560   -2.4053130    0.3673070  
C     3.5583270   -3.5248670    1.2780540  
N     4.8290010   -3.2528390    1.7476310  
C     2.7455960   -4.5786640    1.5432140  
C     1.4351960   -4.6225730    0.8989170  
O     0.6402310   -5.5342930    1.0620450  
C     1.0407990   -3.4294760   -0.0456400  
O    -0.0840410   -3.3953980   -0.5222100  
C     2.0314030   -2.3804310   -0.2981650  
H     3.0202840   -5.3953090    2.2036740  
H     1.7620830   -1.5806050   -0.9790970  
H     6.2402180   -1.6543610    1.5207980  
H     5.3245920   -3.8092970    2.4266570  
