58


C    -2.1768880    5.3526720    1.5749320  
C    -1.2649540    6.3399300    1.3975280  
C    -0.1319450    5.7576410    0.7074530  
C    -0.4708000    4.3361390    0.4794430  
N    -1.7286250    4.1604050    1.0022490  
C     0.3557840    3.3985400   -0.1058630  
C     1.6770490    3.8940570   -0.5713360  
O     2.4680540    3.2192850   -1.2022130  
C     2.0595710    5.3950260   -0.2953000  
O     3.1732480    5.7797310   -0.6094020  
C     1.0662850    6.2736100    0.3236360  
H    -1.3562740    7.3677180    1.7169000  
H     1.3404000    7.3111320    0.4886920  
H    -3.1436320    5.3826930    2.0592960  
H    -2.1404230    3.2502600    1.1548070  
C    -0.0273090    2.0146480   -0.2767160  
C    -1.2849040    1.4760160   -0.4584940  
C    -1.0942230    0.0535680   -0.5217720  
C     0.3754240   -0.1392540   -0.3478420  
N     0.9790820    1.0028210   -0.2034440  
C     1.0143760   -1.4574570   -0.3125200  
C     0.1541090   -2.5245020   -0.4537080  
O     0.5184540   -3.8047930   -0.4811250  
C    -1.3298620   -2.3597380   -0.6582110  
O    -1.9866580   -3.3846710   -0.8438290  
C    -1.9350060   -1.0108630   -0.6624310  
H    -2.2147190    2.0039510   -0.6163580  
H    -0.3150720   -4.3079840   -0.6344900  
C     2.4515330   -1.5765270   -0.1543940  
C     3.3999410   -0.5906430   -0.2651110  
C     4.6676070   -1.2434470   -0.0287880  
C     4.3082820   -2.6732170    0.2304760  
N     3.0276410   -2.8671380    0.1565370  
C     5.3157770   -3.6626700    0.5236720  
C     6.6060340   -3.2552110    0.5490030  
O     7.6490720   -4.0599340    0.8032660  
C     6.9987040   -1.8196720    0.2858450  
O     8.1988050   -1.5484040    0.3327960  
C     5.9550280   -0.8277400   -0.0054990  
H     3.2355880    0.4529040   -0.4837040  
H     5.0301250   -4.6918500    0.7104280  
H     8.4401770   -3.4776050    0.7501330  
H     6.2720350    0.1948770   -0.1857510  
C    -3.8269080    0.0020190   -1.8922980  
C    -5.1798220   -0.0222630   -1.9132460  
C    -5.6160510   -0.9531740   -0.8947910  
C    -4.3842020   -1.4907940   -0.2675510  
N    -3.3054240   -0.8794180   -0.9300040  
C    -4.3848400   -2.3463370    0.7810920  
C    -5.6737500   -2.8078950    1.3051920  
O    -5.7602000   -3.5750970    2.2498890  
C    -6.9871730   -2.2832310    0.6251310  
O    -8.0678230   -2.6650530    1.0442160  
C    -6.8528630   -1.3330930   -0.4818150  
H    -5.8178260    0.5349340   -2.5842340  
H    -3.4868340   -2.7321920    1.2472860  
H    -7.7632720   -0.9464890   -0.9296430  
H    -3.1366100    0.5556200   -2.5138310  
