58


C    -4.1166640    0.0061440    0.1727840  
C    -4.5294740   -1.2561940    0.5679780  
C    -5.9174980   -1.3932810    0.2438760  
C    -6.3221130   -0.1110510   -0.3854210  
N    -5.1998050    0.6840210   -0.3883920  
C    -7.5728990    0.1523460   -0.8437190  
C    -8.5939860   -0.8827850   -0.7146630  
O    -9.7451130   -0.7358860   -1.0981450  
C    -8.1871720   -2.2499470   -0.0507870  
O    -9.0314270   -3.1276250    0.0643470  
C    -6.8084910   -2.4157160    0.4031670  
H    -3.9046650   -2.0355910    0.9736990  
H    -7.8518240    1.0953970   -1.3031620  
H    -6.5376330   -3.3637870    0.8584020  
H    -5.0804400    1.5851240   -0.8353600  
C    -0.4936480   -0.8112530    2.6419350  
C    -1.7549100   -0.8042280    2.1149250  
C    -1.7783330    0.1671670    1.0571430  
C    -0.4206990    0.7409770    1.0073700  
N     0.3093210    0.0942100    1.9891090  
C     0.0021080    1.7508550    0.1800640  
C    -1.0178450    2.2555040   -0.7679860  
O    -0.7457420    2.9679080   -1.7142100  
C    -2.5022690    1.7916570   -0.6072150  
O    -3.3493310    2.4418500   -1.2090740  
C    -2.8030060    0.6120240    0.2247550  
H    -2.5883890   -1.3800030    2.4816950  
H    -0.0991560   -1.3956610    3.4624820  
H     1.2884760    0.2555500    2.1685480  
C     4.1405070   -0.0008070   -0.0865720  
C     2.7716910    0.1819970   -0.0168720  
C     2.5151890    1.5879320    0.0859160  
C     3.8402910    2.2495330    0.0630690  
N     4.7733400    1.2401680   -0.0201210  
C     4.0440090    3.5922830    0.0861190  
C     2.8807490    4.4656470    0.1418440  
O     2.9536460    5.6839850    0.1172990  
C     1.4654840    3.8015160    0.2619180  
O     0.5101140    4.5105830    0.5190540  
C     1.3455290    2.3201940    0.1497150  
H     2.0523850   -0.6180470   -0.0713690  
H     5.0287450    4.0462560    0.0361070  
H     5.7704530    1.3647130   -0.1154380  
C     2.7986780   -4.2001240   -0.1977190  
C     3.9657680   -4.8562510   -0.3782530  
C     4.9873100   -3.8172420   -0.4152760  
C     4.2228380   -2.5408340   -0.2398270  
N     2.9526890   -2.7771050   -0.1065200  
C     4.8916560   -1.2342150   -0.2235930  
C     6.2577310   -1.2774640   -0.3554780  
O     7.0505420   -0.1895370   -0.3585900  
C     7.0354510   -2.5465780   -0.5231320  
O     8.2584390   -2.4401660   -0.6349470  
C     6.3278290   -3.8322460   -0.5489560  
H     4.1298240   -5.9201750   -0.4758710  
H     7.9660840   -0.5422440   -0.4760720  
H     6.9249450   -4.7305000   -0.6720570  
H     1.8004910   -4.6123350   -0.1186680  
