60


C     1.3995450   -1.5664160   -0.3010700  
C     0.6636300   -0.4578940    0.1059840  
C     1.6395840    0.5908450    0.3748740  
C     2.9161430    0.0487550    0.0913630  
N     2.7265850   -1.2565370   -0.3360350  
C     4.1317310    0.7361990    0.2793510  
C     4.0292170    2.0303380    0.7951330  
O     5.1496070    2.7787040    0.9635840  
C     2.7637080    2.5851730    1.1064100  
O     2.8331190    3.8716310    1.6026910  
C     1.5828600    1.8930100    0.9090530  
H     3.4710370   -1.9105770   -0.5263690  
H     4.8839280    3.6069370    1.4002100  
H     1.9462980    4.1700860    1.8533720  
H     0.6315290    2.3577700    1.1392580  
H     1.0447160   -2.5509040   -0.5572210  
C    -2.0791060   -3.7700010    0.8933020  
C    -3.2842660   -3.1513110    0.9278500  
C    -2.9939760   -1.7465130    0.6715760  
C    -1.5192530   -1.6931640    0.5091500  
N    -0.9973630   -2.8823230    0.6469950  
C    -0.7869810   -0.4488090    0.2234890  
C    -1.5813170    0.6587660    0.0659160  
O    -1.0983780    1.8824840   -0.2713510  
C    -3.0445330    0.6542680    0.2317750  
O    -3.6501810    1.7263230    0.1240290  
C    -3.7557070   -0.6299380    0.5370790  
H    -4.2561990   -3.6002290    1.0752050  
H    -1.8897340    2.4644300   -0.2917020  
H    -1.8662310   -4.8245010    1.0197860  
C    -5.7202660   -1.2862770    1.8712990  
C    -7.0674910   -1.1723560    1.8617230  
C    -7.4338410   -0.3921600    0.7004840  
C    -6.1652390   -0.0351270    0.0198330  
N    -5.1290640   -0.5975130    0.7961140  
C    -6.1106860    0.6320000   -1.1552200  
C    -7.3675210    1.0754570   -1.7687060  
O    -7.3979150    1.6811030   -2.8273410  
C    -8.7142560    0.7531350   -1.0331610  
O    -9.7661290    1.1318500   -1.5227950  
C    -8.6430650   -0.0122840    0.2127250  
H    -7.7464120   -1.5746090    2.6000010  
H    -5.1903330    0.8900040   -1.6620160  
H    -9.5769380   -0.2709000    0.7023560  
H    -5.0747030   -1.7780710    2.5851150  
C     5.7920330   -0.7348810   -3.5030950  
C     7.0080920   -1.1664720   -3.0793000  
C     7.0823700   -0.9183950   -1.6539760  
C     5.7874030   -0.3020280   -1.2782280  
N     5.0358060   -0.2492440   -2.4408670  
C     5.4433440    0.1262950   -0.0285390  
C     6.4477700   -0.0830400    1.0379890  
O     6.2348690    0.1798510    2.2077520  
C     7.8388030   -0.7137570    0.6527270  
O     8.6823790   -0.8415020    1.5265430  
C     8.0617090   -1.1234370   -0.7325180  
H     7.7801050   -1.6113080   -3.6901460  
H     9.0225330   -1.5627220   -0.9827190  
H     5.3721170   -0.7405250   -4.5005030  
H     4.1749650    0.2710060   -2.5246110  
