58


C     0.3086170    1.6464920   -0.4236900  
C     1.1925590    0.6111970   -0.3116290  
C     2.4688470    1.0796190   -0.7930970  
C     2.2634480    2.4883190   -1.1921650  
N     0.9332740    2.7950020   -0.9092290  
C     3.2106380    3.3003230   -1.7192540  
C     4.5553010    2.7606170   -1.8750860  
O     5.4902500    3.4095650   -2.3139950  
C     4.8164500    1.2719170   -1.4393650  
O     5.9369480    0.8186890   -1.5979320  
C     3.6970170    0.4666770   -0.8900810  
H     0.9899860   -0.3465840    0.1427850  
H     3.0283480    4.3314090   -2.0048880  
H     0.4332760    3.5374190   -1.3784700  
C    -1.8666550    0.5410130   -0.2519290  
C    -3.1574410    0.8057120    0.1205350  
C    -3.1965970    2.2071640    0.5356930  
C    -1.8163070    2.7266550    0.3800330  
N    -1.0487710    1.6590570   -0.1290050  
C    -1.4245240    3.9761140    0.7227650  
C    -2.4358530    4.9090190    1.2354870  
O    -2.1663200    6.0535840    1.5549750  
C    -3.9078460    4.3965100    1.3695270  
O    -4.7713410    5.1548950    1.7747940  
C    -4.1898730    3.0008100    1.0057820  
H    -0.4013560    4.3276700    0.6642230  
H    -5.2081580    2.6581410    1.1449240  
H    -1.4706400   -0.3862580   -0.6368720  
C     3.0950030   -1.9755410   -0.9412550  
C     3.9119760   -0.9442350   -0.5645480  
C     4.9942850   -1.5513420    0.2214930  
C     4.7132830   -3.0072900    0.2612490  
N     3.5466000   -3.1909480   -0.4597080  
C     5.4766600   -3.9318390    0.8958270  
C     6.6601360   -3.4741860    1.6169420  
O     7.4082910   -4.2275070    2.2203460  
C     6.9645260   -1.9330790    1.6171530  
O     7.9301620   -1.5205600    2.2376960  
C     6.0680630   -1.0376510    0.8712140  
H     5.2464970   -4.9928710    0.9027490  
H     6.3203100    0.0158050    0.8529620  
H     2.2077570   -1.9374250   -1.5594110  
H     3.1463060   -4.0888380   -0.6840420  
C    -4.1974540   -0.1822320    0.0540750  
C    -5.5326130   -0.1133290    0.3492180  
C    -6.0586550   -1.4300390    0.0834620  
C    -4.8704750   -2.2167210   -0.3867730  
N    -3.7917140   -1.4898620   -0.4032650  
C    -4.9831260   -3.6022560   -0.7584500  
C    -6.2064580   -4.1761280   -0.6685600  
O    -6.4645910   -5.4505490   -0.9781890  
C    -7.4254620   -3.4072530   -0.1973710  
O    -8.4884740   -4.0262070   -0.1542640  
C    -7.2854660   -1.9986200    0.1748420  
H    -6.1016020    0.7321640    0.7052210  
H    -4.1115790   -4.1518510   -1.0957940  
H    -7.4283440   -5.5674390   -0.8119630  
H    -8.1779230   -1.4778740    0.5073080  
