58


C     5.0443330   -1.0760210   -1.6289590  
C     6.1163310   -1.8949870   -1.5061760  
C     6.9204690   -1.3966410   -0.4118350  
C     6.2231930   -0.1923180    0.0997690  
N     5.0724890   -0.0353450   -0.6885250  
C     6.6430670    0.5267160    1.1672730  
C     7.8768460    0.1156890    1.8428940  
O     8.3176130    0.7002640    2.8190930  
C     8.6494060   -1.1345600    1.2909170  
O     9.6842120   -1.4834090    1.8362090  
C     8.0758630   -1.8442000    0.1449570  
H     6.3412300   -2.7510610   -2.1260980  
H     6.1310840    1.4045920    1.5417430  
H     8.5959700   -2.7265290   -0.2154320  
H     4.2333160   -1.1066630   -2.3436440  
C     0.6896680   -0.2933510   -0.4839850  
C     2.0394100   -0.5834740   -0.4979390  
C     2.7481060    0.6582400   -0.5560160  
C     1.7216560    1.7286600   -0.5758280  
N     0.5062130    1.0827850   -0.5494130  
C     1.9851990    3.0615870   -0.5899770  
C     3.3743660    3.4889620   -0.5961940  
O     3.7258490    4.6572400   -0.5586640  
C     4.4976080    2.3872510   -0.6540710  
O     5.6577160    2.7328250   -0.7857730  
C     4.0912090    0.9639360   -0.5819850  
H     2.4722100   -1.5713510   -0.4467430  
H     1.2106200    3.8212860   -0.5875300  
H    -0.4086270    1.5088280   -0.5070410  
C    -0.4568640   -1.1551140   -0.4041320  
C    -0.5324460   -2.5147570   -0.2784460  
C    -1.9424870   -2.8169470   -0.2304490  
C    -2.6231750   -1.4873790   -0.3505120  
N    -1.7496120   -0.5289280   -0.4452160  
C    -4.0816890   -1.3450500   -0.3349870  
C    -4.7711780   -2.5223800   -0.2025790  
O    -6.1140690   -2.6024010   -0.2011990  
C    -4.1141450   -3.8606510   -0.0765650  
O    -4.8496210   -4.8466210    0.0217780  
C    -2.6498150   -3.9600580   -0.0923450  
H     0.2791400   -3.2254350   -0.2086420  
H    -6.3094190   -3.5643120   -0.1106730  
H    -2.2114620   -4.9481100    0.0059840  
C    -4.1753200    1.0423450   -1.1576130  
C    -4.6915890   -0.0288140   -0.4751050  
C    -5.9533090    0.4936080    0.0953580  
C    -6.0085220    1.9083700   -0.3864280  
N    -4.9696770    2.2079470   -1.1206410  
C    -7.0869880    2.7937900   -0.0446070  
C    -8.0632040    2.3184630    0.7658490  
O    -9.1220180    3.0307400    1.1736520  
C    -8.0240590    0.9100370    1.2944160  
O    -8.9388310    0.5519680    2.0325200  
C    -6.9085020    0.0161140    0.9162010  
H    -7.0921570    3.8091980   -0.4247560  
H    -9.6426190    2.4257800    1.7471490  
H    -6.9362740   -0.9937050    1.3048050  
H    -3.2463260    1.0650310   -1.7089040  
