60


C     0.3603700    0.1605110    0.0238540  
C    -0.0355430    1.4508570   -0.3563900  
C     1.0949510    2.2978420   -0.2676940  
C     2.1898090    1.4868470    0.1587970  
N     1.7154940    0.2152430    0.3262040  
C     3.4909930    1.9918860    0.3718510  
C     3.6455170    3.3664790    0.1748440  
O     4.8585670    3.9514220    0.3828630  
C     2.5616030    4.1888820   -0.2507900  
O     2.9135140    5.5161800   -0.4034410  
C     1.3036180    3.6793640   -0.4819690  
H    -1.0132000    1.7374380   -0.7095140  
H     2.2279090   -0.6231620    0.5787410  
H     4.7719360    4.8870730    0.1265980  
H     2.1791950    6.0038260   -0.8049330  
H     0.4916020    4.3280620   -0.8031070  
C    -4.0320080   -0.8311770   -0.0562250  
C    -2.7992070   -0.1838900    0.0089260  
C    -1.7706100   -1.1647360    0.0404250  
C    -2.4611960   -2.4717380    0.0099680  
N    -3.8048960   -2.2021290   -0.0809870  
C    -1.8555690   -3.6895520    0.0669830  
C    -0.4183200   -3.7250430    0.2093760  
O     0.2422350   -4.7508980    0.2818070  
C     0.3515750   -2.3560000    0.2991030  
O     1.5522460   -2.4175480    0.5419970  
C    -0.3778720   -1.0749990    0.1080270  
H    -2.6660990    0.8752120    0.1411270  
H    -2.4008660   -4.6265340    0.0257180  
H    -4.5699320   -2.8613840    0.0014010  
C    -5.6905850    3.2330680   -0.9133590  
C    -4.8741810    2.1413890   -0.8195250  
C    -5.6636570    1.0459590   -0.3268240  
C    -7.0256850    1.5797310   -0.1511600  
N    -6.9679810    2.9188000   -0.4944360  
C    -8.1081240    0.8692790    0.2715700  
C    -7.9316740   -0.5441810    0.5359160  
O    -8.8242820   -1.2805150    0.9296020  
C    -6.5139280   -1.1693600    0.2853280  
O    -6.4244120   -2.3886310    0.3709660  
C    -5.3663470   -0.2856990   -0.0426870  
H    -3.8390670    2.1108270   -1.1177590  
H    -9.0913040    1.3059410    0.4152040  
H    -5.4612860    4.2319320   -1.2594930  
H    -7.7636960    3.5371170   -0.5241230  
C     5.5050110    1.3528570    1.7765870  
C     4.6210800    1.1327370    0.7607470  
C     5.0573720   -0.0951760    0.0976450  
C     6.2521090   -0.5701270    0.8397770  
N     6.4630350    0.3525100    1.8463030  
C     6.9601870   -1.6853730    0.5310290  
C     6.5455360   -2.4736990   -0.6261270  
O     7.1243810   -3.4881210   -0.9833690  
C     5.3090050   -1.9684680   -1.4546410  
O     4.9775030   -2.5806050   -2.4568840  
C     4.6094740   -0.7612900   -0.9993530  
H     7.8306510   -2.0135430    1.0909860  
H     3.7570930   -0.4292580   -1.5824910  
H     5.5309670    2.1776690    2.4750400  
H     7.2163180    0.3144550    2.5146420  
