62


C    -2.3914500   -0.0724730    2.0677150  
C    -1.4285440    0.8328700    1.7277460  
C    -1.8290510    1.4510010    0.4902410  
C    -3.0671070    0.8809450    0.1111820  
N    -3.3959040   -0.0468870    1.0967430  
C    -3.7699190    1.2480260   -1.0392450  
C    -3.1955460    2.2249310   -1.8380850  
O    -3.8188250    2.6196680   -2.9813110  
C    -1.9559220    2.8197090   -1.4802460  
O    -1.5138120    3.7667320   -2.3777030  
C    -1.2547720    2.4581210   -0.3281300  
H    -0.5274830    1.0398010    2.2867750  
H    -4.7131760    0.7964020   -1.3253670  
H    -3.2342370    3.2596200   -3.4245500  
H    -0.5846120    3.9779140   -2.1803500  
H    -2.4765310   -0.7473740    2.9068330  
C     2.9770150    0.8833250    0.0343620  
C     1.6024960    1.0117600   -0.1632960  
C     1.2690530    2.3704320    0.0583950  
C     2.4832020    3.0540570    0.3888920  
N     3.4886650    2.1303370    0.3666000  
C     2.5286010    4.4280360    0.6596840  
C     1.3347230    5.1246850    0.6005180  
O     1.3106100    6.4565920    0.8647960  
C     0.1117850    4.4643400    0.2691300  
O    -0.9788000    5.3020870    0.2684080  
C     0.0477530    3.1033300   -0.0062910  
H     0.9270920    0.2126460   -0.4325090  
H     4.4735030    2.2648100    0.5514070  
H     3.4457180    4.9486180    0.9131900  
H     0.3843770    6.7505940    0.8034750  
H    -1.7861590    4.7699580    0.1595700  
C    -5.7376030   -0.5135810    1.6716830  
C    -6.6240490   -1.5250890    1.5174020  
C    -5.9526550   -2.5942120    0.8003100  
C    -4.5722370   -2.1233120    0.5383160  
N    -4.5038210   -0.8458360    1.0910310  
C    -3.6150250   -2.8316700   -0.1054880  
C    -3.9614380   -4.1691640   -0.5868230  
O    -3.1708300   -4.8889900   -1.1752320  
C    -5.4218930   -4.6949520   -0.3280140  
O    -5.7290830   -5.8075380   -0.7239030  
C    -6.3608400   -3.8215060    0.3854460  
H    -7.6475060   -1.5373620    1.8634120  
H    -2.6126590   -2.4561290   -0.2804940  
H    -7.3647880   -4.1965710    0.5598330  
H    -5.8436760    0.4519240    2.1473810  
C     3.8620980   -0.2328210   -0.0450690  
C     3.6235240   -1.5525260   -0.3500270  
C     4.8964450   -2.2034910   -0.2723250  
C     5.8563890   -1.1067910    0.1062700  
N     5.2491940    0.0372980    0.2370100  
C     7.2603360   -1.3617740    0.2857230  
C     7.6891700   -2.6326760    0.1003870  
O     8.9592160   -3.0279920    0.2298050  
C     6.7462520   -3.7626630   -0.2820870  
O     7.2619460   -4.8760350   -0.4210150  
C     5.3316940   -3.4808520   -0.4580690  
H     2.6773870   -2.0119950   -0.5991400  
H     7.9341060   -0.5571860    0.5583680  
H     8.9394980   -3.9946200    0.0317810  
H     4.6839490   -4.3077210   -0.7313200  
