58


C     5.0071870    0.3158790    0.0886030  
C     5.2816060   -0.9777070   -0.2930300  
C     6.7095950   -1.1379130   -0.3155540  
C     7.2834310    0.1709720    0.0852320  
N     6.2122950    1.0001410    0.3140870  
C     8.6146140    0.4255210    0.1841990  
C     9.5520500   -0.6486860   -0.1200950  
O    10.7658780   -0.5155840   -0.0596020  
C     8.9660510   -2.0457630   -0.5470640  
O     9.7372390   -2.9579250   -0.8057630  
C     7.5115040   -2.1976180   -0.6176450  
H     4.5389350   -1.7231670   -0.5243100  
H     9.0168790    1.3899020    0.4788400  
H     7.1173840   -3.1652900   -0.9131100  
H     6.2598750    1.9652740    0.6034770  
C     0.9380450   -1.2396770   -0.3832140  
C     0.1542390   -0.1416890   -0.1570990  
C     1.1277690    0.9303910    0.1552290  
C     2.4608490    0.2668480    0.0290180  
N     2.3263590   -0.9875060   -0.2899890  
C     3.7235430    0.9763180    0.2592750  
C     3.5918010    2.2843820    0.6517120  
O     4.6249960    3.1083660    0.9236660  
C     2.2706020    2.9515820    0.8305420  
O     2.2808340    4.1295430    1.1979160  
C     1.0299900    2.2096040    0.5628410  
H     4.2022090    3.9634120    1.1785270  
H     0.0972140    2.7440760    0.6821920  
H     0.6026800   -2.2411030   -0.6048440  
C    -2.7256960   -3.3551020    0.5497500  
C    -3.9118890   -2.7268430    0.4049890  
C    -3.5779270   -1.3418250    0.0927330  
C    -2.0810130   -1.3156340    0.0956910  
N    -1.5979010   -2.4928350    0.3584440  
C    -1.3044200   -0.1012610   -0.1780380  
C    -2.0613400    0.9992740   -0.4736100  
O    -1.5481030    2.2052420   -0.7879800  
C    -3.5581470    1.0008120   -0.4830050  
O    -4.1093480    2.0775370   -0.7078460  
C    -4.3195620   -0.2523490   -0.2156870  
H    -4.9051310   -3.1343460    0.5150300  
H    -2.3348130    2.7802500   -0.9358000  
H    -2.5401950   -4.3954100    0.7868050  
C    -7.3768380   -1.2008570    2.8132860  
C    -8.5252610   -0.9037270    2.1649600  
C    -8.1101300   -0.4635680    0.8366100  
C    -6.6138840   -0.5660380    0.8711770  
N    -6.1954640   -0.9946150    2.0238240  
C    -5.7929380   -0.1995360   -0.2732420  
C    -6.4594510    0.2202470   -1.3857650  
O    -5.8571040    0.5421020   -2.5341090  
C    -7.9641980    0.3256950   -1.4424050  
O    -8.4586070    0.7152950   -2.4971210  
C    -8.7638350   -0.0355920   -0.2604500  
H    -9.5399180   -0.9684260    2.5321610  
H    -6.5787950    0.8165360   -3.1442500  
H    -9.8422950    0.0611730   -0.3393000  
H    -7.2553970   -1.5626130    3.8270720  
