62


C     1.6032660   -0.2844890   -1.4189800  
C     0.9994860    0.7123290   -0.6830150  
C     2.0647770    1.3739450    0.0453900  
C     3.2750770    0.7230550   -0.3039890  
N     2.9653830   -0.2726100   -1.2041780  
C     4.5178660    1.1059290    0.2381620  
C     4.5231310    2.1699480    1.1396870  
O     5.6995720    2.5865200    1.6847810  
C     3.3156500    2.8300750    1.4846530  
O     3.4980560    3.8610760    2.3820410  
C     2.0962510    2.4475090    0.9594910  
H     3.6179510   -0.9550590   -1.5596760  
H     5.4879460    3.3042990    2.3081670  
H     2.6382770    4.1995120    2.6738700  
H     1.1840320    2.9658550    1.2422020  
H     1.1597050   -0.9949450   -2.1018110  
C    -2.5884280   -1.8205370    0.1440470  
C    -1.3278600   -1.3521940   -0.0389270  
C    -1.4233340    0.0482790   -0.3719900  
C    -2.7958280    0.3915700   -0.3678200  
N    -3.5189790   -0.7859880   -0.0499900  
C    -3.2412720    1.6892940   -0.6257880  
C    -2.2727400    2.6492330   -0.8964990  
O    -2.6582020    3.9287650   -1.1688730  
C    -0.8990330    2.3214880   -0.9073010  
O    -0.0668760    3.3795980   -1.2095410  
C    -0.4424500    1.0263080   -0.6480650  
H    -0.4196510   -1.9295340    0.0610870  
H    -4.2898030    1.9483580   -0.6244490  
H    -1.8536810    4.4318480   -1.3836870  
H     0.8334640    3.0413190   -1.3492100  
H    -2.9303920   -2.8095850    0.4033110  
C    -4.8723980   -0.9622420    0.0673740  
C    -5.5505030   -2.1271060    0.3801450  
C    -6.9265670   -1.7675610    0.3715960  
C    -6.9287100   -0.2980940    0.0248410  
N    -5.7184450    0.1570830   -0.1495900  
C    -8.1439990    0.4539590   -0.0854300  
C    -9.3017520   -0.2150950    0.1363780  
O   -10.5140900    0.3337260    0.0738580  
C    -9.3383220   -1.7009570    0.4890620  
O   -10.4657480   -2.1770510    0.6637390  
C    -8.0978290   -2.4344440    0.5936840  
H    -5.1447300   -3.1052680    0.5879500  
H    -8.1190950    1.5084970   -0.3358700  
H   -11.1305660   -0.4106520    0.2835100  
H    -8.1528190   -3.4884880    0.8455250  
C     6.8626490    1.1134490   -0.6349390  
C     7.8633010    0.2398160   -0.8995510  
C     7.3930490   -1.0792510   -0.5361140  
C     6.0109570   -0.8962450   -0.0225720  
N     5.7291140    0.4619430   -0.1239370  
C     5.2339190   -1.9065580    0.4519580  
C     5.7731810   -3.2647510    0.4389080  
O     5.1437710   -4.2318430    0.8404760  
C     7.2249700   -3.4820950   -0.1229590  
O     7.6837310   -4.6130580   -0.1571980  
C     7.9710640   -2.3080880   -0.5831130  
H     8.8358930    0.4824330   -1.3024480  
H     4.2442810   -1.7532820    0.8680470  
H     8.9816720   -2.4654020   -0.9478700  
H     6.8308680    2.1863620   -0.7589970  
