62


C    -0.3388990   -1.6234680   -0.2784060  
C     1.0290760   -1.5660600   -0.0642850  
C     1.4041320   -0.1828090    0.0248980  
C     0.2096830    0.5700060   -0.1373530  
N    -0.8090050   -0.3249300   -0.3545740  
C     0.1503930    1.9754640   -0.0766520  
C     1.3636760    2.6073790    0.2214000  
O     1.4150370    3.9530040    0.3783150  
C     2.5736030    1.8822780    0.3923330  
O     3.6559710    2.6899840    0.6452920  
C     2.6418870    0.4928740    0.2562470  
H     1.6632770   -2.4238300    0.1086580  
H    -1.7814740   -0.0718030   -0.4122140  
H     2.3442860    4.1465230    0.6157560  
H     4.1973730    2.2383140    1.3382620  
C    -0.9497180   -4.0047380   -0.8849250  
C    -1.2499500   -2.7469920   -0.4039330  
C    -2.6596210   -2.7669530   -0.0685970  
C    -3.1481750   -4.0592060   -0.3836390  
N    -2.0807040   -4.7924430   -0.8670020  
C    -4.4855760   -4.4298950   -0.1943160  
C    -5.3486720   -3.4749200    0.3223340  
O    -6.6658390   -3.7768770    0.5101170  
C    -4.8712410   -2.1830650    0.6667170  
O    -5.8345390   -1.3434810    1.1963730  
C    -3.5472400   -1.8271210    0.4928110  
H    -2.1281250   -5.7455850   -1.1910740  
H    -4.8634860   -5.4173840   -0.4390080  
H    -7.0938740   -2.9776900    0.8634370  
H    -5.4923130   -0.4358660    1.2136340  
H    -3.2022600   -0.8543200    0.8337260  
H    -0.0130790   -4.3913600   -1.2603560  
C     4.2428380   -2.5779660   -2.4284840  
C     5.3997550   -2.8911480   -1.7909350  
C     5.4843540   -2.0427270   -0.6208040  
C     4.2596490   -1.2043530   -0.6281510  
N     3.5672540   -1.5608380   -1.7622940  
C     3.9199230   -0.2546000    0.3116830  
C     4.9365610   -0.0217380    1.3384590  
O     4.8889530    0.9004060    2.1551410  
C     6.1978740   -0.9616850    1.4269780  
O     6.9539860   -0.8203610    2.3746080  
C     6.4152420   -1.9345510    0.3643950  
H     6.1322140   -3.6212210   -2.1027330  
H     7.3054110   -2.5534910    0.4116010  
H     3.8274340   -2.9871940   -3.3400190  
H     2.6107400   -1.2812500   -1.9336840  
C    -3.8158960    1.7993220    1.8860190  
C    -4.4690590    2.8337010    1.3060880  
C    -3.5189400    3.3892000    0.3466350  
C    -2.2993610    2.5253200    0.4874500  
N    -2.4958530    1.5893630    1.3768390  
C    -1.0869750    2.7592770   -0.2852670  
C    -1.1518220    3.7871650   -1.1861440  
O    -0.1490880    4.1103840   -2.0111750  
C    -2.3645850    4.6557970   -1.3553540  
O    -2.3185100    5.5486150   -2.2012900  
C    -3.5615720    4.4096230   -0.5290860  
H    -5.4618600    3.2067300    1.5169270  
H    -0.4708560    4.8846100   -2.5241370  
H    -4.4158020    5.0627660   -0.6793780  
H    -4.1653070    1.1501240    2.6820520  
