60


C     2.0296960   -0.4773600    0.1664060  
C     3.3434240   -0.1101690   -0.0348100  
C     3.3295680    1.3281670   -0.2530190  
C     1.9803020    1.7480560   -0.2087090  
N     1.1907440    0.6210670    0.0690640  
C     1.5946400    3.0821460   -0.3694300  
C     2.5951870    4.0116680   -0.6056760  
O     2.2761270    5.3263850   -0.7688470  
C     3.9530600    3.6068660   -0.6702270  
O     4.8352740    4.6414100   -0.9049040  
C     4.3275610    2.2875060   -0.5004800  
H     0.5623240    3.4068640   -0.3402260  
H     3.1085480    5.8081890   -0.9154220  
H     5.7438070    4.3092420   -0.8481920  
H     5.3753440    2.0079950   -0.5108080  
H     1.6153920   -1.4515700    0.3780190  
C    -1.1561200   -1.0915850    3.3457610  
C    -0.1412570   -0.6446560    2.5608080  
C    -0.7393790   -0.0175450    1.4019790  
C    -2.2005330   -0.1285410    1.5771230  
N    -2.3878640   -0.7690340    2.7874740  
C    -3.1596140    0.3318230    0.7109620  
C    -2.6654070    0.9979870   -0.5000150  
O    -3.3966400    1.5148780   -1.3292380  
C    -1.1123360    1.0790310   -0.7533130  
O    -0.7260400    1.5116990   -1.8229790  
C    -0.1945960    0.5869160    0.2970480  
H     0.9145080   -0.7203250    2.7716580  
H    -1.1132270   -1.6083100    4.2952210  
H    -3.2828960   -1.1182190    3.0956790  
C    -5.2295630    0.6141110    2.1367530  
C    -4.5994000    0.2431230    0.9815790  
C    -5.6495320   -0.2617170    0.0901820  
C    -6.9241790   -0.1508740    0.8396880  
N    -6.5949530    0.3729450    2.0766170  
C    -8.1404850   -0.5125690    0.3586060  
C    -8.2135750   -1.0723270   -0.9871770  
O    -9.2592380   -1.4321160   -1.5057860  
C    -6.8717700   -1.2263020   -1.7913950  
O    -6.9029480   -1.7212770   -2.9058560  
C    -5.6214190   -0.7741170   -1.1648990  
H    -9.0607000   -0.4141800    0.9263460  
H    -4.7119040   -0.8524880   -1.7493310  
H    -4.8024010    1.0701250    3.0209200  
H    -7.2646750    0.6653790    2.7712520  
C     3.7836860   -4.1684920   -1.7741650  
C     3.3424890   -2.9296510   -1.4371860  
C     4.3775010   -2.2967640   -0.6431300  
C     5.4791050   -3.2819500   -0.5560580  
N     5.0447670   -4.4033560   -1.2324170  
C     6.6728520   -3.0773290    0.0658910  
C     6.8993550   -1.7877860    0.6829720  
O     7.9408470   -1.4701110    1.2405610  
C     5.7389700   -0.7201730    0.6275390  
O     5.9370260    0.3542420    1.1699120  
C     4.4599580   -1.0540180   -0.0557120  
H     2.4064960   -2.4842640   -1.7363720  
H     7.4612440   -3.8223150    0.1071510  
H     3.3036580   -4.9309890   -2.3728810  
H     5.6112280   -5.2182220   -1.4084810  
