60


C     2.1968010   -0.8283150   -1.2185500  
C     3.2965540   -0.4872080   -0.4466570  
C     2.9207010    0.7198350    0.2668750  
C     1.5943610    1.0369850   -0.1142690  
N     1.1857990    0.0823920   -1.0236280  
C     0.8914150    2.1682600    0.3602190  
C     1.5746610    2.9714740    1.2762820  
O     0.9568810    4.0515980    1.8214350  
C     2.8977350    2.6574180    1.6798760  
O     3.4213680    3.5505220    2.5942400  
C     3.5723550    1.5560270    1.1945340  
H     0.2837560    0.0656270   -1.4745030  
H     1.6199050    4.5177910    2.3615620  
H     4.3784030    3.4153920    2.6655830  
H     4.5963520    1.3623180    1.4930590  
H     2.0896580   -1.6173080   -1.9498410  
C    -3.0725020    0.0683830    0.2569210  
C    -1.7383760    0.3424390    0.4796350  
C    -1.5447270    1.6632380   -0.0417660  
C    -2.8924210    2.0558270   -0.5686990  
N    -3.7755050    1.1065430   -0.3909430  
C    -3.1422740    3.3335910   -1.1663500  
C    -2.0937270    4.1871260   -1.2395840  
O    -2.1582040    5.4110140   -1.7626060  
C    -0.6990850    3.8159620   -0.7483080  
O     0.1762670    4.6498500   -0.9657790  
C    -0.4664430    2.5083690   -0.1039620  
H    -0.9946070   -0.2607530    0.9765200  
H    -4.1308050    3.5900660   -1.5297400  
H    -1.2374550    5.7613520   -1.7052120  
C    -3.1930600   -2.1175020    1.3509540  
C    -4.0693870   -3.1237020    1.5607320  
C    -5.3204860   -2.7568970    0.9325310  
C    -5.1087030   -1.4213980    0.3238400  
N    -3.7674290   -1.0692090    0.6097040  
C    -6.0668890   -0.7520050   -0.3590630  
C    -7.3870960   -1.3806040   -0.5044540  
O    -8.3003490   -0.8419790   -1.1077380  
C    -7.6259490   -2.7907210    0.1358170  
O    -8.7174080   -3.3243090    0.0218980  
C    -6.5067030   -3.4105490    0.8497230  
H    -3.8746700   -4.0350360    2.1081810  
H    -5.9013950    0.2234520   -0.7941350  
H    -6.6673140   -4.3882820    1.2937360  
H    -2.1690350   -2.0263240    1.6808690  
C     4.0114380   -4.8081150   -0.4187900  
C     5.3697970   -4.8244300   -0.4276130  
C     5.8184980   -3.4484760   -0.4324190  
C     4.5948640   -2.6169030   -0.4337130  
N     3.5301720   -3.5053930   -0.4685170  
C     4.5501960   -1.2469650   -0.3961590  
C     5.8678000   -0.5750990   -0.3499370  
O     5.9971110    0.6379680   -0.3037880  
C     7.1852320   -1.4456140   -0.3666850  
O     8.2567230   -0.8599070   -0.3156200  
C     7.0627680   -2.8938740   -0.4211080  
H     6.0023780   -5.7001810   -0.4323430  
H     7.9725930   -3.4856750   -0.4283790  
H     3.3158120   -5.6370240   -0.4002160  
H     2.5819730   -3.2231120   -0.2669130  
