60


C    -1.0305330   -0.7250070    0.1358420  
C     0.1846200   -1.3874470    0.1808680  
C     1.2199560   -0.4109830    0.1045000  
C     0.5795730    0.8573300    0.0323730  
N    -0.7829910    0.6412600   -0.0010220  
C     1.2736710    2.0830120    0.0018870  
C     2.6645220    1.9799380    0.0774370  
O     3.4181520    3.0972360    0.1277360  
C     3.3340870    0.7217630    0.1431800  
O     4.6968920    0.8425700    0.1939520  
C     2.6477430   -0.4918320    0.1080230  
H     0.3021040   -2.4601760    0.2182740  
H    -1.4605580    1.3549370    0.2306000  
H     4.3468250    2.7947440    0.1792760  
H     5.0232400    0.1748670    0.8445430  
C    -2.3685950   -1.2423290    0.1662530  
C    -2.8431100   -2.4409450    0.6379570  
C    -4.2631870   -2.4777920    0.4277170  
C    -4.6145080   -1.1913850   -0.2209530  
N    -3.4389830   -0.4480690   -0.2955380  
C    -5.8583990   -0.8611760   -0.6409080  
C    -6.9456670   -1.8141950   -0.4106180  
O    -8.0975600   -1.5952350   -0.7517090  
C    -6.6060920   -3.1643540    0.3193390  
O    -7.5090560   -3.9632220    0.5270370  
C    -5.2204600   -3.4093850    0.7056650  
H    -2.2536520   -3.1971970    1.1365040  
H    -6.0975140    0.0812160   -1.1246890  
H    -4.9929190   -4.3530270    1.1922420  
H    -3.3014170    0.2328830   -1.0312930  
C    -1.7336490    4.0490110    2.5429790  
C    -1.9262640    5.1878260    1.8332320  
C    -1.0692860    5.1250990    0.6657140  
C    -0.3509550    3.8336020    0.7559300  
N    -0.8430390    3.1904730    1.8896570  
C     0.5973320    3.3901920   -0.1176800  
C     0.8828180    4.2684690   -1.2782290  
O     1.6300920    3.9427940   -2.1817770  
C     0.1466270    5.6560100   -1.3759950  
O     0.4272930    6.3998620   -2.3022100  
C    -0.8451980    5.9932870   -0.3562610  
H    -2.5983320    5.9952460    2.0858740  
H    -1.3539700    6.9486680   -0.4396070  
H    -2.1830590    3.7389920    3.4773810  
H    -0.3140620    2.4729290    2.3675320  
C     2.2125460   -4.0236610   -2.5480190  
C     2.1428630   -2.7889500   -1.9802090  
C     3.0120480   -2.7906720   -0.8282450  
C     3.6081280   -4.1510690   -0.7728880  
N     3.0612170   -4.8533080   -1.8289920  
C     4.4933220   -4.5761640    0.1634370  
C     4.9198430   -3.6135170    1.1652640  
O     5.6738720   -3.8806520    2.0862080  
C     4.4016540   -2.1334860    1.0380450  
O     4.9585130   -1.2965710    1.7488030  
C     3.3290320   -1.8075140    0.0871500  
H     1.5589670   -1.9552990   -2.3366350  
H     4.8796290   -5.5888100    0.2157180  
H     1.7168340   -4.3976340   -3.4341150  
H     3.3219710   -5.7911250   -2.0913750  
