60


C     2.3631990    3.7909640    0.8533480  
C     1.2080760    3.0960620    0.6070700  
C     1.5693820    1.7148510    0.4478830  
C     2.9737120    1.6338460    0.6250890  
N     3.4290150    2.9114870    0.8795310  
C     3.7063760    0.4310590    0.5454530  
C     2.9579410   -0.7130680    0.2659550  
O     3.5834840   -1.9220500    0.1729970  
C     1.5539960   -0.6535660    0.0785010  
O     0.9953140   -1.8851100   -0.2051180  
C     0.8309720    0.5338740    0.1720890  
H     0.2138260    3.5172700    0.5643080  
H     4.4028120    3.1666940    0.9357510  
H     2.9028240   -2.5815150   -0.0496030  
H     0.0587050   -1.7757440   -0.4307410  
H     2.5180540    4.8465430    1.0262980  
C    -1.3108660    1.4037980   -0.8783710  
C    -0.6279600    0.5700900   -0.0417460  
C    -1.6470920   -0.2292540    0.6346710  
C    -2.9648280    0.2022420    0.0894020  
N    -2.6790850    1.1670730   -0.8474480  
C    -4.1960530   -0.3234450    0.4445390  
C    -4.1367950   -1.3508410    1.4962650  
O    -5.1209990   -1.9491080    1.9248550  
C    -2.7566780   -1.7696520    2.1302540  
O    -2.7686500   -2.5969470    3.0263300  
C    -1.5373440   -1.1747720    1.6046590  
H    -0.5873580   -1.4831100    2.0276690  
H    -0.9151890    2.1663760   -1.5361870  
H    -3.3771100    1.8738000   -1.0646030  
C    -7.7998290   -2.6350810   -0.7783610  
C    -8.5527880   -1.6380930   -1.3014420  
C    -7.8021370   -0.4126680   -1.1395220  
C    -6.5182960   -0.7910600   -0.4803560  
N    -6.5691820   -2.1558070   -0.3279690  
C    -5.4920280    0.0832190   -0.1583610  
C    -5.7734370    1.4918400   -0.4711920  
O    -4.9801740    2.4093950   -0.2684490  
C    -7.1412480    1.9103010   -1.1335350  
O    -7.3257300    3.0948150   -1.3593910  
C    -8.1019800    0.8703660   -1.4638290  
H    -9.5290180   -1.7287440   -1.7546750  
H    -9.0325710    1.1599510   -1.9413750  
H    -8.0202610   -3.6907600   -0.6897880  
H    -6.0376950   -2.5935420    0.4194230  
C     5.8371670    0.8854710    1.8358240  
C     5.1641680    0.3905390    0.7566680  
C     6.1831300   -0.1486610   -0.1450770  
C     7.4926970    0.0774330    0.5138030  
N     7.2128010    0.7238160    1.7018440  
C     8.6917330   -0.2945740   -0.0034280  
C     8.7098890   -0.9511190   -1.3060040  
O     9.7371110   -1.3211300   -1.8546940  
C     7.3342330   -1.1812460   -2.0336480  
O     7.3279910   -1.7168600   -3.1306420  
C     6.1053150   -0.7411260   -1.3629130  
H     9.6385060   -0.1223910    0.4994540  
H     5.1615910   -0.9248970   -1.8636570  
H     5.4329920    1.3423200    2.7301790  
H     7.8925270    0.9313560    2.4165840  
