60


C    -0.4905930   -0.6871100    0.4942450  
C    -1.6531340    0.0649470    0.5521120  
C    -2.7486910   -0.8409850    0.6693240  
C    -2.2103260   -2.1575250    0.6747380  
N    -0.8431280   -2.0356330    0.5398340  
C    -3.0021100   -3.3053800    0.7658160  
C    -4.3755700   -3.1256330    0.8497370  
O    -5.1976410   -4.2022740    0.9385140  
C    -4.9498150   -1.8237600    0.8603960  
O    -6.3168150   -1.8091960    1.0227570  
C    -4.1512820   -0.6869340    0.7710010  
H    -1.7020910    1.1401970    0.4549490  
H    -0.1860960   -2.7824350    0.7089810  
H    -2.5907470   -4.3090870    0.7581610  
H    -6.1101230   -3.8596160    0.9642980  
H    -6.7142420   -1.0694680    0.5269560  
C     1.4495050    0.9101850    0.8015160  
C     0.8831050   -0.2638670    0.3934770  
C     2.0058810   -1.0041290   -0.2299870  
C     3.1783430   -0.1051670   -0.0526210  
N     2.8324400    1.0134480    0.5237410  
C     4.4982570   -0.4596410   -0.5352030  
C     4.6028080   -1.6272070   -1.2312590  
O     5.7564500   -2.0911010   -1.7382120  
C     3.4299410   -2.5236260   -1.4689700  
O     3.6147600   -3.5665620   -2.0964990  
C     2.1029770   -2.1437110   -0.9380510  
H     5.5248160   -2.9389060   -2.1770550  
H     1.2745390   -2.8054250   -1.1721240  
H     0.9592160    1.7296320    1.3129000  
C     6.3908910    0.7797190    3.2237650  
C     7.3615350    1.6212700    2.8017310  
C     7.2504550    1.6265490    1.3460800  
C     6.0990990    0.7078360    1.0661180  
N     5.6133340    0.2073780    2.1622480  
C     5.6546030    0.4265340   -0.2890240  
C     6.3657110    1.0045400   -1.2945650  
O     6.0856670    0.8436050   -2.5951070  
C     7.5326370    1.9216990   -1.0370180  
O     8.0987760    2.4042180   -2.0162310  
C     7.9438940    2.2075530    0.3487320  
H     8.0807890    2.1692540    3.3942520  
H     6.7559570    1.3816970   -3.0727530  
H     8.7944230    2.8677650    0.4887850  
H     6.1485400    0.4993800    4.2419930  
C    -4.4454880    1.5788800    1.7952900  
C    -5.2217280    2.6789720    1.6495160  
C    -6.0916720    2.4441100    0.5154550  
C    -5.7397470    1.0955270    0.0015320  
N    -4.7328230    0.6104330    0.8176080  
C    -6.3327610    0.5069670   -1.0769980  
C    -7.3833260    1.2412830   -1.7804640  
O    -7.9522310    0.8053500   -2.7687550  
C    -7.7863910    2.6588860   -1.2347610  
O    -8.6825150    3.2752160   -1.7875230  
C    -7.0592760    3.1907060   -0.0757200  
H    -5.2033630    3.5647960    2.2676420  
H    -6.0038990   -0.4408600   -1.4935040  
H    -7.3303950    4.1822350    0.2744140  
H    -3.6840960    1.3585000    2.5309170  
