58


C    -7.5050910   -1.0719550    2.8304840  
C    -6.3028430   -0.8782970    2.2312390  
C    -6.5571460   -0.3601240    0.9050080  
C    -8.0345790   -0.2603230    0.7829670  
N    -8.5474230   -0.7115160    1.9818960  
C    -8.6990900    0.2101650   -0.3035240  
C    -7.9157810    0.6505360   -1.4470060  
O    -8.4114540    1.1132360   -2.4630120  
C    -6.3506860    0.5219200   -1.3689590  
O    -5.7009010    0.7961480   -2.3616900  
C    -5.7266860    0.0364490   -0.1093270  
H    -5.3354170   -1.1002690    2.6516860  
H    -9.7805990    0.2898240   -0.3552400  
H    -7.7250060   -1.4519950    3.8193630  
H    -9.5283530   -0.7539180    2.2080780  
C    -2.9761230   -3.3125560    0.6772290  
C    -1.7636810   -2.7368420    0.4886570  
C    -2.0467490   -1.3460550    0.1575800  
C    -3.5343160   -1.2605510    0.2093920  
N    -4.0685800   -2.4138710    0.5028070  
C    -4.2552440   -0.0241100   -0.0523400  
C    -3.4824770    1.0711170   -0.3029090  
O    -3.9885350    2.2991730   -0.4873360  
C    -1.9871330    1.0212380   -0.3547200  
O    -1.4031750    2.0816270   -0.5779470  
C    -1.2614870   -0.2732840   -0.1538660  
H    -0.7898200   -3.1936580    0.5866300  
H    -3.2216890    2.8785720   -0.6860350  
H    -3.1913050   -4.3404940    0.9436030  
C     0.8428010   -1.3990460   -0.9310460  
C     0.1757780   -0.3486890   -0.3590970  
C     1.2533510    0.6022040   -0.0081090  
C     2.5057230   -0.0827760   -0.4434130  
N     2.2398800   -1.2434710   -0.9815620  
C     3.8403040    0.4929460   -0.2577920  
C     3.8551070    1.7216030    0.3524620  
O     4.9756720    2.4372250    0.5752330  
C     2.6235190    2.4167840    0.8132920  
O     2.7520780    3.5203120    1.3489830  
C     1.2993540    1.7946650    0.6089360  
H     4.6627640    3.2652610    1.0070130  
H     0.4330500    2.3505840    0.9443020  
H     0.4017540   -2.2872610   -1.3663650  
C     5.0728650   -1.1272920   -1.7559520  
C     5.0197940   -0.2255740   -0.7226710  
C     6.4048200   -0.2089450   -0.1986280  
C     7.1367010   -1.1645270   -1.0862470  
N     6.3494390   -1.6818900   -1.9909740  
C     8.5332810   -1.4575990   -0.9151250  
C     9.1835750   -0.8614240    0.1125470  
O    10.4797850   -1.0467620    0.4007300  
C     8.4711200    0.0770130    1.0473860  
O     9.1234600    0.5707990    1.9651310  
C     7.0380990    0.3722570    0.8389500  
H     9.0249820   -2.1481260   -1.5911720  
H    10.6532500   -0.4910250    1.1926860  
H     6.5776690    1.0705490    1.5253610  
H     4.2476010   -1.4404310   -2.3782070  
