58


C    -2.1820460    0.7350830   -1.3731250  
C    -2.1649480    2.0835490   -1.2491780  
C    -3.2500510    2.4582120   -0.3699650  
C    -3.9237360    1.1950250    0.0167740  
N    -3.2430280    0.1660210   -0.6465770  
C    -4.9535850    1.1253530    0.8949420  
C    -5.4676210    2.3718290    1.4664750  
O    -6.3914080    2.3955410    2.2642400  
C    -4.7983850    3.7232740    1.0320140  
O    -5.2309590    4.7714940    1.4832030  
C    -3.6649200    3.6612030    0.1056740  
H    -1.4685710    2.7588070   -1.7258040  
H    -5.4316010    0.2013800    1.1919080  
H    -3.1778690    4.5943560   -0.1606210  
H    -1.5223810    0.0846750   -1.9266140  
C    -0.5012500   -3.1265740   -0.0442190  
C    -1.3765840   -4.1835590   -0.0205610  
C    -2.6871650   -3.6184040   -0.2319440  
C    -2.4320400   -2.1531800   -0.3683500  
N    -1.1715810   -1.8696470   -0.2632670  
C    -3.5203540   -1.2090300   -0.5882470  
C    -4.7762840   -1.7321340   -0.7199490  
O    -5.8653560   -0.9942570   -0.9806190  
C    -5.0486510   -3.1951340   -0.5765420  
O    -6.2153080   -3.5693100   -0.7111350  
C    -3.9368570   -4.1259590   -0.3215440  
H    -1.1494810   -5.2298290    0.1304210  
H    -6.6119320   -1.6358060   -1.0042740  
H    -4.1814100   -5.1796430   -0.2304890  
C     0.9285100   -3.1454520    0.1151130  
C     1.7580550   -4.2167730    0.3321010  
C     3.0893610   -3.6733440    0.4138010  
C     2.9018480   -2.1990900    0.2231390  
N     1.6535970   -1.9047220    0.0482770  
C     4.0323740   -1.2627300    0.2378170  
C     5.2619260   -1.8425110    0.4236480  
O     6.4204460   -1.1578330    0.4629810  
C     5.4683710   -3.3146610    0.6122640  
O     6.6313430   -3.6973920    0.7720380  
C     4.3154390   -4.2151500    0.6001450  
H     1.4883440   -5.2597510    0.4231010  
H     7.1144610   -1.8456180    0.6104770  
H     4.5044010   -5.2749910    0.7392460  
C     3.8257400    0.1627660    0.0638770  
C     2.6436880    0.8553510   -0.0873710  
C     2.9654740    2.2474400   -0.2249260  
C     4.4438250    2.3472730   -0.1459900  
N     4.9010300    1.0619310    0.0288600  
C     5.1368830    3.5117950   -0.2367570  
C     4.3913080    4.7518000   -0.4291560  
O     4.9274330    5.8455520   -0.5239220  
C     2.8225250    4.6687630   -0.5205750  
O     2.1816680    5.6946610   -0.6932780  
C     2.1892950    3.3544450   -0.3985070  
H     1.6622020    0.4094500   -0.1001430  
H     6.2192090    3.5691010   -0.1749410  
H     1.1057650    3.3046440   -0.4512790  
H     5.8649910    0.7836380    0.1346350  
