60


C    -0.5565000   -1.8214740   -0.2299920  
C    -1.5956760   -0.9262040   -0.0373800  
C    -2.8159980   -1.6016670   -0.3482520  
C    -2.4675870   -2.9265910   -0.7218080  
N    -1.0969520   -3.0364760   -0.6284520  
C    -3.4117860   -3.8959980   -1.0753380  
C    -4.7473580   -3.5284030   -1.0416510  
O    -5.7036050   -4.4256420   -1.3950510  
C    -5.1339330   -2.2188380   -0.6488050  
O    -6.4877720   -2.0141590   -0.6841170  
C    -4.1958180   -1.2394210   -0.3019970  
H    -1.4856630    0.0696530    0.3677450  
H    -0.5571000   -3.8176520   -0.9692980  
H    -3.1399800   -4.9045590   -1.3685900  
H    -6.5652700   -3.9766910   -1.3321280  
H    -6.6713480   -1.0575240   -0.6199840  
C     1.5432250   -0.4601680   -0.2527870  
C     0.8703660   -1.6306010   -0.0684650  
C     1.8665860   -2.6257120    0.3239240  
C     3.1768820   -1.9350280    0.3344530  
N     2.9153590   -0.5871350   -0.0158690  
C     4.3428410   -2.5450000    0.6490140  
C     4.3156510   -3.9720120    0.9995590  
O     5.3276210   -4.5941590    1.2741120  
C     2.9365100   -4.7083300    1.0267000  
O     2.8863150   -5.8874600    1.3344740  
C     1.7438010   -3.9318540    0.6716270  
H     5.2892520   -2.0230310    0.6528430  
H     0.7878760   -4.4415530    0.7290810  
H     1.1472790    0.4911400   -0.5738270  
C     3.7972510    0.4651710   -0.1335110  
C     3.4983920    1.7843760   -0.4069150  
C     4.7639900    2.4463350   -0.4269260  
C     5.7635210    1.3563870   -0.1385580  
N     5.1763730    0.2007200    0.0311660  
C     7.1706740    1.6126010   -0.0714820  
C     7.5730270    2.8916150   -0.2766470  
O     8.8415340    3.2937460   -0.2470010  
C     6.5904090    4.0215970   -0.5687960  
O     7.0892800    5.1371430   -0.7366300  
C     5.1703450    3.7305590   -0.6324240  
H     2.5342130    2.2453810   -0.5583200  
H     7.8687460    0.8096690    0.1364460  
H     8.8043300    4.2635180   -0.4304040  
H     4.4955960    4.5539870   -0.8423860  
C    -4.6368980    0.1087230    0.0278510  
C    -5.7655810    0.5442640    0.6872560  
C    -5.7473880    1.9871400    0.7083570  
C    -4.5205710    2.3902570   -0.0204470  
N    -3.8718740    1.2145110   -0.3608530  
C    -4.1619200    3.6731880   -0.2703180  
C    -5.0181870    4.7439280    0.2380990  
O    -4.7718630    5.9274240    0.0664490  
C    -6.3031840    4.3412080    1.0502960  
O    -7.0238950    5.2240240    1.4897700  
C    -6.5897650    2.9174750    1.2344620  
H    -6.4602730   -0.0814510    1.2313060  
H    -3.2649000    3.9497340   -0.8160900  
H    -7.4892450    2.6522590    1.7817940  
H    -3.1467180    1.1533350   -1.0607800  
