58


C    -3.9186960   -1.0583490   -0.1267390  
C    -4.2457710    0.2591560   -0.3963900  
C    -5.6537600    0.4224750   -0.1688800  
C    -6.1565170   -0.9067700    0.2611150  
N    -5.0633140   -1.7430230    0.2778000  
C    -7.4533530   -1.1715840    0.5632600  
C    -8.4253000   -0.0865100    0.4662920  
O    -9.6122180   -0.2305340    0.7198300  
C    -7.9138300    1.3316750    0.0150570  
O    -8.7165580    2.2509770   -0.0676140  
C    -6.4936750    1.4907910   -0.2861480  
H    -3.5988380    1.0178690   -0.8101590  
H    -7.8041560   -2.1507190    0.8739460  
H    -6.1531390    2.4727480   -0.6013430  
H    -5.0545730   -2.7493670    0.3962250  
C     0.2143140    0.4918460   -0.2111690  
C     0.8702730   -0.6949280   -0.4114600  
C    -0.1121270   -1.7459300   -0.4381850  
C    -1.4276320   -1.0922180   -0.2626160  
N    -1.1726840    0.2411340   -0.1464550  
C    -2.6452320   -1.7477970   -0.2217810  
C    -2.5763320   -3.2193630   -0.2418560  
O    -3.5432580   -3.9483270   -0.0502340  
C    -1.1971040   -3.9206480   -0.5170970  
O    -1.1849300   -5.1319300   -0.6595740  
C     0.0051730   -3.0955390   -0.5776700  
H     1.9327210   -0.8126900   -0.5357170  
H     0.9595430   -3.5924710   -0.7209850  
H    -1.8545130    0.9384530    0.1151540  
C     4.3289500    1.9914690   -0.0204900  
C     4.1319450    3.3530380    0.0247570  
C     2.7161410    3.5209100    0.0225580  
C     2.1649710    2.1197590   -0.0473050  
N     3.1223470    1.2394670   -0.0629440  
C     0.7313270    1.8449590   -0.0902590  
C    -0.0620070    2.9609410    0.0000870  
O    -1.3972960    2.9358030    0.0065790  
C     0.4710260    4.3795240    0.0931190  
O    -0.3906690    5.2616290    0.1600010  
C     1.8975670    4.6065060    0.0892560  
H     4.8665490    4.1405630    0.0973080  
H    -1.6632440    3.8902750    0.0820820  
H     2.2513800    5.6303810    0.1445840  
C     6.7565530    1.9443910   -0.2999680  
C     7.7755810    1.0590630   -0.3085250  
C     7.2266390   -0.2550180   -0.0475290  
C     5.7665130   -0.0722510    0.1243650  
N     5.5198540    1.3108740   -0.0582270  
C     4.9202670   -1.0788620    0.4394390  
C     5.4642570   -2.4401860    0.5566050  
O     4.7536180   -3.4003420    0.7992840  
C     7.0023880   -2.6527220    0.3561260  
O     7.4714880   -3.7728330    0.4583710  
C     7.8193740   -1.4701020    0.0581130  
H     8.8161430    1.2895830   -0.4882560  
H     3.8620770   -0.9342000    0.6013700  
H     8.8893680   -1.6111130   -0.0595100  
H     6.7743110    3.0096320   -0.4755300  
