58


C     4.1255510   -0.1310870    0.1600410  
C     4.2755410   -0.8022030   -1.0391490  
C     5.4264560   -1.6523470   -0.9330220  
C     5.9702790   -1.4392090    0.4313390  
N     5.1344180   -0.5295740    1.0391550  
C     7.0784480   -2.0556010    0.9162060  
C     7.7869140   -2.9944620    0.0511700  
O     8.7916760   -3.5955260    0.4004320  
C     7.2241430   -3.2400900   -1.3974640  
O     7.8035480   -4.0248870   -2.1340030  
C     6.0224930   -2.5133000   -1.8070490  
H     3.6854550   -0.6599890   -1.9305840  
H     7.4647110   -1.8861090    1.9163430  
H     5.6450220   -2.6871310   -2.8103450  
H     5.2930910   -0.0415240    1.9117940  
C     0.0601780    0.8642190   -1.3554640  
C     1.2492170    0.2565850   -1.0904240  
C     1.9295310    1.0364790   -0.0934360  
C     1.0236800    2.1617760    0.2248860  
N    -0.0925620    2.0286190   -0.6087640  
C     1.2549490    3.1004080    1.1753690  
C     2.4797700    2.9933840    1.9549170  
O     2.7929950    3.7928100    2.8210430  
C     3.4352380    1.7813400    1.6798140  
O     4.3764400    1.6303220    2.4481640  
C     3.1512360    0.8763840    0.5416570  
H     1.5855670   -0.6708200   -1.5246190  
H     0.5883740    3.9275220    1.3817000  
H    -0.7267600    0.5637600   -2.0313000  
C    -4.2766620    0.9592380   -0.2627990  
C    -4.8667260    2.1913570   -0.3471480  
C    -3.7864910    3.1322440   -0.5066640  
C    -2.5546820    2.2816730   -0.5025180  
N    -2.8405530    1.0229360   -0.3626630  
C    -1.2304540    2.8616870   -0.6421800  
C    -1.1591030    4.2141750   -0.7996310  
O    -0.0157750    4.8838090   -0.9631780  
C    -2.3884920    5.0880410   -0.7878650  
O    -2.2045620    6.2958020   -0.9349670  
C    -3.7126850    4.4787200   -0.6353380  
H    -5.9199750    2.4278890   -0.2939010  
H    -0.2775960    5.8314810   -1.0406710  
H    -4.5717550    5.1416580   -0.6397960  
C    -4.8660770   -0.3406170   -0.0893960  
C    -6.1882250   -0.7162320   -0.0014930  
C    -6.2244330   -2.1420530    0.1722690  
C    -4.8093980   -2.5979600    0.1838470  
N    -4.0463440   -1.4625060    0.0154580  
C    -4.4251520   -3.8906160    0.3339670  
C    -5.4588990   -4.9107970    0.4913700  
O    -5.2087840   -6.0975550    0.6303890  
C    -6.9629230   -4.4518120    0.4782170  
O    -7.8428450   -5.2881640    0.6066290  
C    -7.2543890   -3.0242810    0.3110420  
H    -7.0431190   -0.0579210   -0.0586930  
H    -3.3872080   -4.2080690    0.3423770  
H    -8.2961080   -2.7181430    0.3055800  
H    -3.0389490   -1.4020670    0.0033220  
