58


C     5.4218510   -1.9266800   -1.3242100  
C     4.9867410   -0.9113400   -0.5086370  
C     6.1817080   -0.3952240    0.1719580  
C     7.3196460   -1.2086300   -0.3238150  
N     6.7807510   -2.1117390   -1.2273230  
C     8.6109590   -1.0649020    0.0613970  
C     8.9257600   -0.0436730    1.0580450  
O    10.0566720    0.1626230    1.4675060  
C     7.7374690    0.8102250    1.6256220  
O     7.9658880    1.6515790    2.4785840  
C     6.3831580    0.5647510    1.1089610  
H     9.4207150   -1.6770330   -0.3236020  
H     5.5875180    1.1913260    1.4921850  
H     4.8370410   -2.5266610   -2.0085930  
H     7.3204670   -2.7504940   -1.7918040  
C     1.1330630   -3.1387140   -0.3602420  
C     2.4585580   -2.8578950   -0.3292720  
C     2.5450960   -1.4022710   -0.3827340  
C     1.1245570   -0.9620130   -0.4347770  
N     0.3073700   -1.9794750   -0.4294530  
C     0.7442700    0.4418210   -0.4907770  
C     1.7691060    1.3382990   -0.4410090  
O     1.5851060    2.6645580   -0.4038770  
C     3.2120130    0.9274300   -0.3899440  
O     4.0448280    1.8306010   -0.3660580  
C     3.5864450   -0.5213310   -0.3962530  
H     3.2811530   -3.5530150   -0.2415510  
H     2.4830960    3.0618640   -0.4240460  
H     0.6559810   -4.1108960   -0.3281960  
C    -2.9938430   -0.3090510    1.8265140  
C    -1.7186980   -0.2877470    1.3800010  
C    -1.6816030    0.5088080    0.1670080  
C    -3.0662430    0.9719630   -0.0723880  
N    -3.8256150    0.4303330    0.9639860  
C    -3.4697150    1.7807740   -1.0804900  
C    -2.4575770    2.2339390   -2.0269650  
O    -2.6976300    2.9919060   -2.9522440  
C    -0.9854560    1.7145090   -1.8446330  
O    -0.1653780    1.9943150   -2.6985780  
C    -0.6553960    0.8712140   -0.6606010  
H    -0.8791250   -0.7987550    1.8234050  
H    -4.4941080    2.1134120   -1.2085410  
H    -3.4335230   -0.7942270    2.6871900  
C    -5.6835030    1.7565540    1.8766360  
C    -7.0327700    1.6770760    1.9268200  
C    -7.4331130    0.4715800    1.2219850  
C    -6.1880430   -0.1684770    0.7383270  
N    -5.1528260    0.6644400    1.1658040  
C    -6.1251750   -1.3253240    0.0391640  
C    -7.3844440   -2.0062360   -0.2694160  
O    -7.4363280   -3.0567700   -0.8871170  
C    -8.7243530   -1.3469060    0.2254630  
O    -9.7831280   -1.8993570   -0.0229330  
C    -8.6458640   -0.0870200    0.9751650  
H    -7.6973310    2.3838100    2.4026020  
H    -5.1957950   -1.7682160   -0.3028660  
H    -9.5771210    0.3574940    1.3129160  
H    -5.0045840    2.4977680    2.2761380  
