58


C     2.4894330    0.8134990   -0.0395930  
C     3.5172500    0.1330600   -0.6230940  
C     3.0264750   -1.1982400   -0.9538450  
C     1.6127740   -1.2204370   -0.5350670  
N     1.3506250    0.0209310    0.0001250  
C     0.7727760   -2.3078790   -0.6288850  
C     1.3486170   -3.5243620   -1.2667310  
O     0.6856840   -4.4914520   -1.5807150  
C     2.8778890   -3.5328660   -1.6283560  
O     3.3813190   -4.5663010   -2.0334900  
C     3.6412540   -2.2910160   -1.4788490  
H     4.6907500   -2.3042680   -1.7559160  
H     2.4728820    1.8208070    0.3523690  
H     0.5121360    0.2234780    0.5270610  
C    -0.5953440   -2.2849920   -0.1577140  
C    -1.4744400   -1.2149230   -0.1384160  
C    -2.6894130   -1.7172770    0.4369050  
C    -2.3745260   -3.1499080    0.7461000  
N    -1.1605810   -3.4710660    0.3971640  
C    -3.3398780   -4.0289260    1.3402540  
C    -4.5743780   -3.5277810    1.5810020  
O    -5.5719510   -4.2296160    2.1274760  
C    -4.9406270   -2.0890540    1.2834080  
O    -6.0589070   -1.7310700    1.6363430  
C    -3.9356820   -1.1833420    0.6589960  
H    -1.3446320   -0.2492520   -0.6062510  
H    -3.0760660   -5.0561920    1.5645690  
H    -6.3228230   -3.5979950    2.2077450  
C    -4.3056030    0.1859230    0.3466020  
C    -3.5243420    1.3087510    0.4372960  
C    -4.3599550    2.4054530    0.0014250  
C    -5.6617740    1.7524110   -0.3509760  
N    -5.6309710    0.4697300   -0.1441060  
C    -6.7733700    2.5163770   -0.8575970  
C    -6.6116230    3.8543960   -0.9865120  
O    -7.5593030    4.6882950   -1.4360700  
C    -5.3162130    4.5420830   -0.6249320  
O    -5.2602190    5.7614620   -0.7775490  
C    -4.1900540    3.7414670   -0.1210410  
H    -2.5177120    1.3807710    0.8231940  
H    -7.7027330    2.0191750   -1.1114490  
H    -7.1527730    5.5832110   -1.4161130  
H    -3.2738840    4.2717080    0.1207330  
C     5.4869340    0.5540510   -2.0862420  
C     6.7308360    1.0812130   -2.0005900  
C     6.9269740    1.5129270   -0.6319510  
C     5.6730760    1.1844340    0.0895810  
N     4.8224790    0.5953990   -0.8482040  
C     5.4640390    1.4293460    1.4068860  
C     6.5349190    2.0615880    2.1764910  
O     6.4323150    2.3163640    3.3660560  
C     7.8672760    2.4288990    1.4290030  
O     8.7669000    2.9694100    2.0513040  
C     7.9724030    2.1038030    0.0026980  
H     7.4447670    1.1701310   -2.8065620  
H     4.5473620    1.1726370    1.9264830  
H     8.9007100    2.3513390   -0.5030810  
H     4.9702240    0.1406970   -2.9420200  
