62


C     1.0376510    0.8835110   -2.0816850  
C     2.3884400    0.7653880   -1.9165670  
C     2.6308800    0.5259520   -0.5183170  
C     1.3769890    0.5024920    0.1382400  
N     0.4173380    0.7209000   -0.8442910  
C     1.2196830    0.2654730    1.5055590  
C     2.3761430    0.0469280    2.2404990  
O     2.2976600   -0.1931610    3.5742590  
C     3.6576770    0.0868470    1.6258240  
O     4.7110380   -0.0698270    2.4981500  
C     3.7927200    0.3278380    0.2601090  
H     3.1273590    0.8268380   -2.7028440  
H     0.2509320    0.2414220    1.9912490  
H     3.2089630   -0.3324560    3.8912440  
H     5.4437530   -0.5499420    2.0701530  
H     0.4367910    1.0640710   -2.9607760  
C    -1.7903950   -0.2810440   -0.6598190  
C    -3.0805170    0.1546190   -0.3975740  
C    -2.9966120    1.5937680   -0.1930940  
C    -1.6436040    1.9648610   -0.3414260  
N    -0.9335880    0.7940410   -0.6278650  
C    -1.1775860    3.2747180   -0.2152960  
C    -2.1231700    4.2479730    0.0738800  
O    -1.7399190    5.5467270    0.2107730  
C    -3.4920370    3.9000730    0.2282590  
O    -4.3074310    4.9750170    0.5122870  
C    -3.9380540    2.5972960    0.0999530  
H    -0.1334430    3.5425360   -0.3295300  
H    -2.5381730    6.0640350    0.4164530  
H    -5.2206650    4.6685950    0.6178920  
H    -4.9841960    2.3342720    0.2178590  
H    -1.4056970   -1.2686550   -0.8671520  
C     5.5992320    1.5326970   -0.9884190  
C     6.8851670    1.3443020   -1.3691460  
C     7.2688070    0.0134330   -0.9451880  
C     6.0719210   -0.5668590   -0.2840110  
N     5.0823450    0.3996400   -0.3362430  
C     6.0225110   -1.8212230    0.2494910  
C     7.2182080   -2.6590980    0.1691870  
O     7.2590440   -3.8022490    0.5955020  
C     8.5015270   -2.0526900   -0.5055560  
O     9.5190770   -2.7237920   -0.5560460  
C     8.4219770   -0.6944310   -1.0567220  
H     7.5131400    2.0561160   -1.8849500  
H     5.1152150   -2.2610770    0.6535820  
H     9.3088010   -0.2973960   -1.5415970  
H     4.9600870    2.3972460   -1.1051720  
C    -4.2481510   -0.6806080   -0.3466910  
C    -4.3602820   -2.0407430   -0.5273650  
C    -5.7481410   -2.3498940   -0.3681220  
C    -6.3924620   -1.0189730   -0.0807220  
N    -5.5192240   -0.0558720   -0.0694100  
C    -7.8086930   -0.8987700    0.1445450  
C    -8.5456010   -2.0326370    0.0887720  
O    -9.8683520   -2.0856190    0.2752680  
C    -7.9252620   -3.3914170   -0.1990340  
O    -8.7031090   -4.3491380   -0.2238430  
C    -6.4916860   -3.4883840   -0.4235250  
H    -3.5698410   -2.7460860   -0.7436500  
H    -8.2510900    0.0696660    0.3498160  
H   -10.0966810   -3.0396900    0.1710800  
H    -6.0810810   -4.4725110   -0.6260250  
