60


C    -0.0999620    0.3147810   -1.2929520  
C     1.2005740   -0.0346330   -1.0679000  
C     1.7912480    0.9954620   -0.2622230  
C     0.7843230    1.9623060   -0.0215390  
N    -0.3742410    1.5381300   -0.6809800  
C     0.9833800    3.0637270    0.8142930  
C     2.2335440    3.2141300    1.3982310  
O     2.4742350    4.2894620    2.2025560  
C     3.2649470    2.2775040    1.1653240  
O     4.4483430    2.5935810    1.7918400  
C     3.0708500    1.1556690    0.3384850  
H     1.6699440   -0.9430590   -1.4146040  
H     0.2188970    3.8043060    1.0064940  
H     3.4082310    4.2422930    2.4716830  
H     5.1512190    1.9880910    1.4872790  
H    -0.8803450   -0.2114390   -1.8195610  
C    -4.3346660   -0.1502280   -0.2242050  
C    -5.1052060    0.9795310   -0.3024150  
C    -4.1875350    2.0740980   -0.5264760  
C    -2.8422210    1.4225770   -0.5306890  
N    -2.9260170    0.1429930   -0.3530570  
C    -1.6182490    2.1923680   -0.7223380  
C    -1.7678530    3.5268260   -0.9658280  
O    -0.7497500    4.3624730   -1.2300160  
C    -3.1090090    4.1959770   -0.9558460  
O    -3.1311290    5.4093560   -1.1754030  
C    -4.3238030    3.4043980   -0.7189460  
H    -6.1837770    1.0462960   -0.2907240  
H    -1.1730690    5.2432190   -1.3519590  
H    -5.2714660    3.9336360   -0.7203830  
C    -7.5726260   -2.0599500    2.1528830  
C    -6.7246280   -1.1652110    1.5715060  
C    -5.8045660   -1.9110760    0.7495020  
C    -6.1792280   -3.3350340    0.9108700  
N    -7.2743040   -3.3516680    1.7558660  
C    -5.5268300   -4.3849930    0.3494850  
C    -4.3620640   -4.1028050   -0.4799970  
O    -3.6658620   -4.9760020   -0.9718060  
C    -4.0037380   -2.6015290   -0.7687820  
O    -3.1782410   -2.3707570   -1.6322790  
C    -4.7373380   -1.5304300   -0.0379860  
H    -6.7306560   -0.0972960    1.7219430  
H    -5.8087680   -5.4209800    0.5104950  
H    -8.3901130   -1.8805860    2.8386730  
H    -7.7243740   -4.1870520    2.0964920  
C     4.1507890    0.2150430    0.0903320  
C     4.4713820   -0.4989730   -1.0316760  
C     5.6571230   -1.2716890   -0.7711840  
C     6.0359940   -0.9758430    0.6276670  
N     5.1422410   -0.0001370    1.0974720  
C     7.0622140   -1.5615730    1.2831560  
C     7.8886310   -2.5298990    0.5549430  
O     8.8358410   -3.1028710    1.0685180  
C     7.5402700   -2.8164220   -0.9505570  
O     8.2342250   -3.6079290   -1.5726530  
C     6.3894330   -2.1318080   -1.5332990  
H     3.9549800   -0.4363820   -1.9784730  
H     7.3216550   -1.3401470    2.3142060  
H     6.1403560   -2.3550350   -2.5661980  
H     4.8311620   -0.0634160    2.0624470  
