58


C    -6.1809400   -3.2900380   -0.0066080  
C    -7.3602370   -2.7977150   -0.4653960  
C    -7.2228450   -1.3582170   -0.5495460  
C    -5.8434440   -1.0494590   -0.1003620  
N    -5.2622310   -2.2669550    0.2006210  
C    -5.3116440    0.2045560    0.0063790  
C    -6.1795810    1.3283750   -0.4118290  
O    -5.7803590    2.4775060   -0.4708210  
C    -7.6552050    1.0205940   -0.8583750  
O    -8.3852010    1.9548830   -1.1499230  
C    -8.0882410   -0.3742310   -0.9144220  
H    -8.2415030   -3.3697180   -0.7163900  
H    -9.1066890   -0.5759590   -1.2319570  
H    -5.8966100   -4.3142990    0.1959180  
H    -4.3416220   -2.3733360    0.5972650  
C    -1.2692880   -1.0703500   -1.3488470  
C    -2.6047950   -0.8859730   -1.2084910  
C    -2.8135820   -0.0317560   -0.0600050  
C    -1.4653040    0.2798560    0.4684280  
N    -0.5531790   -0.4145010   -0.3380920  
C    -1.2222360    1.1447170    1.4836910  
C    -2.3626740    1.7751850    2.1416350  
O    -2.2400360    2.5928470    3.0399760  
C    -3.8047020    1.3647210    1.6863890  
O    -4.7557390    1.7339520    2.3502110  
C    -3.9530220    0.4882350    0.4951750  
H    -3.3702960   -1.2769960   -1.8618400  
H    -0.2304070    1.4003860    1.8318050  
H    -0.7240020   -1.6135460   -2.1050020  
C     2.4122810    0.1071230   -3.4353190  
C     3.5609040    0.0827270   -2.7240670  
C     3.1558560   -0.1251640   -1.3369570  
C     1.6677620   -0.2009710   -1.4105290  
N     1.2401140   -0.0756960   -2.6309130  
C     0.8479740   -0.4135080   -0.2265610  
C     1.5077840   -0.6023790    0.9513890  
O     0.8932360   -0.8531660    2.1201600  
C     2.9955290   -0.5075420    1.0528580  
O     3.4816650   -0.6127710    2.1766050  
C     3.8282880   -0.2981130   -0.1734730  
H     4.5711380    0.2154390   -3.0797720  
H     1.6167370   -0.8888410    2.7862060  
H     2.2849700    0.2451330   -4.5017270  
C     6.7720660    2.8152760   -1.1964980  
C     7.9285740    2.2734930   -0.7534230  
C     7.5575660    0.9672350   -0.2181510  
C     6.0747260    0.8950040   -0.4326420  
N     5.6258620    1.9721940   -1.0021740  
C     5.2940190   -0.2607740   -0.0153600  
C     5.9894530   -1.2865350    0.5528070  
O     5.4330880   -2.4395480    0.9346820  
C     7.4827440   -1.2360270    0.7703820  
O     8.0047860   -2.2184050    1.2911080  
C     8.2381130   -0.0420430    0.3585170  
H     8.9220500    2.6988470   -0.7778700  
H     6.1662310   -2.9721970    1.3188760  
H     9.3084490   -0.0416260    0.5402250  
H     6.6206610    3.7812420   -1.6625710  
