60


C    -1.4359640    0.0667890    0.7379260  
C    -1.8027490    1.2920720    0.2194110  
C    -2.8919840    1.0314470   -0.7011170  
C    -3.1048910   -0.3664210   -0.7168960  
N    -2.2095830   -0.9456990    0.1883180  
C    -4.0946560   -0.9728180   -1.4977610  
C    -4.8755580   -0.1467370   -2.2897500  
O    -5.8564630   -0.6817860   -3.0676790  
C    -4.6710800    1.2593820   -2.2907910  
O    -5.5323240    1.9466800   -3.1201830  
C    -3.6946380    1.8523640   -1.5148920  
H    -4.2592760   -2.0430340   -1.5165520  
H    -6.2946170    0.0548220   -3.5283110  
H    -5.4090970    2.8999380   -2.9972240  
H    -3.5813770    2.9314280   -1.4982990  
H    -0.7034610   -0.1740060    1.4959500  
C     2.4602080    2.2617640    0.4035720  
C     2.3746080    3.5667570    0.8189020  
C     0.9792920    3.9087690    0.9114670  
C     0.2295670    2.6903320    0.5395670  
N     1.1816840    1.7387670    0.2103000  
C    -1.1332790    2.5605860    0.5237900  
C    -1.8952880    3.7886790    0.8387990  
O    -3.1143340    3.8374660    0.8142950  
C    -1.1131000    5.1049730    1.2203060  
O    -1.7650530    6.1058510    1.4799740  
C     0.3420850    5.0706470    1.2385500  
H     3.2083560    4.2341430    0.9824000  
H     0.8726890    5.9768880    1.5126560  
H     0.9623300    0.7639010    0.0696100  
C     3.6326560    1.4638430    0.1307070  
C     4.8991360    1.5922290    0.6324160  
C     5.7088420    0.5424720    0.0680580  
C     4.8150050   -0.2290660   -0.8287930  
N     3.5479190    0.3354650   -0.7053270  
C     5.2149150   -1.2714990   -1.5947100  
C     6.6145890   -1.6947940   -1.5137920  
O     7.0635980   -2.6244170   -2.1639030  
C     7.5691320   -0.9198690   -0.5337220  
O     8.7351180   -1.2703270   -0.4418000  
C     7.0178970    0.2045700    0.2264230  
H     5.2155560    2.3171110    1.3687090  
H     4.5509340   -1.8208640   -2.2550690  
H     7.6892730    0.7463010    0.8856310  
H     2.8689670    0.2744490   -1.4530470  
C    -2.4324140   -2.9855230    4.0584070  
C    -2.4703910   -2.0528020    3.0696760  
C    -2.1900240   -2.7376300    1.8278720  
C    -1.9807930   -4.1633280    2.1745970  
N    -2.1282980   -4.2405400    3.5462850  
C    -1.7238420   -5.1558730    1.2830980  
C    -1.6318890   -4.8050410   -0.1259180  
O    -1.4510830   -5.6204610   -1.0162380  
C    -1.7710710   -3.2889120   -0.5283450  
O    -1.5678520   -2.9648630   -1.6843820  
C    -2.1070880   -2.3081320    0.5302110  
H    -2.6901240   -1.0025220    3.1865290  
H    -1.5949300   -6.1956700    1.5659300  
H    -2.6053010   -2.8647490    5.1195800  
H    -2.0882380   -5.0946090    4.0801990  
