62


C     1.4380620    0.0233290   -0.1621790  
C     2.7823410    0.2548780    0.0588970  
C     2.9332150    1.6880750    0.2092180  
C     1.6425890    2.2531230    0.0710000  
N     0.7407780    1.2117040   -0.1617520  
C     1.3959760    3.6276260    0.2004340  
C     2.4826400    4.4492700    0.4657700  
O     2.2983630    5.7893710    0.6004460  
C     3.7838800    3.8992990    0.6156810  
O     4.7523530    4.8382980    0.8910030  
C     4.0168760    2.5399270    0.5002960  
H     0.4006240    4.0547560    0.1437160  
H     3.1612320    6.1851930    0.8148870  
H     5.5979110    4.4013000    1.0727310  
H     5.0152210    2.1413460    0.6621260  
H     0.9254960   -0.9035290   -0.3744850  
C    -2.7778280   -0.4796680    1.9476520  
C    -1.5069110   -0.1334580    1.5892210  
C    -1.6006950    0.6898190    0.4123970  
C    -2.9708800    0.8222740    0.0874450  
N    -3.6739710    0.0954620    1.0449970  
C    -3.4434690    1.5790250   -0.9869360  
C    -2.4953070    2.2225740   -1.7686190  
O    -2.8906220    2.9742810   -2.8291780  
C    -1.1074720    2.0987160   -1.4887630  
O    -0.2956720    2.7548230   -2.3814860  
C    -0.6558480    1.3407360   -0.4114320  
H    -0.6030030   -0.4241130    2.1051070  
H    -4.4973090    1.6778040   -1.2209540  
H    -2.0896130    3.3468760   -3.2385990  
H     0.6016310    2.8509840   -2.0203750  
H    -3.1516660   -1.0844670    2.7607530  
C    -5.8970200    0.8311740    1.7865870  
C    -7.1800350    0.4190520    1.6618150  
C    -7.1805380   -0.7849660    0.8499480  
C    -5.7671890   -1.0567160    0.4975430  
N    -5.0326720   -0.0338580    1.0958650  
C    -5.3357590   -2.0993260   -0.2499900  
C    -6.3377940   -3.0379120   -0.7571660  
O    -6.0527410   -4.0099620   -1.4372860  
C    -7.8478140   -2.7731720   -0.4030060  
O    -8.6971820   -3.5443600   -0.8180790  
C    -8.1758980   -1.6024580    0.4193380  
H    -8.0499160    0.8979620    2.0876250  
H    -4.2918500   -2.2695760   -0.4903730  
H    -9.2211880   -1.4313820    0.6582230  
H    -5.4749570    1.6795390    2.3080450  
C     3.8066320   -0.7623470    0.1022430  
C     3.7310840   -2.0830300    0.4637010  
C     5.0296930   -2.6760850    0.2917370  
C     5.9081190   -1.5933530   -0.2161250  
N     5.1320860   -0.4421170   -0.2503660  
C     7.2070760   -1.7593270   -0.5625220  
C     7.8075410   -3.0823990   -0.3934660  
O     8.9725780   -3.3199200   -0.6729500  
C     6.9087080   -4.2350810    0.1871030  
O     7.4037620   -5.3422340    0.3447530  
C     5.5154950   -3.9323800    0.5019760  
H     2.8572970   -2.5751350    0.8666680  
H     7.8326930   -0.9580600   -0.9446670  
H     4.8989200   -4.7410470    0.8826280  
H     5.3414050    0.3275100   -0.8708270  
