62


C     2.3599940   -1.0336300   -1.8134760  
C     1.0900960   -0.6935520   -1.4402690  
C     1.1962910    0.4163040   -0.5320860  
C     2.5742100    0.7132430   -0.3980170  
N     3.2799670   -0.1907830   -1.1897020  
C     3.0528070    1.7740000    0.3786920  
C     2.1122470    2.5402310    1.0483770  
O     2.5200710    3.5809400    1.8285780  
C     0.7261200    2.2523330    0.9449940  
O    -0.0601460    3.0903700    1.7102560  
C     0.2404800    1.2059260    0.1615150  
H     0.1813870   -1.1762060   -1.7722060  
H     4.1065950    2.0109590    0.4713610  
H     1.7215130    3.9857970    2.2096050  
H    -0.9981000    2.8862990    1.5728020  
H     2.7167770   -1.8194950   -2.4638860  
C    -1.7705610   -0.3253660    0.2136030  
C    -1.1996860    0.9051900    0.0671100  
C    -2.2925600    1.8191050   -0.2499110  
C    -3.5335400    1.0031250   -0.2691680  
N    -3.1545360   -0.2993450    0.0342830  
C    -4.7670300    1.4943610   -0.5581770  
C    -4.8997260    2.9195570   -0.8549460  
O    -5.9711580    3.4470740   -1.1108990  
C    -3.6004840    3.8016310   -0.8433820  
O    -3.6895100    4.9924670   -1.0964130  
C    -2.3236570    3.1516690   -0.5308180  
H    -5.6559810    0.8752360   -0.6086410  
H    -1.4283500    3.7646480   -0.5658820  
H    -1.2913860   -1.2652730    0.4468120  
C    -6.7260940   -1.1741100    2.4438950  
C    -6.9541000   -2.4284460    1.9445210  
C    -5.9340770   -2.6878900    0.9676960  
C    -5.1075790   -1.5339680    0.9235470  
N    -5.6037260   -0.6332330    1.8401580  
C    -3.9938670   -1.4448170    0.0670600  
C    -3.7155230   -2.5426450   -0.7467210  
O    -2.6464520   -2.5052210   -1.5955640  
C    -4.5271080   -3.7029890   -0.6920500  
O    -4.1084070   -4.7015000   -1.5495410  
C    -5.6239930   -3.7878070    0.1447550  
H    -7.7527040   -3.0949640    2.2388030  
H    -5.2693240    0.3091910    1.9683040  
H    -2.6397870   -3.3503180   -2.0792070  
H    -4.7459100   -5.4306650   -1.5388560  
H    -6.2289930   -4.6914250    0.1692850  
H    -7.2686280   -0.6097360    3.1888340  
C     5.3672980   -0.0082950   -2.4957280  
C     4.6754560   -0.2457950   -1.3464250  
C     5.6434970   -0.6243700   -0.3250900  
C     6.9671780   -0.5823920   -0.9913370  
N     6.7252470   -0.2206680   -2.3053280  
C     8.1429260   -0.8606760   -0.3743580  
C     8.1118540   -1.2442140    1.0354600  
O     9.1173290   -1.5148660    1.6731370  
C     6.7133490   -1.3150960    1.7539490  
O     6.6677190   -1.6503780    2.9261100  
C     5.5135210   -0.9747760    0.9797470  
H     9.1056710   -0.8188020   -0.8745530  
H     4.5528620   -1.0116000    1.4831310  
H     4.9857270    0.2955950   -3.4612400  
H     7.4379440   -0.0771680   -3.0034130  
