60


C    -1.8461440   -0.2918870    0.1171420  
C    -1.3362050    0.9924210    0.0917550  
C    -2.4861660    1.8782290   -0.0300520  
C    -3.6403960    1.0612130   -0.0787890  
N    -3.2224180   -0.2746060    0.0256970  
C    -4.9351180    1.5751370   -0.1775660  
C    -5.0726050    2.9519200   -0.2690360  
O    -6.3140280    3.5055530   -0.3728460  
C    -3.9288250    3.7867020   -0.2570730  
O    -4.2155670    5.1335310   -0.3636310  
C    -2.6501310    3.2714150   -0.1438690  
H    -5.8167960    0.9485410   -0.2185530  
H    -6.1951090    4.4685280   -0.4412810  
H    -3.3901630    5.6400630   -0.3425870  
H    -1.7943160    3.9352370   -0.1068190  
H    -1.3168920   -1.2297180    0.1411890  
C     2.0507030   -1.3266650   -1.4097400  
C     3.1261790   -0.5637200   -1.0740320  
C     2.5347130    0.6090760   -0.3999110  
C     1.0646000    0.3565360   -0.4256710  
N     0.8020830   -0.7703210   -1.0275580  
C     0.0909550    1.2973700    0.1407720  
C     0.6372040    2.4274570    0.6958940  
O    -0.0880440    3.3836440    1.3228800  
C     2.0896900    2.7166520    0.6984640  
O     2.4781670    3.7639310    1.2283260  
C     3.0363820    1.7483660    0.1045470  
H     0.5815750    4.0393780    1.6225620  
H     4.0905510    2.0062230    0.1265590  
H     2.0590040   -2.2876110   -1.9110100  
C     5.0145960   -1.2320830   -2.5899620  
C     4.5283660   -0.8051890   -1.3856170  
C     5.6844340   -0.6987370   -0.4947170  
C     6.8698350   -1.0941400   -1.2967890  
N     6.3881850   -1.4196950   -2.5503110  
C     8.1437870   -1.1182770   -0.8306540  
C     8.3810220   -0.7489330    0.5621760  
O     9.4919430   -0.7344390    1.0687990  
C     7.1373420   -0.3649510    1.4434970  
O     7.3077400   -0.0786750    2.6173520  
C     5.8099460   -0.3666580    0.8163980  
H     8.9959890   -1.4091470   -1.4372490  
H     4.9626070   -0.1023750    1.4405500  
H     4.4683180   -1.4115020   -3.5065890  
H     6.9631560   -1.6638980   -3.3416380  
C    -3.3135340   -3.6027710    2.8661790  
C    -3.0459500   -2.4252210    2.2432980  
C    -3.8784920   -2.3678860    1.0613320  
C    -4.6636440   -3.6234260    1.0438950  
N    -4.2623230   -4.3325950    2.1588960  
C    -5.5959420   -3.9535590    0.1111150  
C    -5.8473430   -3.0127960   -0.9666750  
O    -6.6928970   -3.1814740   -1.8318510  
C    -4.9847180   -1.6952400   -1.0258500  
O    -5.1089480   -0.9574710   -1.9853920  
C    -4.0315130   -1.4248850    0.0791900  
H    -2.3520720   -1.6680270    2.5744910  
H    -6.1673150   -4.8758870    0.1373890  
H    -2.9021980   -4.0011220    3.7840610  
H    -4.6501290   -5.2177870    2.4448550  
