58


C     7.4575220    0.3606020   -3.0478690  
C     8.4427350   -0.1965700   -2.2986360  
C     7.8642910   -0.5250830   -1.0161160  
C     6.4320830   -0.1236650   -1.0911150  
N     6.2495040    0.3723730   -2.3592270  
C     5.5043960   -0.3022460   -0.0814780  
C     6.0759510   -0.7798580    1.2080200  
O     5.4481240   -0.7872490    2.2531530  
C     7.5647960   -1.2841600    1.2659790  
O     7.9493570   -1.8224820    2.2923440  
C     8.4054550   -1.0923650    0.0953760  
H     9.4684370   -0.3617840   -2.5941580  
H     9.4383800   -1.4228990    0.1442930  
H     7.4993240    0.7575350   -4.0536560  
H     5.4758000    1.0076960   -2.5405410  
C     1.9635380   -2.4539150    1.4906710  
C     3.2044700   -2.1059620    1.0660470  
C     3.1079880   -0.8062270    0.4443200  
C     1.6829790   -0.4320840    0.5203320  
N     1.0400110   -1.4727120    1.1449490  
C     1.1211150    0.7595790    0.1071110  
C     2.0484160    1.6760160   -0.5822600  
O     1.7293160    2.7344530   -1.0834940  
C     3.5479440    1.2212520   -0.7969660  
O     4.2057320    1.9336980   -1.5472180  
C     4.0686660    0.0051510   -0.1432900  
H     4.0977490   -2.6952620    1.1881480  
H     1.6382970   -3.3456970    2.0089680  
H     0.1003720   -1.3875560    1.5056160  
C    -0.2701760    1.0947860    0.3076030  
C    -1.3663270    0.2502810    0.3304740  
C    -2.5119760    1.0957230    0.5506490  
C    -1.9282690    2.4620760    0.6786070  
N    -0.6339590    2.4603130    0.5344670  
C    -2.7457240    3.6233130    0.9158570  
C    -4.0837480    3.4408560    0.9696000  
O    -4.9715650    4.4278460    1.1591330  
C    -4.7150630    2.0783020    0.8209810  
O    -5.9421670    2.0292900    0.9122250  
C    -3.8653190    0.8783350    0.6099560  
H    -1.3937880   -0.7944170    0.0518680  
H    -2.2866790    4.6000710    1.0172290  
H    -5.8521330    3.9908340    1.1621960  
C    -4.0038370   -1.5447200    1.2250400  
C    -4.4857760   -0.4444920    0.5671770  
C    -5.6756270   -0.8994860   -0.1645850  
C    -5.8194330   -2.3453850    0.1358920  
N    -4.7701220   -2.6667890    0.9801190  
C    -6.7974410   -3.1504030   -0.3482250  
C    -7.7857580   -2.5707610   -1.2532460  
O    -8.7032020   -3.2123400   -1.7402400  
C    -7.6391060   -1.0498920   -1.6152290  
O    -8.4371590   -0.5446160   -2.3869580  
C    -6.5404850   -0.2839910   -1.0088240  
H    -6.8761550   -4.2058760   -0.1062440  
H    -6.4801630    0.7701590   -1.2501290  
H    -3.1553020   -1.6018100    1.8933650  
H    -4.6493480   -3.5621310    1.4281860  
