58


C     4.7701830   -0.8166560   -2.2584130  
C     5.6294250   -1.8382610   -2.4839010  
C     6.2968500   -2.1329570   -1.2362000  
C     5.7532610   -1.1766960   -0.2403550  
N     4.8340830   -0.3744440   -0.9263970  
C     6.0897060   -1.1797930    1.0724380  
C     7.0747670   -2.1578080    1.5372330  
O     7.4294750   -2.2303320    2.7034610  
C     7.6913310   -3.1519530    0.4899210  
O     8.5241670   -3.9642030    0.8613660  
C     7.2223600   -3.0671890   -0.8938900  
H     5.7837810   -2.3453230   -3.4254100  
H     5.6819930   -0.4904660    1.8000710  
H     7.6262390   -3.7780370   -1.6084160  
H     4.0853600   -0.3294660   -2.9355200  
C     0.6130650    0.2347330   -1.3464620  
C     0.3837480    1.3695770   -0.6102630  
C     1.7329310    1.7435700   -0.1115690  
C     2.6223490    0.6908860   -0.6634300  
N     1.9590530   -0.1699400   -1.3898740  
C     4.0494980    0.6638240   -0.3955590  
C     4.5562370    1.6606680    0.3905940  
O     5.8586890    1.7877330    0.6918120  
C     3.6766180    2.7027270    0.9856820  
O     4.2067760    3.5660540    1.6870830  
C     2.2253120    2.7024530    0.6941020  
H     5.9114280    2.5795860    1.2735670  
H     1.6396690    3.5053200    1.1229500  
H    -0.1171380   -0.3318350   -1.9095610  
C    -3.7779070   -0.2133350   -0.1087650  
C    -2.4026150   -0.1316040   -0.2522970  
C    -2.0878880    1.2566440   -0.2683420  
C    -3.4188230    1.9323000   -0.1163370  
N    -4.3948610    1.0721170   -0.0330190  
C    -3.5516010    3.3604340   -0.0609170  
C    -2.4127790    4.0869920   -0.1233200  
O    -2.3722300    5.4213610   -0.0675590  
C    -1.0444780    3.4456740   -0.2648030  
O    -0.0949890    4.2316890   -0.3090650  
C    -0.9107320    1.9787760   -0.3606320  
H    -1.7017900   -0.9513880   -0.3069640  
H    -4.5287320    3.8185140    0.0416040  
H    -1.4190530    5.6567720   -0.1412620  
C    -4.1710710   -2.6865540   -0.0636730  
C    -4.6082530   -1.3781220   -0.0224550  
C    -6.0686720   -1.4435500    0.1288150  
C    -6.4158710   -2.8825660    0.1689150  
N    -5.2132640   -3.5680190    0.0467870  
C    -7.6667970   -3.3850830    0.2992290  
C    -8.7778090   -2.4390600    0.4100580  
O    -9.9396460   -2.7912110    0.5297900  
C    -8.4389940   -0.9056530    0.3704400  
O    -9.3484390   -0.0987490    0.4606540  
C    -7.0329820   -0.4948290    0.2251620  
H    -7.8880610   -4.4476310    0.3254310  
H    -6.7979530    0.5621000    0.1987980  
H    -3.1596800   -3.0568930   -0.1667750  
H    -5.1237690   -4.5735280    0.0426360  
