60


C     1.3452430   -0.8300960   -3.0616040  
C     2.5591560   -0.8360270   -2.4231750  
C     2.3789810   -0.1724000   -1.1640310  
C     1.0193710    0.2198320   -1.0974590  
N     0.4052960   -0.2181660   -2.2554610  
C     0.4642090    0.9574570   -0.0307000  
C     1.3421310    1.2997080    0.9997810  
O     0.8668850    1.9498420    2.0928350  
C     2.7088420    0.9286310    0.9608440  
O     3.4044120    1.3168550    2.0802230  
C     3.2561820    0.1924110   -0.1023840  
H     3.4758400   -1.2483560   -2.8176570  
H    -0.5178500    0.0637320   -2.5504150  
H     1.6248720    2.1360560    2.6745580  
H     4.3124170    0.9578310    2.0444600  
H     1.0664990   -1.2221680   -4.0293640  
C    -3.1800110   -1.4722350   -0.0486610  
C    -4.1415440   -0.5006590   -0.0380100  
C    -3.4264100    0.7797740   -0.0212190  
C    -1.9832980    0.4521970   -0.0279150  
N    -1.9047390   -0.9275450   -0.0526250  
C    -0.9581530    1.3554190    0.0010670  
C    -1.3376320    2.7829080    0.0374860  
O    -0.5238260    3.6878510   -0.0086670  
C    -2.8655610    3.1473200    0.1069630  
O    -3.1818300    4.3201910    0.2161140  
C    -3.8538090    2.0658300    0.0388630  
H    -4.9023650    2.3401330    0.0385980  
H    -3.3071340   -2.5465980   -0.0889060  
H    -1.0397290   -1.4465020   -0.0500140  
C    -6.7029480   -2.9743820    2.5362370  
C    -7.9053180   -2.7530290    1.9476150  
C    -7.6835740   -1.8488360    0.8378800  
C    -6.2291440   -1.5627370    0.8260990  
N    -5.6850460   -2.3072940    1.8568390  
C    -5.5940620   -0.7166160   -0.0414340  
C    -6.4446990   -0.0549930   -1.0505620  
O    -5.9976400    0.7063960   -1.8929760  
C    -7.9905750   -0.3552470   -1.0593220  
O    -8.6844020    0.2067900   -1.8914780  
C    -8.5263790   -1.2853260   -0.0688110  
H    -8.8547180   -3.1720270    2.2475970  
H    -9.5937910   -1.4822510   -0.0824950  
H    -6.4619590   -3.5808170    3.3993970  
H    -4.7511050   -2.1604680    2.2103590  
C     4.6544600   -0.2038040   -0.0960220  
C     5.2584670   -1.3432000   -0.5508510  
C     6.6700770   -1.2642760   -0.2785790  
C     6.8844160    0.0429530    0.3791180  
N     5.6187520    0.6317220    0.5477710  
C     8.0926520    0.5314450    0.7342180  
C     9.2767900   -0.3005680    0.4904950  
O    10.4044900    0.0605870    0.7833720  
C     9.0663840   -1.7174810   -0.1553540  
O    10.0428560   -2.4273940   -0.3462390  
C     7.7068330   -2.1161810   -0.5125960  
H     4.7460870   -2.1920220   -0.9800860  
H     8.2351970    1.4979920    1.2082690  
H     7.5731680   -3.0866130   -0.9808160  
H     5.5407120    1.6353560    0.4075060  
