58


C     5.0446590   -2.1066500   -1.5723570  
C     6.3365740   -2.4870120   -1.7030190  
C     7.1336700   -1.6356000   -0.8432380  
C     6.1873070   -0.7038120   -0.1872150  
N     4.9091700   -1.0361040   -0.6668820  
C     6.5473260    0.2237400    0.7298310  
C     7.9664440    0.3402770    1.0807040  
O     8.3753040    1.1417360    1.9037610  
C     8.9893740   -0.6171610    0.3730200  
O    10.1745180   -0.5298290    0.6466080  
C     8.4658770   -1.5972430   -0.5854550  
H     6.7095860   -3.2673930   -2.3509520  
H     5.8514570    0.9018940    1.2091390  
H     9.1737690   -2.2747290   -1.0530400  
H     4.1623820   -2.4783850   -2.0764960  
C     1.2294390   -2.7745940    0.7253540  
C     0.4354090   -1.6617440    0.6786390  
C     1.2433390   -0.5623970    0.2363300  
C     2.5867900   -1.1175500    0.0357060  
N     2.5076070   -2.4728950    0.3034180  
C     3.6952700   -0.4082570   -0.3543920  
C     3.5226810    1.0363130   -0.5648650  
O     4.3968890    1.7599730   -1.0034220  
C     2.1285550    1.6694850   -0.2229490  
O     2.0871800    2.8942080   -0.1998380  
C     0.9700330    0.7954840    0.0386000  
H    -0.5995550   -1.6271660    0.9756230  
H     0.9812800   -3.7802230    1.0369080  
H     3.3089750   -3.0792320    0.3990780  
C    -0.3504670    1.3656670    0.0937990  
C    -1.6015490    0.7425190    0.0080720  
C    -2.6045500    1.7385380    0.0358600  
C    -1.8877330    3.0305310    0.1253560  
N    -0.5450610    2.7321640    0.1875150  
C    -2.4781590    4.2521390    0.1373630  
C    -3.9260000    4.3137490    0.0094070  
O    -4.5583680    5.3568900    0.0226310  
C    -4.7142870    2.9700210   -0.1733690  
O    -5.9117080    3.0613490   -0.4275670  
C    -4.0022810    1.6843640   -0.0347830  
H    -1.7602840   -0.3055160   -0.1756990  
H    -1.9251840    5.1817210    0.2247240  
H     0.2337760    3.3806730    0.1597390  
C    -4.7507640    0.4520780    0.0132450  
C    -4.3657170   -0.8086980    0.4564610  
C    -5.4884800   -1.6844560    0.3466870  
C    -6.5999210   -0.8631450   -0.1947100  
N    -6.0870230    0.4001850   -0.3790330  
C    -7.8491970   -1.3363770   -0.4349160  
C    -8.1293260   -2.7420250   -0.1523740  
O    -9.2224290   -3.2541330   -0.3404990  
C    -6.9658520   -3.6317780    0.4196380  
O    -7.1821500   -4.8121560    0.6580360  
C    -5.6647640   -3.0077130    0.6423470  
H    -3.4135950   -1.0661200    0.8913610  
H    -8.6531170   -0.7214720   -0.8270600  
H    -4.8692450   -3.6299990    1.0416820  
H    -6.5891910    1.2460580   -0.6244800  
