60


C    -0.6990060   -0.8465110   -1.8873150  
C    -2.0500370   -0.6351480   -1.8702530  
C    -2.5120260   -0.9259060   -0.5410730  
C    -1.3790650   -1.3123450    0.2163770  
N    -0.2692930   -1.2597180   -0.6245350  
C    -1.4457930   -1.6126410    1.5806220  
C    -2.6891800   -1.5341570    2.1854180  
O    -2.8157570   -1.8257830    3.5102450  
C    -3.8425990   -1.1662540    1.4434250  
O    -4.9986450   -1.1719430    2.1958410  
C    -3.7848840   -0.8585680    0.0852230  
H    -2.6478240   -0.3140580   -2.7116930  
H    -0.5841820   -1.9198200    2.1608600  
H    -3.7587480   -1.7458700    3.7361600  
H    -5.7601190   -0.9502190    1.6378510  
H     0.0101320   -0.7920200   -2.7016230  
C     3.1301790    1.3725200   -0.8185100  
C     4.1280470    0.5210900   -0.4324360  
C     3.4811620   -0.7673520   -0.1566800  
C     2.0399720   -0.5656880   -0.4168450  
N     1.8932320    0.7433670   -0.8186660  
C     1.0736920   -1.5205900   -0.2759430  
C     1.4906580   -2.8523690    0.1864900  
O     0.7183510   -3.7846470    0.3247750  
C     3.0157530   -3.0632930    0.5196370  
O     3.3642440   -4.1410190    0.9705530  
C     3.9535800   -1.9587510    0.2891430  
H     5.0047990   -2.1450880    0.4733760  
H     3.2081980    2.4055060   -1.1322690  
H     1.0135360    1.1579670   -1.0885350  
C     6.1436480    3.8543970    1.5976930  
C     7.4304630    3.5864350    1.2613950  
C     7.4247550    2.3852320    0.4519910  
C     6.0053770    1.9733200    0.3382830  
N     5.2748980    2.9292050    1.0211150  
C     5.5523030    0.8576830   -0.3125290  
C     6.5798200    0.0143480   -0.9554840  
O     6.3075060   -1.0013180   -1.5744910  
C     8.0913680    0.4455510   -0.8575680  
O     8.9305330   -0.2639790   -1.3886450  
C     8.4228230    1.6672720   -0.1295780  
H     8.3013940    4.1603110    1.5425530  
H     9.4682830    1.9520170   -0.0644720  
H     5.7445280    4.6576180    2.2030100  
H     4.3088440    2.8011820    1.2843970  
C    -5.4161110   -1.0751890   -1.8444910  
C    -4.9980090   -0.5034640   -0.6758030  
C    -5.9751370    0.5400280   -0.3662680  
C    -6.9879720    0.5083520   -1.4522380  
N    -6.5809700   -0.4873130   -2.3184870  
C    -8.0679550    1.3266120   -1.5214470  
C    -8.2561250    2.3203470   -0.4671570  
O    -9.1996450    3.0949940   -0.4428910  
C    -7.1837380    2.3906240    0.6807980  
O    -7.3098160    3.2299660    1.5577950  
C    -6.0661090    1.4403390    0.6509130  
H    -8.7977320    1.2859210   -2.3243550  
H    -5.3305400    1.5026890    1.4466690  
H    -4.9580900   -1.8885480   -2.3918280  
H    -7.0808270   -0.7721020   -3.1462740  
