60


C    -0.9016790   -1.3013590    1.1263270  
C    -2.2463070   -1.2753810    0.8862060  
C    -2.5042660   -0.1947520   -0.0283170  
C    -1.2502260    0.3967940   -0.3225210  
N    -0.2760470   -0.2824540    0.4095740  
C    -1.0921910    1.4303690   -1.2503120  
C    -2.2363220    1.8686250   -1.8987360  
O    -2.1574890    2.8577550   -2.8270910  
C    -3.5098760    1.3012270   -1.6249130  
O    -4.5307820    1.8726750   -2.3448230  
C    -3.6824570    0.2931280   -0.6694200  
H    -2.9710620   -1.9504250    1.3164920  
H    -0.1305320    1.8677700   -1.4926150  
H    -3.0658940    2.9665190   -3.1702610  
H    -5.1087020    1.1358400   -2.6540440  
H    -0.3109430   -1.9434830    1.7640370  
C     2.0607580   -0.9597040    0.0416880  
C     1.1072660   -0.0520800    0.3764870  
C     1.7852040    1.1733530    0.7717290  
C     3.2341130    0.8918480    0.6390480  
N     3.3487590   -0.4167200    0.1732080  
C     4.2090360    1.7819680    0.9679570  
C     3.8152100    3.1021860    1.4605560  
O     4.6275730    3.9587560    1.7722490  
C     2.2831390    3.4184160    1.5907470  
O     1.9357420    4.5153750    1.9948260  
C     1.3265230    2.3660570    1.2268670  
H     5.2677640    1.5509500    0.9373100  
H     0.2685670    2.5778480    1.3414380  
H     1.9408340   -1.9810900   -0.2849510  
C     6.9134590    0.6094570   -2.1540620  
C     7.6394290   -0.5102960   -1.9142100  
C     6.8338750   -1.3803960   -1.0820090  
C     5.5618800   -0.6532370   -0.8496870  
N     5.6598720    0.5302700   -1.5438790  
C     4.5368020   -1.1340640   -0.0794950  
C     4.6833650   -2.4793720    0.4977000  
O     3.8020020   -3.0136480    1.1517380  
C     6.0239650   -3.2616840    0.2375290  
O     6.1381160   -4.3773690    0.7170320  
C     7.0564460   -2.6218970   -0.5725410  
H     8.6312640   -0.7254430   -2.2835780  
H     7.9783590   -3.1688370   -0.7415620  
H     7.1689800    1.4867510   -2.7329850  
H     5.0074640    1.2963640   -1.4628200  
C    -5.7024300   -0.3379810    3.2312050  
C    -4.8592690    0.0406870    2.2349550  
C    -5.4366270   -0.3983060    0.9848300  
C    -6.7112380   -1.0719970    1.3422160  
N    -6.7995930   -1.0210200    2.7185350  
C    -7.5744950   -1.6312720    0.4554580  
C    -7.2425590   -1.5286200   -0.9532990  
O    -7.9093600   -2.0226740   -1.8486890  
C    -5.9632160   -0.7022970   -1.3543100  
O    -5.8397030   -0.4375050   -2.5493120  
C    -5.0106020   -0.2633540   -0.3197990  
H    -3.9313720    0.5773110    2.3516500  
H    -8.4763580   -2.1621110    0.7424530  
H    -5.6195120   -0.1763710    4.2978050  
H    -7.5888330   -1.3454490    3.2548840  
