58


C     6.2622320   -3.8704810   -0.6072910  
C     7.4890800   -3.3995160   -0.2665190  
C     7.3193000   -2.0276820    0.1618480  
C     5.8731230   -1.7354830    0.0494410  
N     5.2843640   -2.9053530   -0.3878400  
C     5.2741050   -0.5240720    0.3116450  
C     6.1917790    0.5582040    0.7324080  
O     5.8184730    1.6962830    0.9659790  
C     7.7285080    0.2484520    0.9038260  
O     8.4568800    1.1533050    1.2801410  
C     8.2092810   -1.0897500    0.5894140  
H     8.4217180   -3.9430500   -0.3060830  
H     9.2715270   -1.2881680    0.6911820  
H     5.9783850   -4.8439330   -0.9847780  
H     4.3321780   -2.9544260   -0.7205760  
C     2.8486700   -1.2355230    0.4903620  
C     3.8338970   -0.3208190    0.2226380  
C     3.0786630    0.8738950   -0.2372860  
C     1.6524090    0.4540730   -0.1612970  
N     1.5348430   -0.7756740    0.2599320  
C     0.5617310    1.3286370   -0.5469900  
C     0.9051840    2.5472630   -1.0464010  
O     0.0184110    3.4658780   -1.4550950  
C     2.3345770    2.9866630   -1.1585960  
O     2.5508460    4.1062910   -1.6193860  
C     3.4186790    2.0844630   -0.7158410  
H     0.5593910    4.2318350   -1.7511430  
H     4.4330080    2.4570890   -0.7812030  
H     2.9753050   -2.2308880    0.9011100  
C    -1.7869630    0.3417960    3.0155420  
C    -2.9833510   -0.0196510    2.4956060  
C    -2.8350520    0.1487790    1.0545120  
C    -1.4181350    0.6119370    0.8878090  
N    -0.8208090    0.7348690    2.0350950  
C    -0.8436630    0.8897860   -0.4156070  
C    -1.6724460    0.7479830   -1.4842300  
O    -1.2988000    0.9798410   -2.7506420  
C    -3.1039610    0.3127600   -1.3487730  
O    -3.7816240    0.2790350   -2.3719760  
C    -3.6616160   -0.0202330   -0.0061160  
H    -3.8689280   -0.3500610    3.0185270  
H    -2.1016110    0.8202680   -3.2943280  
H    -1.4942900    0.3614950    4.0586270  
C    -7.3853370    1.3915630    2.0565490  
C    -6.0950340    1.3115850    1.6530470  
C    -6.0393370    0.1327380    0.7955560  
C    -7.4483420   -0.3813940    0.7961830  
N    -8.2262330    0.3570550    1.5335780  
C    -7.8330490   -1.5436890    0.0394340  
C    -6.8759450   -2.1697340   -0.6833070  
O    -7.0891190   -3.2680580   -1.4240540  
C    -5.4476880   -1.6942900   -0.6943010  
O    -4.6316450   -2.3706980   -1.3119920  
C    -5.0641860   -0.4681780    0.0690660  
H    -5.2741870    1.9680000    1.9024650  
H    -8.8600870   -1.8904630    0.0621640  
H    -6.2154780   -3.5038750   -1.8058410  
H    -7.8321520    2.1343930    2.7067230  
