58


C     3.3970810    2.0882160   -0.4411680  
C     4.1029010    1.1279610    0.2186550  
C     3.1457530    0.3198070    0.9560580  
C     1.8117530    0.8945830    0.6493470  
N     2.0404450    1.9389700   -0.2272840  
C     0.6045520    0.4153560    1.1238710  
C     0.7315460   -0.7319860    2.0425420  
O    -0.2288130   -1.3085420    2.5456340  
C     2.1491810   -1.3160290    2.4152550  
O     2.1907650   -2.2441020    3.2049960  
C     3.3251410   -0.7385590    1.7851110  
H     4.2995420   -1.1593200    2.0098520  
H     3.7658370    2.8851490   -1.0737190  
H     1.3747900    2.7088530   -0.2616090  
C     6.4185610    1.6570770    1.0029930  
C     7.6871400    1.2258630    0.8004000  
C     7.6316340    0.1602710   -0.1789260  
C     6.2008970    0.0052060   -0.5381180  
N     5.5002720    0.9508170    0.2111620  
C     5.7258810   -0.8938500   -1.4347580  
C     6.6808490   -1.7805740   -2.0976880  
O     6.3475300   -2.6205900   -2.9188370  
C     8.2040170   -1.6364390   -1.7316940  
O     9.0149660   -2.3689140   -2.2760430  
C     8.5878180   -0.6206930   -0.7471990  
H     8.5770760    1.6056640    1.2811020  
H     4.6746730   -0.9863910   -1.6863110  
H     9.6420400   -0.5276530   -0.5043660  
H     6.0469310    2.4321880    1.6602360  
C    -3.2975810   -1.5033760    0.2111060  
C    -4.0595460   -0.4164060   -0.1002560  
C    -3.1838220    0.7454270    0.0845510  
C    -1.8581870    0.2172740    0.5127680  
N    -1.9942230   -1.1454530    0.5298700  
C    -0.7250380    0.9771930    0.7732870  
C    -0.9263140    2.4243780    0.6618490  
O    -0.0332680    3.2596660    0.8062930  
C    -2.3477200    3.0010090    0.3210420  
O    -2.4929700    4.2108050    0.3345310  
C    -3.4235190    2.0737080   -0.0134490  
H    -4.3747090    2.4869980   -0.3245970  
H    -3.5721770   -2.5495390    0.1942150  
H    -1.3737280   -1.7147260    1.0969010  
C    -7.5717540   -2.6342960    1.4587750  
C    -6.3392030   -2.0889540    1.2821260  
C    -6.4047450   -1.2336370    0.1162880  
C    -7.8017720   -1.3233610   -0.3743830  
N    -8.4481780   -2.2035110    0.4718540  
C    -8.3017480   -0.6464110   -1.4404840  
C    -7.4073760    0.2447580   -2.1603480  
O    -7.7545970    0.9260670   -3.1123950  
C    -5.9093990    0.3410680   -1.6848830  
O    -5.1524810    1.0575700   -2.3187010  
C    -5.4672210   -0.4445430   -0.5065270  
H    -5.4800770   -2.2456530    1.9160400  
H    -9.3315600   -0.7283700   -1.7735210  
H    -7.9170760   -3.3123210    2.2279450  
H    -9.4273760   -2.4365630    0.4179470  
