60


C    -0.2060690   -2.9474900   -0.0677650  
C     0.6104090   -1.8147080   -0.1346700  
C     1.9492950   -2.2333220    0.0687880  
C     1.9200800   -3.6471380    0.2310320  
N     0.6098180   -4.0444670    0.1531790  
C     3.0784420   -4.4077540    0.4204220  
C     4.2893530   -3.7317540    0.4507220  
O     5.4433790   -4.4239500    0.6495040  
C     4.3504220   -2.3200040    0.2967410  
O     5.6258530   -1.8159420    0.3937080  
C     3.1988030   -1.5444090    0.1072540  
H     0.3037030   -0.8135200   -0.3878590  
H     0.2322900   -4.9848370    0.1678810  
H     3.0612930   -5.4846700    0.5494550  
H     6.1675690   -3.7742290    0.6863960  
H     5.5884760   -0.8404650    0.4366470  
C    -3.3850950    0.0801280    0.0783630  
C    -4.4708650   -0.7499600   -0.1337630  
C    -3.9821410   -2.0957610   -0.2665850  
C    -2.5175640   -2.0129110   -0.1274070  
N    -2.2215740   -0.6852200    0.0564870  
C    -1.6449090   -3.0806130   -0.1741060  
C    -2.2827560   -4.4077640   -0.2995380  
O    -1.6587540   -5.4611380   -0.2358450  
C    -3.8412970   -4.5068050   -0.5164490  
O    -4.3184160   -5.6173820   -0.7042420  
C    -4.6233320   -3.2870600   -0.4704440  
H    -5.5161700   -0.4824890   -0.0904000  
H    -5.6986780   -3.3649340   -0.5941830  
H    -1.3534250   -0.3062750    0.4143990  
C    -6.2455560    3.3202450   -0.7680780  
C    -5.5622100    4.3678030   -0.2502830  
C    -4.3015010    3.8539850    0.2466010  
C    -4.3194170    2.3939000   -0.0079400  
N    -5.5255170    2.1307340   -0.5994440  
C    -3.2978550    1.5135960    0.2964680  
C    -2.0657930    2.1314310    0.8164740  
O    -1.0235710    1.5157740    1.0179250  
C    -2.0501780    3.6698940    1.1395340  
O    -1.0408510    4.1434610    1.6320210  
C    -3.2327960    4.4656720    0.8206660  
H    -5.8837190    5.3984400   -0.2208280  
H    -3.1992620    5.5304450    1.0276550  
H    -7.2145360    3.2930880   -1.2477270  
H    -5.7351950    1.2604710   -1.0671490  
C     3.2642810   -0.0959070    0.0061940  
C     2.3842180    0.8628860    0.4256210  
C     2.9170400    2.1597400    0.1002360  
C     4.2137560    1.9126730   -0.5655370  
N     4.4368700    0.5246400   -0.5331590  
C     4.9977960    2.8790040   -1.0922920  
C     4.5539700    4.2716500   -0.9713790  
O     5.1997350    5.2074060   -1.4154840  
C     3.1970590    4.5582600   -0.2285060  
O     2.8217600    5.7177350   -0.1284570  
C     2.4375080    3.4213780    0.2871910  
H     1.4651500    0.6905330    0.9652360  
H     5.9452890    2.6840820   -1.5859840  
H     1.4898030    3.6152230    0.7820990  
H     4.8585650    0.0983090   -1.3534960  
