58


C     5.1395290   -1.8050230   -1.6429010  
C     5.2213840   -0.7649450   -0.7564040  
C     6.4637900   -0.9685600   -0.0020270  
C     7.0704190   -2.2137340   -0.5292910  
N     6.2082550   -2.6736830   -1.5119060  
C     8.2367230   -2.7530160   -0.0961120  
C     8.9529920   -2.0757710    0.9823880  
O    10.0070250   -2.4846330    1.4422090  
C     8.3172790   -0.7674290    1.5760520  
O     8.8805130   -0.1987190    2.4955550  
C     7.0544090   -0.2765260    1.0030080  
H     8.6618150   -3.6650820   -0.5036410  
H     6.6511740    0.6473610    1.4012720  
H     4.3931920   -1.9812990   -2.4075590  
H     6.4067780   -3.4435430   -2.1325390  
C     0.8912900   -0.8964770   -0.2581410  
C     0.5790400    0.4513160   -0.2864050  
C     1.8588800    1.1608910   -0.4258370  
C     2.9026090    0.1192820   -0.4948970  
N     2.2337120   -1.0968380   -0.3965250  
C     4.2478720    0.3223810   -0.6181910  
C     4.6813370    1.7396300   -0.6609930  
O     5.8499750    2.0661730   -0.7643990  
C     3.5863560    2.8659090   -0.5857800  
O     3.9522680    4.0280010   -0.6149280  
C     2.1760630    2.4793390   -0.4768620  
H     1.4188990    3.2519430   -0.4271100  
H     0.2258410   -1.7419300   -0.1448150  
H     2.7049850   -1.9874140   -0.3201690  
C    -0.7333360    1.0050170   -0.1849730  
C    -1.9505880    0.3376300   -0.0527390  
C    -2.9425730    1.3395930    0.0220130  
C    -2.1655000    2.6271180   -0.0710410  
N    -0.8832570    2.4166160   -0.2049870  
C    -2.7964930    3.9095620   -0.0030940  
C    -4.1352570    3.9275200    0.1965620  
O    -4.8547900    5.0435070    0.3151830  
C    -4.9588810    2.6572990    0.3176250  
O    -6.1623970    2.8417140    0.5515090  
C    -4.3298340    1.3422730    0.1540620  
H    -2.0940420   -0.7281710    0.0305530  
H    -2.2100070    4.8174960   -0.0844540  
H    -5.7808140    4.7453050    0.4697690  
C    -5.1526440    0.1503080    0.1300600  
C    -4.8352540   -1.1246850   -0.3040200  
C    -5.9967810   -1.9502630   -0.1600110  
C    -7.0578140   -1.0744570    0.3959050  
N    -6.4837030    0.1659780    0.5573140  
C    -8.3231040   -1.4856790    0.6659620  
C    -8.6743570   -2.8778660    0.4010040  
O    -9.7868810   -3.3366070    0.6129360  
C    -7.5635680   -3.8259220   -0.1836820  
O    -7.8401100   -4.9957380   -0.4085000  
C    -6.2378540   -3.2651420   -0.4365940  
H    -3.8997430   -1.4330730   -0.7412080  
H    -9.0889510   -0.8311620    1.0703270  
H    -5.4798230   -3.9272840   -0.8444500  
H    -6.9559750    1.0253370    0.8023710  
