62


C     1.7777940   -2.1930440    2.9512150  
C     2.9859810   -1.9519980    2.3486390  
C     2.7069890   -1.2774990    1.1120150  
C     1.2989290   -1.1288160    1.0220890  
N     0.7615840   -1.6959280    2.1591240  
C     0.6353780   -0.5035700   -0.0542830  
C     1.4571570   -0.0166190   -1.0727640  
O     0.9142640    0.6310350   -2.1333310  
C     2.8690570   -0.1748040   -1.0290910  
O     3.5266180    0.2905010   -2.1492200  
C     3.4976020   -0.7982960    0.0453180  
H     3.9568840   -2.2135360    2.7449230  
H    -0.2265530   -1.7566550    2.3528120  
H     1.6547500    0.8814900   -2.7157880  
H     4.3849510    0.6816060   -1.9039830  
H     1.5540690   -2.6752600    3.8922160  
C    -2.0724250    1.5592480    2.7370590  
C    -3.2584590    1.2613160    2.1218470  
C    -2.9526230    0.4947620    0.9466860  
C    -1.5415460    0.3459370    0.9156240  
N    -1.0314590    0.9973150    2.0203750  
C    -0.8404040   -0.3629890   -0.0813630  
C    -1.6310960   -0.9607210   -1.0619580  
O    -1.0573250   -1.7037000   -2.0430450  
C    -3.0461720   -0.8487340   -1.0476180  
O    -3.6593000   -1.4881720   -2.1070550  
C    -3.7353350   -0.1098130   -0.0776430  
H    -4.2360310    1.5717380    2.4566470  
H    -0.0488600    1.1393310    2.1963970  
H    -1.7980980   -2.0143430   -2.5984990  
H    -4.3843290   -2.0431140   -1.7501080  
H    -1.8763840    2.1265880    3.6358680  
C     5.5536760   -2.2265390    0.0860600  
C     6.8986700   -2.0966890   -0.0141100  
C     7.1853000   -0.6821920   -0.1318780  
C     5.8700210    0.0071980   -0.0804000  
N     4.9098420   -0.9787570    0.0512470  
C     5.7103360    1.3605100   -0.1512470  
C     6.9015780    2.1961580   -0.2823100  
O     6.8589860    3.4160330   -0.3242100  
C     8.2998040    1.4822720   -0.3636400  
O     9.3049260    2.1601180   -0.5039450  
C     8.3410030    0.0191370   -0.2605210  
H     7.6235160   -2.8977310   -0.0146990  
H     4.7494400    1.8521200   -0.0290450  
H     9.3156950   -0.4585520   -0.2935710  
H     4.9459640   -3.1166790    0.1746560  
C    -6.3650580    3.4457530    0.0973570  
C    -7.5966140    2.8974210    0.0111390  
C    -7.3649120    1.4591980   -0.0992250  
C    -5.8737810    1.3206060   -0.0364240  
N    -5.3025140    2.4816490    0.0673160  
C    -5.2061360    0.0167390   -0.1273570  
C    -6.0478540   -1.0381690   -0.3230350  
O    -5.6125380   -2.3238500   -0.4642140  
C    -7.5299340   -0.9308770   -0.3918100  
O    -8.1746640   -1.9718070   -0.5474720  
C    -8.1669350    0.3921710   -0.2650250  
H    -8.5561500    3.3956000    0.0020830  
H    -6.4381520   -2.8527510   -0.5704340  
H    -9.2501020    0.4338770   -0.3276280  
H    -6.1004810    4.4927230    0.1815740  
