60


C    -1.7405880   -0.4859540   -0.1378710  
C    -3.0643740   -0.1539220   -0.3264220  
C    -3.1438040    1.2973360   -0.2311860  
C    -1.8439400    1.7804350    0.0375110  
N    -1.0016270    0.6687500    0.0795750  
C    -1.5366440    3.1305260    0.2225790  
C    -2.5875030    4.0304450    0.1312100  
O    -2.3582590    5.3616230    0.2912950  
C    -3.9059510    3.5724600   -0.1353330  
O    -4.8404460    4.5845760   -0.2007310  
C    -4.1937440    2.2327170   -0.3103210  
H    -0.5328170    3.4838650    0.4298640  
H    -3.2095220    5.8181540    0.1714150  
H    -5.6888940    4.2250050   -0.5006940  
H    -5.2038660    1.9136670   -0.5424180  
H    -1.2444420   -1.4441280   -0.1790170  
C     1.2946580    0.8293260   -0.7595730  
C     2.5651200    0.7076490   -0.2798870  
C     2.4438850    0.4712340    1.1623040  
C     0.9965610    0.4614380    1.4750140  
N     0.3515280    0.7098390    0.2670580  
C     0.4620490    0.2488650    2.7007340  
C     1.3773090    0.0227240    3.8185770  
O     0.9972280   -0.2010340    4.9564600  
C     2.9210640    0.0773540    3.5282680  
O     3.7048820   -0.0813560    4.4490760  
C     3.3648560    0.3122890    2.1469570  
H    -0.6059340    0.2522330    2.8905480  
H     4.4339380    0.3511320    1.9658730  
H     0.9504330    0.9904330   -1.7721480  
C     4.0686090    1.7713860   -2.0186560  
C     3.7855530    0.8404390   -1.0647110  
C     4.9642980   -0.0499130   -1.0716180  
C     5.8588220    0.5393090   -2.1143430  
N     5.3245200    1.5955760   -2.6611930  
C     7.1341030   -0.0461770   -2.4336570  
C     7.4964700   -1.1749770   -1.7780930  
O     8.6513270   -1.8275200   -1.9807200  
C     6.6032820   -1.8098220   -0.7474460  
O     6.9938740   -2.8398180   -0.2036560  
C     5.3020320   -1.1816990   -0.4259040  
H     7.7657720    0.4119010   -3.1865670  
H     8.6300250   -2.5990760   -1.3732830  
H     4.6912780   -1.6725600    0.3252090  
H     3.4512100    2.6135570   -2.3096500  
C    -3.9052890   -4.1145670    1.4937510  
C    -3.4036660   -2.8859990    1.2052240  
C    -4.1938230   -2.3334260    0.1230970  
C    -5.2195690   -3.3566150   -0.1906530  
N    -4.9724450   -4.4186860    0.6553740  
C    -6.1986790   -3.2278470   -1.1257780  
C    -6.2608180   -1.9866410   -1.8716040  
O    -7.1142010   -1.7384160   -2.7110320  
C    -5.1714940   -0.8848590   -1.5790170  
O    -5.2252690    0.1474650   -2.2271640  
C    -4.1297150   -1.1349630   -0.5498160  
H    -2.5847120   -2.4003470    1.7124290  
H    -6.9376410   -3.9964510   -1.3290690  
H    -3.5921720   -4.8245330    2.2476070  
H    -5.5440040   -5.2466840    0.7159710  
