60


C     2.7664450   -0.6716350   -2.0156120  
C     3.6666880    0.0313730   -1.2515810  
C     2.9303880    0.6598770   -0.1846680  
C     1.5733420    0.3080290   -0.3802250  
N     1.4978370   -0.4678500   -1.5226100  
C     0.5313000    0.7583720    0.4672240  
C     0.9449900    1.4899340    1.5904860  
O     0.0434200    1.8611480    2.5367000  
C     2.3067790    1.8435120    1.7892030  
O     2.5164650    2.5959400    2.9281800  
C     3.2981100    1.4651130    0.9087750  
H     0.7270930   -1.1224080   -1.6354100  
H     0.5330720    2.3548910    3.2185310  
H     3.4666120    2.6683130    3.1026730  
H     4.3325880    1.7557760    1.0727670  
H     2.9392900   -1.3008250   -2.8772340  
C    -1.7758960   -2.8512580   -0.7231030  
C    -3.0517700   -2.4279230   -0.5768680  
C    -2.9474740   -1.0231090   -0.2077540  
C    -1.4693710   -0.7621580   -0.1404860  
N    -0.8037180   -1.8364810   -0.4701370  
C    -0.9111070    0.5322080    0.2174420  
C    -1.8295260    1.5454040    0.3078980  
O    -1.5041150    2.8245080    0.5127070  
C    -3.3129210    1.3255460    0.2308640  
O    -4.0389180    2.2938040    0.4383060  
C    -3.8581370   -0.0323940   -0.0522540  
H    -3.9634400   -2.9897490   -0.7177170  
H    -2.3577550    3.3063330    0.5891290  
H    -1.4273350   -3.8372440   -1.0059040  
C    -6.9366630   -2.5372510    2.0263330  
C    -5.7410990   -2.0121890    1.6649540  
C    -6.0516190   -1.0594290    0.6064050  
C    -7.5436190   -1.1459260    0.4677030  
N    -8.0508680   -2.0100320    1.2984000  
C    -8.2663830   -0.3347530   -0.4753780  
C    -7.5556060    0.5199480   -1.2472610  
O    -8.0972200    1.3221340   -2.1756070  
C    -6.0566470    0.6198840   -1.1525790  
O    -5.4862780    1.3516090   -1.9549660  
C    -5.3183670   -0.1976060   -0.1428560  
H    -4.7636320   -2.2379210    2.0656920  
H    -9.3443500   -0.4222650   -0.5521100  
H    -7.3446010    1.7983320   -2.5893760  
H    -7.1296160   -3.2845620    2.7869060  
C     5.6324720    0.7750760   -2.6053830  
C     6.9884810    0.7242930   -2.5646240  
C     7.3534310    0.0231760   -1.3533590  
C     6.0754440   -0.3415220   -0.6900670  
N     5.0541300    0.1441690   -1.4999330  
C     5.9865390   -1.0253520    0.4797510  
C     7.2237090   -1.4200250    1.1467980  
O     7.2446970   -2.0275250    2.2073960  
C     8.5903410   -1.0381480    0.4657020  
O     9.6339830   -1.3593090    1.0140520  
C     8.5520230   -0.3091780   -0.8031430  
H     7.6689110    1.1355770   -3.2961140  
H     5.0405050   -1.2891920    0.9398210  
H     9.5004430   -0.0563750   -1.2677730  
H     4.9786050    1.2228650   -3.3420750  
