60


C     2.1971820   -1.3657460   -0.1098120  
C     0.9774060   -0.7807580   -0.3883510  
C     1.2358090    0.6313220   -0.6067020  
C     2.6269800    0.8241760   -0.4423310  
N     3.1957200   -0.4173930   -0.1175640  
C     3.2461000    2.0644130   -0.6466680  
C     2.4362190    3.1409430   -0.9868260  
O     2.9916710    4.3673510   -1.1806480  
C     1.0379080    2.9675070   -1.1460680  
O     0.3660360    4.1140490   -1.4974830  
C     0.4394360    1.7299710   -0.9808590  
H     4.3191070    2.2061210   -0.5917220  
H     2.2760010    4.9762330   -1.4349810  
H    -0.5877790    3.9415720   -1.5441350  
H    -0.6223900    1.6280800   -1.1867060  
H     2.4272930   -2.3927520    0.1248130  
C    -0.2862040   -1.4705470   -0.4143580  
C    -0.5924540   -2.7993090   -0.5828880  
C    -2.0173970   -2.9490410   -0.4913950  
C    -2.5610190   -1.5898000   -0.2554040  
N    -1.4801210   -0.7444180   -0.2504110  
C    -3.8825830   -1.2939280   -0.0446000  
C    -4.8412210   -2.4158110   -0.1402410  
O    -6.0477150   -2.2500490   -0.0918940  
C    -4.2818970   -3.8622770   -0.3807380  
O    -5.0729100   -4.7939210   -0.4017720  
C    -2.8460190   -4.0310380   -0.5674570  
H     0.1147640   -3.5876600   -0.7967600  
H    -2.4754900   -5.0379440   -0.7333100  
H    -1.5172290    0.2041560    0.0908390  
C    -3.5071040    2.7431900   -1.9889770  
C    -3.3751190    1.4110580   -1.7528990  
C    -4.1069150    1.1726780   -0.5116500  
C    -4.6299070    2.5192800   -0.1422620  
N    -4.2648100    3.4342720   -1.0025430  
C    -5.4579460    2.7230390    1.0170180  
C    -5.7575200    1.6414970    1.7726390  
O    -6.5174360    1.6834270    2.8771220  
C    -5.2034890    0.2741320    1.4635770  
O    -5.3980670   -0.6060930    2.2920980  
C    -4.3762050    0.0596940    0.2264530  
H    -2.8900640    0.6687420   -2.3707480  
H    -5.8288870    3.7141410    1.2532370  
H    -6.5149730    0.7684700    3.2350060  
H    -3.1379320    3.3026270   -2.8424370  
C     6.0168760    1.5490630    2.5762830  
C     7.1191420    0.8103800    2.2961280  
C     6.7353160   -0.1879960    1.3190980  
C     5.2957090    0.0454320    1.0462330  
N     4.9138830    1.0919000    1.8539910  
C     4.5564180   -0.6830860    0.1546020  
C     5.2143230   -1.8141160   -0.5210430  
O     4.6222820   -2.5727820   -1.2699630  
C     6.7433390   -2.0614400   -0.2384220  
O     7.2920930   -2.9817960   -0.8206260  
C     7.4273090   -1.1897120    0.7133980  
H     8.1016180    0.9308730    2.7282010  
H     8.4789290   -1.3766720    0.9054780  
H     5.9001560    2.3824560    3.2560110  
H     4.0216970    1.5605400    1.7953610  
