58


C    -5.5551600    0.0398060    1.9664120  
C    -6.6988220   -0.6816690    1.8967800  
C    -6.7130080   -1.3588420    0.6202210  
C    -5.4617980   -0.9619120   -0.0721450  
N    -4.7974310   -0.0824800    0.7893490  
C    -5.0797990   -1.4459120   -1.2792480  
C    -5.9634610   -2.3903690   -1.9631210  
O    -5.6899010   -2.8803090   -3.0481390  
C    -7.3121510   -2.7903030   -1.2650580  
O    -8.0659070   -3.5666170   -1.8318160  
C    -7.5970510   -2.2207120    0.0521920  
H    -7.4598080   -0.7449540    2.6611390  
H    -4.1608370   -1.1644990   -1.7763590  
H    -8.5144000   -2.5257760    0.5465600  
H    -5.1761140    0.6580350    2.7655250  
C    -1.4240110    0.1638220    3.4603830  
C    -0.5118270    0.8115560    2.6965720  
C    -1.1798890    1.0606110    1.4235050  
C    -2.5344200    0.4775480    1.6158790  
N    -2.6728650   -0.0433490    2.8023380  
C    -3.5521880    0.5342730    0.5774820  
C    -3.2270950    1.1969330   -0.5692680  
O    -4.0718180    1.3628760   -1.5987690  
C    -1.8580270    1.7515680   -0.8037940  
O    -1.6285120    2.2095880   -1.9186260  
C    -0.8202440    1.6998430    0.2799700  
H     0.4941140    1.1043840    2.9602520  
H    -3.5477960    1.8224040   -2.2932040  
H    -1.3159190   -0.1867960    4.4797220  
C     3.3754940    0.1362170    0.3434530  
C     2.0109050    0.2877940    0.4496570  
C     1.6802480    1.6391880    0.1122950  
C     2.9642800    2.3030340   -0.2159770  
N     3.9475790    1.3322780   -0.0937020  
C     3.0979890    3.6013780   -0.5765010  
C     1.8892180    4.4163320   -0.6853870  
O     1.9082840    5.5861650   -1.0285990  
C     0.5123570    3.7492020   -0.3443170  
O    -0.4860340    4.4494060   -0.3235520  
C     0.4839230    2.3142400    0.0099110  
H     1.3090470   -0.4975840    0.6870240  
H     4.0510530    4.0606810   -0.8202170  
H     4.9304580    1.5455200   -0.0087740  
C     3.8431350   -2.0488210    1.4606130  
C     4.1886940   -1.0260340    0.6105900  
C     5.5068480   -1.3631660    0.0709430  
C     5.8855510   -2.6541680    0.6955340  
N     4.8218310   -3.0084410    1.5156890  
C     7.0438210   -3.3167480    0.4684430  
C     8.0071270   -2.7285590   -0.4656280  
O     9.0818890   -3.2439160   -0.7200010  
C     7.6184540   -1.3792650   -1.1666460  
O     8.3938190   -0.8754320   -1.9605790  
C     6.3239460   -0.7661090   -0.8354160  
H     7.2934420   -4.2646900    0.9348670  
H     6.0664980    0.1458810   -1.3636060  
H     2.9481410   -2.1473170    2.0608080  
H     4.7955320   -3.8299640    2.1012180  
