60


C     1.5362630   -2.0868880   -0.0801320  
C     2.7680280   -1.5033360   -0.3227330  
C     3.7779160   -2.5103760   -0.1516770  
C     3.0580870   -3.7545420    0.2178940  
N     1.7212210   -3.4274910    0.2539520  
C     3.6646940   -4.9447160    0.4602720  
C     5.1189850   -5.0170520    0.3554820  
O     5.7515060   -6.0431500    0.5573700  
C     5.9022240   -3.7091180   -0.0347600  
O     7.1210220   -3.7541800   -0.1238010  
C     5.1357970   -2.4877140   -0.2734800  
H     2.9540790   -0.5072180   -0.6940750  
H     3.1222540   -5.8460600    0.7278480  
H     5.6851300   -1.5909430   -0.5444620  
H     0.9324780   -4.0542230    0.3609150  
C     0.1750330    2.0592690    0.2332290  
C    -1.1698370    1.8705730    0.0502020  
C    -1.3880500    0.4681440   -0.1566640  
C    -0.0639500   -0.1668760   -0.0869750  
N     0.8537370    0.8441330    0.0884630  
C     0.2015470   -1.5235310   -0.1346340  
C    -0.9882830   -2.3787110   -0.1614700  
O    -0.9641940   -3.5941770   -0.0044070  
C    -2.3982720   -1.7305300   -0.4052570  
O    -3.3218840   -2.5017200   -0.6081400  
C    -2.5496520   -0.2630020   -0.3752850  
H    -1.9181380    2.6459140    0.0508450  
H     1.7677790    0.6729930    0.4905710  
C    -4.0667520    1.5669180   -1.2186530  
C    -3.8388880    0.3557000   -0.6068460  
C    -5.2037470   -0.1018760   -0.2327530  
C    -6.0932420    0.9989690   -0.7007390  
N    -5.4130860    1.9547020   -1.2856800  
C    -7.5161460    0.9710570   -0.5149010  
C    -8.0494040   -0.0965040    0.1282380  
O    -9.3563480   -0.2538000    0.3791310  
C    -7.1828410   -1.2170190    0.6295380  
O    -7.7326710   -2.1465370    1.2158570  
C    -5.7198140   -1.1694700    0.4054040  
H    -8.1239880    1.7920410   -0.8783800  
H    -9.4316810   -1.1112010    0.8537020  
H    -5.1437110   -2.0198330    0.7470680  
H    -3.3249310    2.2052910   -1.6825170  
C     0.3226400    4.2681430    1.2879290  
C     1.2728650    5.2197990    1.4870690  
C     2.4836200    4.7723690    0.8453650  
C     2.2097230    3.5166580    0.2566250  
N     0.8688810    3.2034350    0.5499130  
C     3.1534440    2.8308250   -0.5159780  
C     4.4144890    3.4001340   -0.6450520  
O     5.3621820    2.7593830   -1.3787150  
C     4.7152280    4.6428360   -0.0310670  
O     6.0028010    5.0736170   -0.2509390  
C     3.7629160    5.3348430    0.6982790  
H     1.1374120    6.1382780    2.0414960  
H     2.9408900    1.9105740   -1.0460510  
H     6.1683540    3.3042970   -1.3648370  
H     6.1472170    5.9279590    0.1826560  
H     4.0005830    6.2998650    1.1401220  
H    -0.6960530    4.2034810    1.6388970  
