60


C     2.2599090   -1.3338220   -1.4950780  
C     3.3381070   -0.5569110   -1.1393810  
C     2.8392340    0.5615340   -0.3814140  
C     1.4358320    0.3987500   -0.3080410  
N     1.1146140   -0.7585590   -0.9922870  
C     0.5834600    1.3157990    0.3454000  
C     1.2087280    2.4195780    0.9279890  
O     0.4636410    3.3404490    1.5990820  
C     2.6179870    2.5947710    0.8573490  
O     3.0562210    3.7383180    1.4890660  
C     3.4378730    1.6866970    0.2177850  
H     0.1734950   -1.0710990   -1.1752640  
H     1.0767740    4.0111590    1.9493920  
H     4.0247980    3.7558910    1.5092420  
H     4.5133950    1.8378270    0.1790570  
H     2.2284700   -2.2559480   -2.0571270  
C    -1.5024990   -0.0197760    0.8611510  
C    -0.8729510    1.1056020    0.4215900  
C    -1.9291950    2.0274570    0.0062980  
C    -3.2153650    1.3385960    0.2591190  
N    -2.8971460    0.0739520    0.7600350  
C    -4.4346410    1.8975750    0.0542640  
C    -4.4958280    3.2480800   -0.5040120  
O    -5.5481290    3.8258660   -0.7259990  
C    -3.1423800    3.9727860   -0.8325370  
O    -3.1701560    5.0877790   -1.3269920  
C    -1.8885160    3.2758700   -0.5211010  
H    -5.3691190    1.3998580    0.2872320  
H    -0.9584960    3.8022410   -0.7027640  
H    -1.0725330   -0.9278090    1.2636220  
C    -3.7346440   -1.5961050    2.3892810  
C    -3.7890390   -0.9056420    1.2187510  
C    -4.8910240   -1.5213180    0.4555350  
C    -5.4020660   -2.5748050    1.3819610  
N    -4.7209650   -2.6109090    2.4951710  
C    -6.5119960   -3.4152180    1.0219630  
C    -7.0550380   -3.2590960   -0.2101860  
O    -8.0813290   -3.9857200   -0.6770170  
C    -6.5302780   -2.2378340   -1.1803830  
O    -7.0634550   -2.1605900   -2.2840370  
C    -5.4070290   -1.3598610   -0.7764380  
H    -6.8764770   -4.1579620    1.7228210  
H    -8.2544750   -3.6529550   -1.5845470  
H    -5.0769200   -0.6171800   -1.4957890  
H    -3.0381350   -1.4508060    3.2065340  
C     5.1944570   -0.8091120   -2.7942160  
C     6.5236480   -1.0797480   -2.8129180  
C     6.9433990   -1.2625160   -1.4400860  
C     5.7253740   -1.0805040   -0.6107560  
N     4.6833200   -0.8033650   -1.4911270  
C     5.6962010   -1.1849140    0.7424440  
C     6.9440070   -1.4806920    1.4415480  
O     7.0172850   -1.5840300    2.6569640  
C     8.2494140   -1.6695770    0.5836450  
O     9.3015110   -1.9138310    1.1538450  
C     8.1463170   -1.5433100   -0.8720450  
H     7.1541540   -1.1400530   -3.6881530  
H     4.7919310   -1.0578140    1.3275460  
H     9.0517350   -1.6828410   -1.4550620  
H     4.5192000   -0.6002880   -3.6134670  
