58


C     1.7390370    0.2352110   -1.0431510  
C     2.7428200   -0.5684410   -0.5889310  
C     3.5750850    0.2261570    0.2950920  
C     2.9587630    1.5736720    0.3134820  
N     1.8263100    1.5145040   -0.5143980  
C     3.4336960    2.6051030    1.0501450  
C     4.6287700    2.3852370    1.8704070  
O     5.1160900    3.2574980    2.5702400  
C     5.2996230    0.9653940    1.8507050  
O     6.2971890    0.7665660    2.5250000  
C     4.6844280   -0.0727490    1.0197110  
H     2.9908900    3.5931000    1.0494890  
H     5.1356970   -1.0601700    1.0287620  
H     0.9347440   -0.0064240   -1.7237570  
C    -2.5074250    1.1863340    0.0151390  
C    -1.1389030    0.9745320    0.0199850  
C    -0.5102610    2.1690620   -0.4329130  
C    -1.5984020    3.1415430   -0.6967700  
N    -2.7737690    2.4838760   -0.4105880  
C    -1.3978970    4.4135180   -1.1262040  
C    -0.0276040    4.8563900   -1.3635850  
O     0.2569730    5.9889110   -1.7176020  
C     1.1487200    3.8263930   -1.1638230  
O     2.2885150    4.1673190   -1.4410870  
C     0.8086120    2.4935560   -0.6590300  
H    -0.6537400    0.0730220    0.3428310  
H    -2.2033780    5.1184320   -1.3039340  
H    -3.7226470    2.8525750   -0.4244410  
C     4.0899880   -2.5077070   -1.4159320  
C     3.9670290   -3.8483210   -1.5571350  
C     2.6398290   -4.2094680   -1.1007440  
C     1.9936370   -2.9442280   -0.6712140  
N     2.9175520   -1.9351660   -0.8846950  
C     0.7292800   -2.8568060   -0.1704500  
C    -0.0513480   -4.0664940   -0.0511360  
O    -1.2101850   -4.1014530    0.3714830  
C     0.6061460   -5.4227470   -0.4935150  
O    -0.0387820   -6.4522920   -0.3953100  
C     1.9794060   -5.3920860   -1.0143900  
H     4.7163900   -4.5241950   -1.9425860  
H     0.2854120   -1.9178760    0.1324010  
H     2.4210330   -6.3376600   -1.3130440  
H     4.9222510   -1.8588990   -1.6532630  
C    -6.8379790    1.8621670    0.2464480  
C    -7.2937730    0.6357030    0.5853230  
C    -6.1061210   -0.2052980    0.6794010  
C    -4.9752800    0.7171960    0.3620230  
N    -5.4145210    1.9178540    0.1057620  
C    -3.5867320    0.2746780    0.3465020  
C    -3.3731840   -1.0623370    0.6170340  
O    -2.1639730   -1.5943160    0.6260540  
C    -4.5060330   -2.0161470    0.9253750  
O    -4.2318670   -3.1876040    1.1446350  
C    -5.8926990   -1.5072400    0.9463730  
H    -8.3153000    0.3241290    0.7511720  
H    -2.1582860   -2.5931790    0.7030250  
H    -6.6747600   -2.2260490    1.1712630  
H    -7.4063750    2.7680180    0.0768880  
