64


C    -0.1239430    1.8153780    0.3921440  
C     1.2089210    1.5084220    0.2558540  
C     1.2884450    0.1335480   -0.1533010  
C    -0.0465920   -0.3277650   -0.2746900  
N    -0.8906580    0.7099500    0.0670800  
C    -0.3794590   -1.6207030   -0.7070150  
C     0.6842820   -2.4570970   -1.0462600  
O     0.4481830   -3.7142420   -1.4955230  
C     2.0292190   -2.0170180   -0.9359170  
O     2.9418130   -2.9787780   -1.2963990  
C     2.3705170   -0.7430950   -0.4643570  
H     2.0247050    2.2010870    0.3951900  
H    -1.8894230    0.6309090    0.1918240  
H     1.3295680   -4.0845050   -1.7007180  
H     3.6288300   -2.5289060   -1.8432220  
C    -0.2640800    3.7733410    1.8896400  
C    -1.0519980    4.8788300    2.0364560  
C    -2.0659770    4.8186590    1.0197850  
C    -1.8359620    3.6385690    0.2687500  
N    -0.7244360    2.9994050    0.8235940  
C    -2.6229230    3.2827420   -0.8342860  
C    -3.6755150    4.1221220   -1.1679730  
O    -4.4728580    3.8172660   -2.2327850  
C    -3.9312840    5.2980630   -0.4159020  
O    -5.0152320    6.0259430   -0.8683670  
C    -3.1414230    5.6540900    0.6618680  
H    -0.9340460    5.6451860    2.7903570  
H    -2.4343940    2.4019310   -1.4371430  
H    -5.1346670    4.5259520   -2.3094140  
H    -5.1149540    6.8257670   -0.3313650  
H    -3.3475290    6.5665900    1.2180140  
H     0.5869820    3.4300440    2.4592300  
C     4.4766270    1.1159070    2.9731710  
C     3.5805770    0.4921140    2.1638100  
C     4.2172520    0.2917520    0.8815180  
C     5.5831550    0.8561770    1.0150170  
N     5.6661020    1.3625180    2.2965990  
C     6.5242870    0.8664910    0.0352850  
C     6.1792870    0.2416750   -1.2273260  
O     6.9171600    0.2147050   -2.1998210  
C     4.7819430   -0.4762590   -1.3403600  
O     4.6143810   -1.1868490   -2.3302830  
C     3.7717720   -0.3027880   -0.2808700  
H     2.5805370    0.1886250    2.4293890  
H     7.5006390    1.3282660    0.1401940  
H     4.3742620    1.4152230    4.0078790  
H     6.5015470    1.7498130    2.7062810  
C    -2.6879810   -1.3744690   -1.6056650  
C    -3.9107230   -1.9606880   -1.4271650  
C    -3.7347080   -3.0325570   -0.4878340  
C    -2.3631020   -3.0512860   -0.1278010  
N    -1.7305680   -2.0245210   -0.8250670  
C    -1.8377960   -3.9598910    0.7981690  
C    -2.7128710   -4.8749540    1.3616000  
O    -2.2524310   -5.7893400    2.2674470  
C    -4.0878950   -4.8767190    1.0083260  
O    -4.8319200   -5.8482840    1.6551900  
C    -4.6043110   -3.9730400    0.0987260  
H    -4.8287230   -1.6722860   -1.9211660  
H    -0.7882290   -3.9817250    1.0658060  
H    -3.0087980   -6.3461870    2.5195670  
H    -5.7402350   -5.8316040    1.3197900  
H    -5.6633130   -3.9877330   -0.1526050  
H    -2.3850490   -0.5685930   -2.2593590  
