58


C    -0.2172140    1.9815740   -0.1369450  
C     0.9215000    1.1814860   -0.0280550  
C     0.5453930   -0.1732300   -0.2045760  
C    -0.9128420   -0.1557580   -0.4115100  
N    -1.3053730    1.1605890   -0.4058880  
C    -1.6980860   -1.2647400   -0.5841030  
C    -1.0286010   -2.5726960   -0.5491700  
O    -1.5931900   -3.6210680   -0.7998940  
C     0.4953080   -2.6141390   -0.1765450  
O     0.9568020   -3.7220010    0.0802270  
C     1.2740330   -1.3687230   -0.1607910  
H     1.8986360    1.5222100    0.2642020  
H    -2.2534130    1.5216110   -0.3555910  
C     2.6579650    5.4081970   -0.0563180  
C     2.0830980    4.1747390   -0.2163050  
C     0.6818010    4.3085680    0.0473840  
C     0.4702980    5.7388400    0.3619000  
N     1.7161920    6.3415120    0.3044600  
C    -0.7243130    6.3165880    0.6448230  
C    -1.9124160    5.4767150    0.6043500  
O    -3.0339960    5.8889480    0.8439140  
C    -1.7402320    3.9653620    0.2203960  
O    -2.7692670    3.3133350    0.0858990  
C    -0.3808740    3.4041190    0.0382730  
H     2.6081450    3.2884720   -0.5303990  
H    -0.8414380    7.3674450    0.8895780  
H     3.6932840    5.6967170   -0.1812260  
H     1.8873600    7.3254480    0.4462990  
C     2.7140140   -1.4223500   -0.0816460  
C     3.6589020   -0.4502490   -0.3849250  
C     4.9582480   -1.0132350   -0.1910410  
C     4.7385430   -2.4126100    0.2525640  
N     3.3743170   -2.5877190    0.3037420  
C     5.7369270   -3.2878100    0.5342550  
C     7.1195250   -2.8355790    0.3994350  
O     8.0805030   -3.5529960    0.6324140  
C     7.3759410   -1.3563430   -0.0686140  
O     8.5278050   -0.9604840   -0.1834960  
C     6.2192170   -0.5096610   -0.3467280  
H     3.4560550    0.5306430   -0.7839440  
H     5.5599220   -4.3097890    0.8542730  
H     6.4074030    0.5092900   -0.6721610  
H     2.8649480   -3.4478770    0.4694330  
C    -3.5857970   -0.4312680   -1.9787400  
C    -4.9305340   -0.5581120   -2.0647540  
C    -5.3561340   -1.4311000   -0.9908600  
C    -4.1274640   -1.8155070   -0.2566630  
N    -3.0629100   -1.1727090   -0.9042710  
C    -4.1162980   -2.5975070    0.8483520  
C    -5.3916310   -3.1228140    1.3412100  
O    -5.4744790   -3.8265370    2.3346840  
C    -6.7021410   -2.7512720    0.5594240  
O    -7.7721370   -3.1885130    0.9508760  
C    -6.5814310   -1.8758160   -0.6099290  
H    -5.5690610   -0.1011230   -2.8070380  
H    -3.2149770   -2.8731600    1.3828070  
H    -7.4929190   -1.6010560   -1.1319280  
H    -2.9040900    0.1199730   -2.6124950  
