62


C    -1.9705430   -2.5476060    1.3073510  
C    -3.2166340   -2.1803460    0.8626460  
C    -3.1002120   -0.8563010    0.3086620  
C    -1.7329710   -0.4876640    0.4301410  
N    -1.0814150   -1.5277500    1.0604700  
C    -1.1997580    0.7380960   -0.0288560  
C    -2.1393980    1.5814280   -0.6151620  
O    -1.7534090    2.8171810   -1.0836140  
C    -3.5104620    1.2521610   -0.7525960  
O    -4.2503890    2.2455250   -1.3452330  
C    -4.0368290    0.0503250   -0.2728330  
H    -4.1004280   -2.8009700    0.8898960  
H    -0.0907080   -1.5459230    1.2499840  
H    -2.5609290    3.2018680   -1.4852250  
H    -4.8828860    1.8027150   -1.9650630  
H    -1.6407960   -3.4646880    1.7748280  
C     2.5420080   -1.4786120   -1.0785540  
C     1.2562510   -1.0601450   -0.9531610  
C     1.2678590    0.2024010   -0.2487570  
C     2.6218150    0.5193710    0.0167270  
N     3.4098900   -0.5446940   -0.4918280  
C     3.0049670    1.7130490    0.6302900  
C     1.9892100    2.6054060    0.9522160  
O     2.2976760    3.7966330    1.5279260  
C     0.6272210    2.3109050    0.6973960  
O    -0.2476980    3.2933270    1.0962490  
C     0.2319700    1.0939340    0.1295340  
H     0.3886260   -1.5739270   -1.3420030  
H     4.0392660    1.9545240    0.8254750  
H     1.4492660    4.2687040    1.6309770  
H    -0.9130500    3.4123690    0.3823120  
H     2.9402080   -2.3641450   -1.5471930  
C     4.7712080   -0.7036910   -0.4613290  
C     5.5122690   -1.7463820   -0.9879610  
C     6.8653850   -1.4294890   -0.6824600  
C     6.7851350   -0.1178040    0.0606090  
N     5.5523850    0.2920640    0.1813250  
C     7.9549400    0.5493870    0.5516570  
C     9.1474850   -0.0508530    0.3176370  
O    10.3256690    0.4356880    0.7051710  
C     9.2672700   -1.3768960   -0.4306770  
O    10.4176490   -1.8067930   -0.5695760  
C     8.0705290   -2.0282430   -0.9140590  
H     5.1630670   -2.6163110   -1.5226890  
H     7.8705900    1.4909070    1.0824920  
H    10.9834460   -0.2291650    0.3844020  
H     8.1850740   -2.9692340   -1.4421720  
C    -6.7357740   -1.3933970    2.8779120  
C    -7.8867600   -1.5341690    2.1734310  
C    -7.6104860   -1.1124400    0.8160980  
C    -6.1778230   -0.7187920    0.7874350  
N    -5.7175410   -0.8934300    2.0702720  
C    -5.4863160   -0.2581460   -0.3126240  
C    -6.3072610   -0.0455700   -1.5034750  
O    -5.9159830    0.5530470   -2.5082890  
C    -7.7935440   -0.5629180   -1.5372970  
O    -8.3947240   -0.5162320   -2.5976430  
C    -8.3874450   -1.0484520   -0.2969780  
H    -8.8377910   -1.8785920    2.5521760  
H    -9.4261970   -1.3619610   -0.3157380  
H    -6.5379310   -1.5969870    3.9219390  
H    -4.7422250   -0.8308170    2.3262350  
