64


C    -0.0618820    2.1035380   -0.0855950  
C    -1.2988020    1.4893380   -0.2377360  
C    -1.0727330    0.0853380   -0.3893340  
C     0.3297510   -0.1161170   -0.3051960  
N     0.9068580    1.1173600   -0.1312650  
C     0.9506190   -1.3861380   -0.3804690  
C     0.0725490   -2.4520410   -0.6138030  
O     0.5612290   -3.7280220   -0.7516440  
C    -1.3270980   -2.2720800   -0.7144600  
O    -2.0010380   -3.4512270   -0.9775440  
C    -1.9359260   -1.0240350   -0.5923380  
H    -2.2618120    1.9688790   -0.1383890  
H     1.8954680    1.3020890   -0.0564150  
H    -0.2106050   -4.3136530   -0.8546010  
H    -2.9518350   -3.3395070   -0.8206670  
C    -2.2741810    5.7508110   -1.2090140  
C    -1.4049190    6.6673310   -0.6809080  
C    -0.3124310    5.9313740   -0.1088610  
C    -0.5873170    4.5547260   -0.3097010  
N    -1.7997290    4.4740590   -0.9650800  
C     0.2807000    3.5127260    0.0982010  
C     1.4801670    3.9362660    0.6859300  
O     2.4202160    3.0161480    1.0838300  
C     1.7646850    5.3067270    0.8986740  
O     2.9874530    5.5252450    1.5092490  
C     0.8873210    6.3059460    0.5255450  
H    -1.5242590    7.7419380   -0.6959920  
H    -2.1424410    3.6284060   -1.3934900  
H     3.1549830    3.5169370    1.4802810  
H     3.1092060    6.4738550    1.6606430  
H     1.1304370    7.3518560    0.6999160  
H    -3.2091910    5.8964290   -1.7315950  
C    -4.0612950   -0.0078500   -1.5404250  
C    -3.3956910   -0.8659240   -0.7118110  
C    -4.4288510   -1.5867170    0.0306940  
C    -5.7370430   -1.0784070   -0.4553340  
N    -5.4395200   -0.1112790   -1.3942420  
C    -6.9434440   -1.5151520   -0.0145070  
C    -6.9755420   -2.5525400    1.0138240  
O    -8.0134290   -3.0156120    1.4599550  
C    -5.6040160   -3.0852680    1.5679740  
O    -5.6087760   -3.9345090    2.4438470  
C    -4.3640210   -2.5367290    1.0047650  
H    -7.8892130   -1.1292890   -0.3827130  
H    -3.4244500   -2.8927660    1.4172240  
H    -3.6437920    0.6866360   -2.2571520  
H    -6.1222350    0.3955120   -1.9354500  
C     2.3912920   -1.5600070   -0.2135810  
C     3.3185940   -0.7679540    0.4502390  
C     4.5968990   -1.3920670    0.3177950  
C     4.4010170   -2.5768770   -0.4431660  
N     3.0651110   -2.6450340   -0.7598340  
C     5.4482020   -3.4516050   -0.7610110  
C     6.7151440   -3.1265360   -0.3032910  
O     7.7726640   -3.9451700   -0.5828290  
C     6.9302770   -1.9452790    0.4573340  
O     8.2485480   -1.7590470    0.8370020  
C     5.8971910   -1.0826620    0.7690610  
H     3.1023720    0.1160470    1.0335890  
H     2.5852300   -3.4296480   -1.1753920  
H     5.3026530   -4.3577700   -1.3400080  
H     8.5579390   -3.5486100   -0.1681250  
H     8.3139680   -0.9641890    1.3862100  
H     6.0882930   -0.1841660    1.3531730  
