64


C     3.6050530   -0.1135330    0.4583790  
C     2.2360040    0.0545200    0.4171210  
C     1.9694970    1.4610890    0.3773790  
C     3.2271200    2.1229400    0.3861340  
N     4.2019700    1.1450130    0.4078100  
C     3.3559980    3.5143650    0.3500720  
C     2.1893950    4.2636840    0.3013700  
O     2.2556900    5.6271120    0.2876150  
C     0.9234800    3.6275360    0.2684620  
O    -0.1430450    4.5053480    0.2213040  
C     0.7827890    2.2359920    0.2989120  
H     1.5085140   -0.7432890    0.3778600  
H     5.1743030    1.3058290    0.6238720  
H     4.3166380    4.0190860    0.3689580  
H     1.3407260    5.9577830    0.3096650  
H    -0.9586470    4.0226970    0.4371670  
C     4.0695640   -2.4715290    1.2188590  
C     4.4121300   -1.3184390    0.5438370  
C     5.7136080   -1.5609170   -0.0436970  
C     6.0968390   -2.8764180    0.3211500  
N     5.0721930   -3.4056690    1.0820980  
C     7.3064850   -3.4540650   -0.0831740  
C     8.1460290   -2.6911980   -0.8793730  
O     9.3369300   -3.2056080   -1.3007780  
C     7.7722980   -1.3781080   -1.2713550  
O     8.7043750   -0.7512890   -2.0764000  
C     6.5771710   -0.8107870   -0.8684540  
H     5.0713690   -4.3229200    1.4999750  
H     7.5997060   -4.4615850    0.1936480  
H     9.7581420   -2.5338540   -1.8643840  
H     8.3497110    0.0950390   -2.3863360  
H     6.3038750    0.1860370   -1.2078080  
H     3.1879220   -2.6834440    1.8065060  
C    -1.5024720   -0.2814410    3.2525190  
C    -0.5444810    0.4645120    2.6212870  
C    -1.0662160    0.8099520    1.3293480  
C    -2.3548370    0.2255150    1.2289870  
N    -2.5879880   -0.4452050    2.4090780  
C    -3.2013230    0.3855090    0.1015240  
C    -2.6942560    1.2157600   -0.9100790  
O    -3.4245380    1.4536730   -2.0433470  
C    -1.4112210    1.8032460   -0.8217610  
O    -1.0737160    2.5504530   -1.9287080  
C    -0.5681790    1.6149350    0.2737700  
H     0.4218760    0.7394530    3.0173770  
H    -3.4874870   -0.8108530    2.6820850  
H    -2.8662390    1.9934410   -2.6331710  
H    -0.1331780    2.7944970   -1.8668610  
H    -1.5061520   -0.7265180    4.2373800  
C    -4.4958390   -0.2747860    0.0066520  
C    -4.9500290   -1.4083790    0.6468730  
C    -6.2984800   -1.6587280    0.2160370  
C    -6.6269710   -0.5749590   -0.7438270  
N    -5.5128200    0.2327130   -0.8068230  
C    -7.8130730   -0.4623710   -1.3946540  
C    -8.8434060   -1.4642740   -1.1394350  
O    -9.9398400   -1.4442870   -1.6794890  
C    -8.5199080   -2.6183740   -0.1196230  
O    -9.3761510   -3.4618310    0.1071520  
C    -7.2045740   -2.6320330    0.5155080  
H    -4.3673290   -2.0616770    1.2788440  
H    -8.0352440    0.3365680   -2.0954320  
H    -6.9916500   -3.4359290    1.2139760  
H    -5.3471340    0.9578070   -1.4897530  
