64


C    -0.5774980   -1.6825090   -0.7579190  
C     0.6020100   -0.9633440   -0.8243460  
C     1.6409350   -1.7418990   -0.2107250  
C     1.0374230   -2.9629070    0.1965770  
N    -0.3058500   -2.8889550   -0.1240260  
C     1.7445260   -3.9952540    0.8161290  
C     3.0979880   -3.7852930    1.0317410  
O     3.8565520   -4.7522990    1.6206390  
C     3.7243810   -2.5652440    0.6652100  
O     5.0588450   -2.5033530    1.0144440  
C     3.0215220   -1.5152880    0.0618220  
H     0.6971360    0.0170260   -1.2668480  
H    -0.9365250   -3.6755400   -0.1296930  
H     1.2845630   -4.9310870    1.1170360  
H     4.7598840   -4.3833640    1.6562380  
H     5.5525630   -2.1449410    0.2461460  
C    -2.2086130   -0.3143300   -2.0872670  
C    -1.9160940   -1.3027800   -1.1681830  
C    -3.1906050   -1.7611600   -0.6494010  
C    -4.1981310   -1.0033780   -1.3034640  
N    -3.5672950   -0.1440490   -2.1825220  
C    -5.5625800   -1.1601020   -1.0335920  
C    -5.9261150   -2.0975570   -0.0799460  
O    -7.2441510   -2.2895290    0.2213240  
C    -4.9356600   -2.8559260    0.5957630  
O    -5.4472490   -3.7382370    1.5304020  
C    -3.5874260   -2.6987420    0.3265550  
H    -3.9930970    0.6555030   -2.6309000  
H    -6.3282600   -0.5745260   -1.5316860  
H    -7.2837370   -2.9663570    0.9185060  
H    -4.7187390   -4.1817610    1.9890550  
H    -2.8572760   -3.2698260    0.8958120  
H    -1.5442140    0.2913890   -2.6844400  
C     1.6608400    2.6253350    0.8576220  
C     2.7359390    3.2945750    0.3278170  
C     3.6496250    2.2968780   -0.1426150  
C     3.0656850    1.0281330    0.1249600  
N     1.8714010    1.2582060    0.7735730  
C     3.6642450   -0.2077000   -0.2312820  
C     4.9040740   -0.0821280   -0.8579300  
O     5.5869630   -1.2123780   -1.2625880  
C     5.5157740    1.1713080   -1.1127590  
O     6.7465980    1.0658270   -1.7340230  
C     4.9099860    2.3608960   -0.7684610  
H     2.8480700    4.3684450    0.2745900  
H     1.1674520    0.5499360    0.9385210  
H     6.4023410   -0.9113020   -1.7040040  
H     7.0683720    1.9469510   -1.9750380  
H     5.3913690    3.3139410   -0.9747660  
C     0.2428850    3.5319830    2.7164710  
C    -1.0475550    3.8920150    2.9235210  
C    -1.7550230    3.7083680    1.6733290  
C    -0.7478610    3.2177460    0.7009780  
N     0.4580190    3.1252910    1.3907670  
C    -1.0067060    2.9308820   -0.6007960  
C    -2.3753670    3.0680350   -1.0752010  
O    -2.7214340    2.7869070   -2.2173610  
C    -3.4654520    3.5809230   -0.0639910  
O    -4.6171610    3.6966730   -0.4533680  
C    -3.0514370    3.8905430    1.3067920  
H    -1.4731160    4.2450180    3.8517180  
H    -0.2437070    2.5888880   -1.2914960  
H    -3.8123710    4.2473460    1.9940930  
H     1.0793740    3.5194300    3.4024060  
