58


C    -0.8625600   -2.3214280    0.2265280  
C    -1.7389190   -1.2498790    0.0545230  
C    -3.0533680   -1.7640470   -0.1335820  
C    -2.9172410   -3.2367120   -0.0830110  
N    -1.5910200   -3.4999720    0.1702310  
C    -3.9299090   -4.1227960   -0.2660250  
C    -5.2512670   -3.6002600   -0.5737460  
O    -6.2294560   -4.3090050   -0.7483240  
C    -5.4317250   -2.0438190   -0.6977130  
O    -6.5219280   -1.6328880   -1.0561800  
C    -4.2868670   -1.1545480   -0.3699050  
H    -1.4506460   -0.2199090   -0.0619090  
H    -3.7960780   -5.1984470   -0.2124440  
H    -1.1295020   -4.4026930    0.1577670  
C     2.1430760    0.8412690    1.2268930  
C     0.9838410    0.1471110    1.0246700  
C     1.3318540   -1.2039410    0.6918030  
C     2.8077010   -1.2529500    0.7299940  
N     3.2534830    0.0318040    1.0553970  
C     3.5679150   -2.3508390    0.4942230  
C     2.8831470   -3.6029950    0.2126810  
O     3.4646160   -4.6492600   -0.0191660  
C     1.3147060   -3.6098840    0.2262490  
O     0.7712490   -4.7012480    0.1056890  
C     0.5749910   -2.3341860    0.3871940  
H    -0.0042360    0.5582490    1.1429610  
H     4.6521040   -2.3399750    0.5100340  
H     2.2811760    1.8800740    1.4963040  
C     5.3814110    0.4067760    2.2653960  
C     4.6015660    0.4426400    1.1455730  
C     5.4067790    0.9833750    0.0601700  
C     6.7330970    1.2620500    0.6565220  
N     6.6429490    0.8884070    1.9930910  
C     7.7837800    1.7800450   -0.0230120  
C     7.6037520    2.0891330   -1.4445410  
O     8.4921530    2.5576070   -2.1352660  
C     6.2012550    1.8011390   -2.0951580  
O     6.0319070    2.0527840   -3.2754860  
C     5.1430660    1.2361340   -1.2466950  
H     8.7513680    1.9790900    0.4271450  
H     4.1786250    1.0384960   -1.7042230  
H     5.1218800    0.0643950    3.2586900  
H     7.3954040    0.9547600    2.6615280  
C    -4.4984700    0.2666670   -0.2963780  
C    -5.5143820    1.0477940   -0.8088830  
C    -5.2816390    2.4075260   -0.4200560  
C    -4.0501270    2.3999810    0.4028370  
N    -3.5749170    1.0973490    0.3859420  
C    -3.5373090    3.4899230    1.0233570  
C    -4.2110020    4.7746090    0.8466870  
O    -3.8133940    5.8083480    1.3621870  
C    -5.4928490    4.8173960   -0.0622110  
O    -6.0592760    5.8873470   -0.2326560  
C    -5.9613510    3.5672130   -0.6587960  
H    -6.3292850    0.6816310   -1.4110980  
H    -2.6412140    3.4639050    1.6365960  
H    -6.8609270    3.6027220   -1.2655810  
H    -3.0268140    0.7300970    1.1516810  
