60


C    -1.3579910    2.3362680   -0.0467390  
C    -1.3202980    0.9410390    0.0385940  
C    -2.6395590    0.4503030   -0.1871470  
C    -3.4591220    1.5923750   -0.4231610  
N    -2.6643740    2.7045920   -0.3199040  
C    -4.8173900    1.4989390   -0.7453360  
C    -5.3426310    0.2230970   -0.8609010  
O    -6.6421110    0.0454980   -1.2014720  
C    -4.5485610   -0.9427710   -0.6283460  
O    -5.2445660   -2.1121580   -0.7739350  
C    -3.2107390   -0.8618680   -0.2456270  
H    -0.4553570    0.3467080    0.2897560  
H    -2.9417520    3.6781390   -0.3534910  
H    -5.4405050    2.3663730   -0.9339770  
H    -6.7702830   -0.9216720   -1.2631100  
H    -4.6334680   -2.7645400   -1.2009110  
C     3.0375730    2.0311360   -0.3692650  
C     3.3432580    3.3342380   -0.0826610  
C     2.1159340    4.0412180    0.1682140  
C     1.0389460    3.0496230    0.0214170  
N     1.6539550    1.8277740   -0.2340860  
C    -0.3086150    3.3246370    0.0947450  
C    -0.6438080    4.7588230    0.2867730  
O    -1.7858450    5.1937290    0.2084390  
C     0.4995460    5.7955200    0.5991140  
O     0.1650500    6.9346260    0.8952040  
C     1.8705930    5.3491470    0.4843970  
H     4.3390570    3.7483240   -0.0100590  
H     2.6628000    6.0753640    0.6341910  
H     1.1674820    1.1013290   -0.7457790  
C     5.0167090    1.1237100   -1.5879400  
C     3.9267920    0.9587730   -0.7734150  
C     3.8955900   -0.4555070   -0.4035690  
C     5.0581150   -1.0816030   -1.0827420  
N     5.6924230   -0.0618360   -1.7746460  
C     5.3915400   -2.3916300   -0.9972080  
C     4.5659910   -3.2609930   -0.1600470  
O     4.7823060   -4.4532440   -0.0222460  
C     3.3578330   -2.6129240    0.6068500  
O     2.6917440   -3.3164280    1.3500510  
C     3.0858350   -1.1840160    0.4095630  
H     6.2467410   -2.8268540   -1.5047810  
H     2.2518670   -0.7506860    0.9523730  
H     5.3557860    2.0290320   -2.0738450  
H     6.4908790   -0.1860570   -2.3783990  
C    -0.6363810   -1.5976310    3.2262470  
C    -0.0760030   -2.7799370    2.8728850  
C    -0.6751810   -3.1774860    1.6146450  
C    -1.6291190   -2.0995530    1.2497310  
N    -1.5704720   -1.1872030    2.2721830  
C    -2.3940480   -2.0481980    0.1035800  
C    -2.3557350   -3.2591430   -0.7082170  
O    -3.1431690   -3.4938030   -1.6293780  
C    -1.2763410   -4.3661430   -0.4095370  
O    -1.1525060   -5.2767450   -1.2118800  
C    -0.4859760   -4.2580140    0.8135190  
H     0.6796320   -3.3294700    3.4123180  
H     0.2508040   -5.0261140    1.0221700  
H    -0.4634040   -0.9849370    4.1009680  
H    -2.0487430   -0.2985890    2.2590050  
