58


C     2.1910150    5.3931050    1.2405020  
C     1.7880540    4.1210360    0.9427310  
C     0.5060180    4.2080810    0.3008980  
C     0.1736480    5.6487100    0.2651660  
N     1.2519310    6.3122820    0.8251000  
C    -0.9888530    6.1775470   -0.1949750  
C    -2.0081200    5.2592590   -0.6875000  
O    -3.1170280    5.6255910   -1.0391580  
C    -1.6507960    3.7333620   -0.7867140  
O    -2.4180840    3.0242460   -1.4070830  
C    -0.3683630    3.2458080   -0.1912030  
H     2.3304290    3.2215840    1.1833140  
H    -1.2119480    7.2399870   -0.1789760  
H     3.0965740    5.7244930    1.7312630  
H     1.2960990    7.3075540    0.9821960  
C    -0.0772700    1.8361150   -0.1805270  
C     1.1526290    1.1983650   -0.2171980  
C     0.8779110   -0.1991380   -0.2070180  
C    -0.6197270   -0.2809520   -0.1531110  
N    -1.1563910    0.9007000   -0.1203610  
C    -1.3506800   -1.5448100   -0.1310150  
C    -0.5645030   -2.6682920   -0.2550130  
O    -1.0310660   -3.9106400   -0.3574520  
C     0.9368930   -2.6108930   -0.3471810  
O     1.5016320   -3.7020120   -0.5190530  
C     1.6665310   -1.3325850   -0.2287840  
H     2.1143990    1.6601830   -0.3704350  
H    -0.2333370   -4.4796760   -0.4590370  
C    -2.7983500   -1.5684690   -0.0327540  
C    -3.6773950   -0.5368210   -0.2404670  
C    -4.9920370   -1.0973190   -0.0181210  
C    -4.7320050   -2.5263230    0.3433570  
N    -3.4639650   -2.8006660    0.3342520  
C    -5.8095720   -3.4324110    0.6568710  
C    -7.0721840   -2.9483210    0.6032820  
O    -8.1718230   -3.6717850    0.8639950  
C    -7.3646990   -1.5124330    0.2351410  
O    -8.5461660   -1.1667070    0.2156890  
C    -6.2507170   -0.6050070   -0.0736660  
H    -3.4384520    0.4782180   -0.5169720  
H    -5.5957550   -4.4626630    0.9187250  
H    -8.9230950   -3.0487080    0.7417850  
H    -6.4967230    0.4212270   -0.3287510  
C     3.1135210   -1.3332940   -0.1366070  
C     3.9560210   -0.3328580    0.3124680  
C     5.3021190   -0.8210970    0.2515830  
C     5.2136050   -2.2082580   -0.2678920  
N     3.8766810   -2.4479770   -0.4915510  
C     6.2844160   -3.0209090   -0.4579770  
C     7.6136710   -2.5074790   -0.1395740  
O     8.6340340   -3.1646720   -0.2788930  
C     7.7309760   -1.0374790    0.4079570  
O     8.8356400   -0.5893540    0.6779200  
C     6.5030560   -0.2594960    0.5739460  
H     3.6527250    0.6247260    0.7033360  
H     6.2031010   -4.0349450   -0.8365360  
H     6.5949880    0.7531870    0.9551290  
H     3.4472200   -3.3333340   -0.7244470  
