60


C     4.6943080    3.3738950    1.4542200  
C     4.5188090    4.6796680    1.1317180  
C     3.2795980    4.7739270    0.3875140  
C     2.7460790    3.3974290    0.2935460  
N     3.6579850    2.5961450    0.9405370  
C     1.5537680    3.0407360   -0.3003050  
C     0.7972250    4.1403770   -0.9528900  
O    -0.1855120    3.9632740   -1.6471720  
C     1.3265260    5.6144200   -0.8024280  
O     0.6490720    6.5263510   -1.2474280  
C     2.6129310    5.8343980   -0.1432170  
H     5.1752740    5.5001180    1.3819900  
H     2.9802040    6.8538650   -0.0750160  
H     5.4926910    2.9006520    2.0100520  
H     3.4996720    1.6203090    1.1477400  
C     1.0697550    1.6765660   -0.3247340  
C     1.7900350    0.5049490   -0.3090990  
C     0.8170930   -0.5594340   -0.3252900  
C    -0.4975180    0.1421400   -0.3449320  
N    -0.3438230    1.4322980   -0.3276030  
C    -1.7787470   -0.5721290   -0.3762830  
C    -1.6569060   -1.9361120   -0.4219830  
O    -2.7056700   -2.7792110   -0.5090000  
C    -0.3514880   -2.6679090   -0.3650970  
O    -0.4100660   -3.8979530   -0.3175210  
C     0.9308760   -1.9166610   -0.3311820  
H     2.8573590    0.3731340   -0.4171550  
H    -2.2986110   -3.6772900   -0.4920330  
C    -3.2008920    1.4623310   -0.8483730  
C    -3.0302760    0.1734700   -0.4044950  
C    -4.3803780   -0.2227070    0.0636170  
C    -5.2245470    0.9776430   -0.2185640  
N    -4.5283980    1.9419600   -0.7550700  
C    -6.6275580    1.0234480    0.0959230  
C    -7.1770340   -0.0561430    0.7003880  
O    -8.4665690   -0.1526200    1.0632460  
C    -6.3508570   -1.2651340    1.0339760  
O    -6.9148010   -2.2037280    1.5961060  
C    -4.9157770   -1.2928170    0.6839210  
H    -7.2016700    1.9124780   -0.1403960  
H    -8.5512920   -1.0408150    1.4755110  
H    -4.3712900   -2.1964770    0.9232630  
H    -2.4367010    2.1188180   -1.2399150  
C     4.0994360   -1.7218740    2.7481650  
C     4.9463860   -2.6470430    2.1985140  
C     4.3379010   -3.1075640    0.9813300  
C     3.1117980   -2.4104150    0.8394700  
N     2.9984610   -1.5595380    1.9214410  
C     2.2085930   -2.6410490   -0.2243660  
C     2.5975060   -3.5953220   -1.1689830  
O     1.8153990   -3.8235390   -2.2560010  
C     3.8294190   -4.2890180   -1.0453500  
O     4.0617830   -5.1818600   -2.0728850  
C     4.6951580   -4.0604120    0.0067240  
H     5.8916820   -2.9697390    2.6127410  
H     2.1744030   -1.0207880    2.1395080  
H     2.2240010   -4.5468780   -2.7629650  
H     4.8831250   -5.6668780   -1.9049970  
H     5.6320940   -4.6090720    0.0780760  
H     4.1830700   -1.1551280    3.6649640  
