60


C     0.5154560   -0.7245150    0.3371840  
C     0.6744010   -2.0993550    0.4157430  
C     2.0711590   -2.3629440    0.4156220  
C     2.7397350   -1.1064700    0.3133400  
N     1.7698420   -0.1404950    0.2383420  
C     4.1551020   -0.9690780    0.2584560  
C     4.8473400   -2.1790400    0.3972080  
O     6.2217810   -2.1995170    0.4049250  
C     4.1937080   -3.4371400    0.5102660  
O     5.0737600   -4.4985870    0.6111320  
C     2.8235970   -3.5514500    0.5060790  
H    -0.1241910   -2.8235370    0.4956990  
H     1.9895140    0.8293020    0.4254730  
H     6.4842690   -3.1118990    0.6309720  
H     4.5967910   -5.2961460    0.8851040  
H     2.3399190   -4.5225970    0.5750120  
C    -0.6871290    0.0603770    0.3831110  
C    -1.9870970   -0.3259580    0.1475090  
C    -2.8354900    0.8108870    0.3340840  
C    -1.9391600    1.9323700    0.7036670  
N    -0.6457620    1.4307420    0.6730120  
C    -2.3483570    3.1914180    0.9907390  
C    -3.7743220    3.4910590    0.9000050  
O    -4.2338780    4.6023420    1.1089230  
C    -4.7528210    2.3288210    0.5119100  
O    -5.9537020    2.5467170    0.5389450  
C    -4.1928390    1.0001840    0.1924550  
H    -2.2988290   -1.3095000   -0.1694150  
H    -1.6679910    3.9961290    1.2521180  
H     0.1121840    1.8715790    1.1765420  
C    -5.2384430   -3.1295050    1.6334230  
C    -4.6340300   -1.9205380    1.5323950  
C    -5.2603450   -1.2762830    0.3821700  
C    -6.2586400   -2.2819640   -0.0894510  
N    -6.2397130   -3.3618920    0.6427540  
C    -7.1328220   -2.0230940   -1.2044070  
C    -7.0208740   -0.8269900   -1.8248420  
O    -7.7601540   -0.4520270   -2.8816930  
C    -5.9968870    0.1949140   -1.4052010  
O    -5.8770730    1.1869020   -2.1155970  
C    -5.1264180   -0.0599260   -0.2102030  
H    -3.8644700   -1.5029010    2.1652130  
H    -7.8504010   -2.7732290   -1.5177610  
H    -7.4224330    0.4361910   -3.1320040  
H    -5.0543250   -3.9041400    2.3689680  
C     7.5519120    0.1278280   -2.3598050  
C     7.6358740    1.4554660   -2.1065780  
C     6.6114730    1.7668800   -1.1330380  
C     5.9079730    0.4861830   -0.8426580  
N     6.4997370   -0.4572930   -1.6515120  
C     4.8514660    0.3269640    0.0332130  
C     4.4082940    1.5657670    0.6871910  
O     3.4177120    1.6459360    1.4112440  
C     5.1882320    2.9148130    0.4466030  
O     4.8321770    3.8977090    1.0750400  
C     6.2704180    2.9315900   -0.5264770  
H     8.3251310    2.1591190   -2.5499090  
H     6.7782510    3.8717410   -0.7164450  
H     8.1507160   -0.4848890   -3.0209520  
H     6.4893440   -1.4360840   -1.3884280  
