60


C     3.5700520   -0.1304510    0.5085230  
C     2.2296700    0.1620430    0.4022230  
C     2.1146620    1.5940330    0.3399380  
C     3.4350350    2.1134140    0.3927990  
N     4.3020020    1.0424810    0.5110030  
C     3.7284310    3.4741170    0.2810910  
C     2.6564460    4.3308860    0.0829650  
O     2.8676750    5.6632300   -0.0471380  
C     1.3206530    3.8469360    0.0087020  
O     0.3919720    4.8371390   -0.1710430  
C     1.0117530    2.4898820    0.1723680  
H     1.4398530   -0.5684610    0.3065820  
H     5.3000700    1.1022970    0.6452370  
H     4.7391590    3.8669460    0.3129340  
H     1.9916780    6.0584880   -0.2232590  
H    -0.2762360    4.5031030   -0.8164620  
C    -0.9679990   -0.1187970    3.0486750  
C    -2.1729420   -0.3039430    2.4341910  
C    -2.1584180    0.4588130    1.2153280  
C    -0.8389390    1.1164650    1.1646090  
N    -0.1617540    0.7056550    2.2914950  
C    -0.3774550    1.9853540    0.1963900  
C    -1.3920800    2.3899320   -0.7689420  
O    -1.2454370    3.2970390   -1.5874060  
C    -2.7953850    1.6754860   -0.7847780  
O    -3.5844220    2.0627240   -1.6365720  
C    -3.1045310    0.6370120    0.2135070  
H    -3.0014180   -0.8658340    2.8331990  
H    -0.6160910   -0.5034180    3.9966200  
H     0.7783610    0.9971070    2.5144550  
C    -4.3340200   -0.1219450    0.1136720  
C    -4.6764250   -1.3285110    0.6996270  
C    -5.9906550   -1.6849230    0.2524630  
C    -6.4230570   -0.5991700   -0.6619290  
N    -5.3906170    0.3109040   -0.6901620  
C    -7.6167480   -0.5758210   -1.3079450  
C    -8.5456050   -1.6819880   -1.0943650  
O    -9.6410090   -1.7464350   -1.6315390  
C    -8.1093790   -2.8420040   -0.1255330  
O    -8.8754500   -3.7749250    0.0670580  
C    -6.7950350   -2.7565450    0.5107960  
H    -4.0440940   -1.9378250    1.3252770  
H    -7.9168380    0.2253460   -1.9759920  
H    -6.5027520   -3.5636390    1.1759710  
H    -5.2930780    1.1059360   -1.3084090  
C     3.7526890   -2.4054350    1.4767480  
C     4.5341440   -3.5055260    1.3734170  
C     5.5755840   -3.2093840    0.4106530  
C     5.3242340   -1.8247660   -0.0593110  
N     4.2019380   -1.3707470    0.6400270  
C     6.0675220   -1.1921080   -1.0020610  
C     7.2119300   -1.9014090   -1.5764040  
O     7.9354000   -1.4071380   -2.4259890  
C     7.5140260   -3.3569480   -1.0693410  
O     8.4747830   -3.9565830   -1.5228900  
C     6.6162720   -3.9397270   -0.0663500  
H     4.4121670   -4.4313980    1.9165880  
H     5.8511400   -0.1959520   -1.3719960  
H     6.8175690   -4.9554510    0.2602370  
H     2.8848720   -2.2255460    2.0962490  
