60


C    -0.7683690    1.8282380    0.0473270  
C    -1.3783970    3.0527390    0.2256780  
C    -2.7861160    2.8222970    0.3187220  
C    -2.9910610    1.4211040    0.1783650  
N    -1.7536140    0.8510190   -0.0128450  
C    -4.2751140    0.8194840    0.1845390  
C    -5.3445230    1.6962450    0.4318640  
O    -6.6201100    1.2173540    0.5406830  
C    -5.1459710    3.0905650    0.5908220  
O    -6.3193600    3.7976280    0.8071840  
C    -3.8939940    3.6660480    0.5187570  
H    -0.8692340    4.0023610    0.3187080  
H    -1.5935360   -0.1398740    0.0980400  
H    -7.1780490    1.9737580    0.7959970  
H    -6.1043010    4.6747450    1.1569120  
H    -3.7709710    4.7419570    0.6237750  
C     1.5737440    2.2675950   -0.7454180  
C     0.6448280    1.5091790   -0.0918470  
C     1.3729480    0.3712290    0.4695400  
C     2.7873780    0.5361240    0.0383350  
N     2.8330720    1.6882990   -0.7122320  
C     3.8102500   -0.3357340    0.3282910  
C     3.4825890   -1.3807900    1.3295750  
O     4.3319790   -2.0364800    1.9073660  
C     1.9829240   -1.6211860    1.7187720  
O     1.7116780   -2.5895060    2.4090670  
C     0.9774630   -0.6653930    1.2550430  
H    -0.0471760   -0.8244990    1.5775920  
H     1.4227060    3.1982580   -1.2762590  
H     3.7219680    2.1917060   -0.7883420  
C     6.6893000    3.0177680   -0.4179090  
C     7.8306730    2.3341850   -0.6503650  
C     7.4455280    0.9286300   -0.6340440  
C     5.9746920    0.9429010   -0.3247880  
N     5.5500580    2.1750800   -0.2281530  
C     5.1920990   -0.2769600   -0.1839780  
C     5.8564420   -1.4273450   -0.5363220  
O     5.2664770   -2.6220090   -0.6154830  
C     7.3174460   -1.4671480   -0.8801140  
O     7.8111060   -2.5594770   -1.1570190  
C     8.0987910   -0.2181010   -0.8925090  
H     8.8218300    2.7257460   -0.8309690  
H     5.9814920   -3.2606070   -0.8339860  
H     9.1527070   -0.2869090   -1.1434400  
H     6.5485060    4.0904200   -0.3634480  
C    -7.0506550   -1.3011010   -2.5551910  
C    -6.3079760   -0.3718200   -1.9019950  
C    -5.4689730   -1.0697070   -0.9533780  
C    -5.7874840   -2.5109970   -1.1171070  
N    -6.7658100   -2.5806970   -2.0871540  
C    -5.2142950   -3.5239000   -0.4171890  
C    -4.1864930   -3.1731480    0.5443610  
O    -3.6247950   -3.9821050    1.2662200  
C    -3.7440430   -1.6627710    0.6422440  
O    -2.7280160   -1.4275370    1.2847750  
C    -4.5248510   -0.6199470   -0.0578130  
H    -6.3394070    0.6943470   -2.0565460  
H    -5.4961540   -4.5664810   -0.5249860  
H    -7.7848740   -1.1666450   -3.3384700  
H    -7.1557950   -3.4368300   -2.4478440  
