58


C    -4.4506920   -3.1988890    2.2350920  
C    -5.4867390   -3.8661760    1.6673080  
C    -6.0870150   -2.9784580    0.6929640  
C    -5.3009280   -1.7211130    0.7396880  
N    -4.3335260   -1.9181160    1.7005040  
C    -5.5619650   -0.6024180   -0.0098610  
C    -6.6661920   -0.7097210   -0.9919800  
O    -6.8896350    0.1511740   -1.8239570  
C    -7.5435670   -2.0114100   -1.0064370  
O    -8.5115030   -2.0567710   -1.7481250  
C    -7.1572660   -3.1196770   -0.1343400  
H    -5.8124000   -4.8691460    1.9009840  
H    -7.7594940   -4.0224640   -0.1661500  
H    -3.7615040   -3.5224740    3.0038070  
H    -3.5932290   -1.2628830    1.9037070  
C    -1.2001020    0.5736090   -0.1141900  
C    -2.3637520   -0.1728910   -0.1421570  
C    -3.4364380    0.7601740    0.0415120  
C    -2.7492310    2.0853300    0.1698860  
N    -1.4527130    1.9676520    0.0857000  
C    -3.4777870    3.3114820    0.3389640  
C    -4.8277760    3.2298960    0.3823880  
O    -5.6381250    4.2803470    0.5373210  
C    -5.5613180    1.9053490    0.3082680  
O    -6.7718690    1.9462290    0.5062540  
C    -4.8040720    0.6478150    0.0846400  
H    -2.4542950   -1.2326320   -0.3341650  
H    -2.9510220    4.2555970    0.4195950  
H    -6.5472680    3.9039500    0.5784940  
C     0.6374070   -1.1347000   -0.4684340  
C     0.1537660    0.1371730   -0.2688530  
C     1.3698770    0.9753750   -0.2440070  
C     2.4868910    0.0167380   -0.4435020  
N     2.0311880   -1.2088950   -0.5665290  
C     3.8894580    0.4245690   -0.4760420  
C     4.0939090    1.7752320   -0.3292870  
O     5.3074840    2.3582520   -0.3774180  
C     2.9892560    2.7560290   -0.1287300  
O     3.2942910    3.9458590   -0.0190280  
C     1.5871920    2.2917670   -0.0846950  
H     5.1281570    3.3200460   -0.2606940  
H     0.7939940    3.0148530    0.0644560  
H     0.0637160   -2.0503480   -0.5529780  
C     4.8229410   -1.7606040   -1.3377850  
C     4.9418590   -0.5646340   -0.6765470  
C     6.3433870   -0.5644060   -0.1984280  
C     6.8978830   -1.8561930   -0.7087920  
N     6.0034540   -2.5348090   -1.3758390  
C     8.2527860   -2.2645220   -0.4562240  
C     9.0281770   -1.4516880    0.3002670  
O    10.3035830   -1.7065910    0.6262660  
C     8.4930650   -0.1626140    0.8606660  
O     9.2513900    0.5176760    1.5489940  
C     7.1007030    0.2405170    0.5723130  
H     8.6151820   -3.2043670   -0.8574950  
H    10.5893290   -0.9450800    1.1780790  
H     6.7710220    1.1869090    0.9804470  
H     3.9317740   -2.1478200   -1.8093710  
