62


C     0.2512770    1.3036920   -0.0306960  
C     1.3819020    0.5462660   -0.3342330  
C     2.5181420    1.3792560   -0.1666660  
C     2.0405650    2.6543740    0.2567500  
N     0.6752410    2.5817120    0.3251220  
C     2.8953500    3.7247070    0.5429090  
C     4.2540490    3.5041160    0.3916310  
O     5.1342960    4.5096890    0.6444850  
C     4.7561260    2.2428680   -0.0442590  
O     6.1292290    2.2353400   -0.1818160  
C     3.9201120    1.1676230   -0.3236070  
H     1.3485630   -0.4893970   -0.6292110  
H     0.0407240    3.3149850    0.6069060  
H     2.5395430    4.6955120    0.8708500  
H     6.0278690    4.1595910    0.4807380  
H     6.4370740    1.3548060   -0.4476220  
C    -1.7035140   -2.4698350   -1.1442900  
C    -3.0068860   -2.1841300   -0.9135690  
C    -3.0168880   -0.8071480   -0.4308000  
C    -1.5846750   -0.4065560   -0.4400820  
N    -0.8284270   -1.3830110   -0.8616040  
C    -1.1459570    0.9376360   -0.0413420  
C    -2.1624610    1.7892350    0.3155340  
O    -1.9474000    3.0693910    0.7276760  
C    -3.5875550    1.4135590    0.3577790  
O    -4.3801310    2.2440050    0.8131790  
C    -4.0177970    0.0458610   -0.0867060  
H    -3.8699040   -2.8144120   -1.0739920  
H    -2.8445390    3.3982220    0.9683260  
H    -1.2764480   -3.3931970   -1.5170760  
C    -6.1594070   -3.2018370    2.0416820  
C    -7.4295900   -2.8575070    1.6621030  
C    -7.3162970   -1.7122790    0.8040460  
C    -5.9342610   -1.4070440    0.6968740  
N    -5.2555150   -2.3265600    1.4665880  
C    -5.4457050   -0.3003870   -0.0379860  
C    -6.4033350    0.4729050   -0.7040540  
O    -6.0034630    1.4987460   -1.5016630  
C    -7.7842160    0.1659670   -0.6166890  
O    -8.5865440    1.0230970   -1.3458750  
C    -8.2482640   -0.9017330    0.1273650  
H    -8.3412320   -3.3562360    1.9607370  
H    -4.2523790   -2.3776690    1.5553300  
H    -6.8058480    1.9528070   -1.8135270  
H    -9.5180060    0.8130650   -1.1839340  
H    -9.3143980   -1.1131650    0.1809980  
H    -5.8127850   -4.0040550    2.6775530  
C     3.9728060   -0.8384010   -1.8662980  
C     4.4439760   -0.1247870   -0.7994050  
C     5.5291080   -0.9225090   -0.2301080  
C     5.6483640   -2.1394060   -1.0748650  
N     4.6740010   -2.0218510   -2.0453590  
C     6.5489700   -3.1334230   -0.8717950  
C     7.4706610   -3.0188440    0.2554440  
O     8.3216820   -3.8573720    0.5080050  
C     7.3468180   -1.7555450    1.1825150  
O     8.0912640   -1.6519340    2.1440400  
C     6.3351450   -0.7445650    0.8540510  
H     6.6160020   -4.0152520   -1.5017410  
H     6.2492120    0.1101010    1.5177610  
H     3.1655260   -0.5801400   -2.5384010  
H     4.4831050   -2.7080720   -2.7585670  
