58


C     5.0100190   -0.2213150   -0.0717040  
C     5.8677700   -1.2002860   -0.5228930  
C     7.2105920   -0.7734460   -0.2426390  
C     7.0994960    0.5508010    0.4185450  
N     5.7555170    0.8253640    0.4932290  
C     8.1609380    1.2870710    0.8401590  
C     9.5023070    0.7531750    0.6371620  
O    10.5169080    1.3408330    0.9828810  
C     9.6441720   -0.6499330   -0.0613540  
O    10.7600970   -1.1144610   -0.2396190  
C     8.4242630   -1.3491140   -0.4728680  
H     5.5584790   -2.1153550   -1.0006480  
H     8.0614540    2.2547040    1.3222020  
H     8.5328430   -2.3163400   -0.9541930  
H     5.3392280    1.6571080    0.8836640  
C     2.1273470   -3.0939630   -1.7246240  
C     0.9460210   -2.4942580   -1.4397000  
C     1.2947520   -1.2631740   -0.7445520  
C     2.7778660   -1.2749610   -0.7111930  
N     3.2530550   -2.3503940   -1.2754040  
C     3.5605140   -0.1833770   -0.1176110  
C     2.8150620    0.8593250    0.3695850  
O     3.3468230    1.9693700    0.9312720  
C     1.3275480    0.8961810    0.3450030  
O     0.7965590    1.9043150    0.8226750  
C     0.5476760   -0.2500620   -0.2066310  
H    -0.0465850   -2.8278250   -1.7043030  
H     2.5711200    2.5214730    1.1856740  
H     2.2983410   -4.0271830   -2.2464870  
C    -1.6505930   -1.4000560    0.1595810  
C    -0.8965650   -0.2768620   -0.0852460  
C    -1.9023000    0.8008740   -0.1969160  
C    -3.2097840    0.0974760   -0.0021970  
N    -3.0325890   -1.1834450    0.2168050  
C    -4.4860370    0.7757100   -0.0697610  
C    -4.4360470    2.1168890   -0.3304610  
O    -5.5156650    2.8969350   -0.3846560  
C    -3.1409920    2.8496810   -0.5469580  
O    -3.1999280    4.0545600   -0.7754740  
C    -1.8606490    2.1165930   -0.4721300  
H    -5.1900380    3.7956400   -0.6151920  
H    -0.9534010    2.6880810   -0.6207560  
H    -1.2717660   -2.3974820    0.3487530  
C    -6.3359550   -1.7690490    3.1004710  
C    -5.4989720   -0.9743100    2.3844180  
C    -6.1386230   -0.7022860    1.1171960  
C    -7.4433130   -1.4123250    1.1577210  
N    -7.4951590   -2.0437580    2.3846570  
C    -8.3705420   -1.3952960    0.1672800  
C    -8.0753030   -0.6288870   -1.0351910  
O    -8.8478550   -0.5335700   -1.9756350  
C    -6.6902690    0.1091460   -1.1250570  
O    -6.4093640    0.6888770   -2.1592460  
C    -5.7666850    0.0487550    0.0349250  
H    -4.5268850   -0.6267290    2.6962620  
H    -9.3235810   -1.9113780    0.2297960  
H    -6.2059140   -2.1831470    4.0916280  
H    -8.2719560   -2.5931040    2.7168280  
