58


C    -2.6236940   -3.5668420   -1.4629640  
C    -3.9632060   -3.7290440   -1.3534300  
C    -4.4249610   -2.8612550   -0.2932050  
C    -3.2187150   -2.1669550    0.2248200  
N    -2.1450310   -2.6100220   -0.5469350  
C    -3.2326390   -1.3050620    1.2756530  
C    -4.5127060   -1.0005540    1.9129110  
O    -4.6132910   -0.2306350    2.8561160  
C    -5.8055600   -1.6920280    1.3500230  
O    -6.8856640   -1.4280770    1.8542230  
C    -5.6538880   -2.6358780    0.2402090  
H    -4.5755110   -4.3925150   -1.9467670  
H    -2.3426890   -0.8420520    1.6849990  
H    -6.5466790   -3.1397610   -0.1175600  
H    -1.9213160   -4.0500440   -2.1245490  
C    -0.2628000    1.3341180   -0.3967390  
C     1.0403650    0.9083930   -0.2529350  
C     1.0461110   -0.5249970   -0.2102830  
C    -0.3645660   -0.9373520   -0.3596180  
N    -1.1004250    0.2146480   -0.4538600  
C    -0.7913720   -2.2401530   -0.4139380  
C     0.2316690   -3.2886550   -0.3783820  
O    -0.0245880   -4.4738590   -0.5213470  
C     1.7244130   -2.8686760   -0.1397480  
O     2.5309170   -3.7500340    0.0875840  
C     2.0818910   -1.4286250   -0.1280420  
H     1.9153950    1.5362690   -0.2433620  
H    -2.0889910    0.2868090   -0.6537670  
C     1.3069000    5.4216420    0.5556100  
C     1.1901510    4.0678150    0.5151670  
C    -0.0801990    3.8141800   -0.1395120  
C    -0.6157800    5.1867180   -0.4181660  
N     0.2076000    6.1171700   -0.0239550  
C    -1.8916310    5.3973240   -1.0431240  
C    -2.6326570    4.3071590   -1.3478400  
O    -3.8533320    4.3654040   -1.8998380  
C    -2.1422590    2.9158840   -1.0697810  
O    -2.9220730    1.9958310   -1.3258110  
C    -0.7715650    2.6894140   -0.5096580  
H     1.8733150    3.3410250    0.9275440  
H    -2.2432400    6.4050270   -1.2334310  
H    -4.1682790    3.4399530   -1.9768450  
H     2.1180570    6.0021730    0.9792430  
C     4.3782000    1.0932390    2.7686350  
C     3.3884720    0.4422770    2.0987890  
C     3.9994660   -0.2397890    0.9784420  
C     5.4485480    0.0657470    1.0581930  
N     5.6046760    0.8989100    2.1515120  
C     6.3990130   -0.4243850    0.2217040  
C     5.9781880   -1.3197860   -0.8479330  
O     6.7568380   -1.8450840   -1.6270980  
C     4.4437820   -1.6036680   -1.0108690  
O     4.0642290   -2.1989990   -2.0017530  
C     3.4941700   -1.0665710    0.0048360  
H     2.3439130    0.4239770    2.3692900  
H     7.4570790   -0.2041150    0.3243330  
H     4.3147700    1.6975660    3.6640210  
H     6.4932890    1.2125490    2.5099420  
