58


C     5.4822760   -1.5584140    1.8342550  
C     6.8184900   -1.7555590    1.7783430  
C     7.3202530   -1.0477350    0.6203240  
C     6.1445940   -0.4123080   -0.0217640  
N     5.0259480   -0.7766880    0.7554480  
C     6.2276670    0.4064990   -1.0947970  
C     7.5447040    0.6383010   -1.6988730  
O     7.6988520    1.3610970   -2.6689860  
C     8.7917090   -0.0697840   -1.0644870  
O     9.8913560    0.1001180   -1.5644460  
C     8.5754780   -0.8972600    0.1254620  
H     7.4036170   -2.3512920    2.4642750  
H     5.3765100    0.8890180   -1.5581110  
H     9.4446900   -1.3539080    0.5886910  
H     4.7570270   -1.9380270    2.5402220  
C     1.9676740    0.7658970    3.5350230  
C     3.1642490    0.3525860    3.0494690  
C     2.9190850    0.0527730    1.6438050  
C     1.4725650    0.3453140    1.4567920  
N     0.9249180    0.7609270    2.5640010  
C     0.7996530    0.1807830    0.1769210  
C     1.5726680   -0.2316750   -0.8646140  
O     1.1150570   -0.3661970   -2.1161450  
C     3.0298600   -0.5581360   -0.7165320  
O     3.6117970   -1.0051650   -1.6983670  
C     3.6965670   -0.3708910    0.6111680  
H     4.1075110    0.2919300    3.5731370  
H     1.8542130   -0.7438660   -2.6403550  
H     1.7350030    1.0946960    4.5404660  
C    -1.9642710    3.6532130    0.7747150  
C    -0.8502570    2.8899090    0.7618220  
C    -1.2914980    1.5751250    0.3114000  
C    -2.7654020    1.7340290    0.1005540  
N    -3.1436580    2.9499210    0.3683930  
C    -3.6231630    0.6422810   -0.3620720  
C    -2.9649230   -0.5192070   -0.6579600  
O    -3.5715500   -1.6131630   -1.1601270  
C    -1.4997530   -0.7112630   -0.4520850  
O    -1.0381120   -1.8273030   -0.6889120  
C    -0.6487480    0.4187850    0.0290870  
H     0.1553260    3.1659220    1.0403640  
H    -2.8593520   -2.2869750   -1.2386480  
H    -2.0587060    4.6964520    1.0505410  
C    -5.6506500    2.0497060   -0.8047600  
C    -5.0643520    0.8466330   -0.4978700  
C    -6.1654730   -0.1000520   -0.2898880  
C    -7.4172950    0.6607370   -0.5389050  
N    -7.0241510    1.9467100   -0.8571410  
C    -8.6733410    0.1577040   -0.4437240  
C    -8.8332020   -1.2363510   -0.0453310  
O    -9.9211950   -1.7807640    0.0658630  
C    -7.5310010   -2.0554800    0.2657830  
O    -7.6358530   -3.2187090    0.6227510  
C    -6.2288690   -1.3952320    0.1165600  
H    -9.5657980    0.7464840   -0.6331540  
H    -5.3483530   -1.9896390    0.3195010  
H    -5.1634610    2.9970310   -0.9768100  
H    -7.6542020    2.7112310   -1.0449860  
