58


C    -5.6515510   -2.1980290    2.9473920  
C    -6.5851600   -2.7865880    2.1590550  
C    -6.2373640   -2.4873600    0.7850330  
C    -5.0030750   -1.6643310    0.8408260  
N    -4.7029800   -1.5281830    2.1762050  
C    -4.3659430   -1.1342750   -0.2518810  
C    -4.9125130   -1.4900530   -1.5796040  
O    -4.3438680   -1.2089940   -2.6194740  
C    -6.2420230   -2.3206210   -1.6493800  
O    -6.7373400   -2.5440900   -2.7414240  
C    -6.8291000   -2.8014180   -0.3977410  
H    -7.4346980   -3.3659970    2.4893250  
H    -7.7417140   -3.3862390   -0.4601420  
H    -5.5661280   -2.1884850    4.0257930  
H    -3.9004820   -1.0322790    2.5341510  
C    -0.2957330   -1.4451720    1.5951750  
C    -1.5698970   -1.7319450    1.2329440  
C    -2.0371180   -0.5564000    0.5102190  
C    -0.8780480    0.3885760    0.5556430  
N     0.1330160   -0.1543720    1.1854390  
C    -0.9069470    1.7071940   -0.0533280  
C    -2.0236690    1.9657130   -0.8054230  
O    -2.1746830    3.0681800   -1.5402880  
C    -3.2203350    1.0556550   -0.8508650  
O    -4.2213000    1.4809930   -1.4149920  
C    -3.1808490   -0.2764530   -0.1689740  
H    -2.1119560   -2.6543670    1.3850250  
H    -3.0950950    3.0402740   -1.8851940  
H     0.4059230   -2.0761840    2.1273600  
C     3.5627890    1.5903940   -0.0556200  
C     3.7952400    2.9457070    0.0153930  
C     2.5221120    3.5974640    0.1225990  
C     1.5008590    2.5156940    0.0774230  
N     2.1934700    1.3366460   -0.0622970  
C     0.1446660    2.7265100    0.1177380  
C    -0.2757900    4.1146890    0.4372420  
O    -1.4073610    4.3978290    0.7903370  
C     0.7820190    5.2727410    0.3751920  
O     0.3896880    6.4273290    0.4600630  
C     2.1858040    4.9149830    0.2331200  
H     4.7598520    3.4325100    0.0083620  
H     2.9210320    5.7136740    0.2182170  
H     1.7865010    0.4457550    0.2269320  
C     4.4955120    0.4947150   -0.1100690  
C     5.8626430    0.5242410   -0.1772700  
C     6.2767110   -0.8582490   -0.2001670  
C     4.9913150   -1.6320390   -0.1342350  
N     3.9605910   -0.8412290   -0.0810270  
C     4.9769700   -3.0717660   -0.1327130  
C     6.1688740   -3.7109170   -0.1943560  
O     6.3106800   -5.0415290   -0.2014800  
C     7.4814000   -2.9586030   -0.2621820  
O     8.5100960   -3.6310040   -0.3141020  
C     7.4723220   -1.4907290   -0.2617740  
H     6.5079180    1.3906450   -0.2133900  
H     4.0357430   -3.6078550   -0.0871440  
H     7.2801910   -5.2011210   -0.2531290  
H     8.4322140   -0.9860450   -0.3099700  
