62


C     1.9683670   -0.3985170    0.1366530  
C     3.3240990   -0.4324530   -0.0911740  
C     3.7183060    0.9399090   -0.3853490  
C     2.5629820    1.7499980   -0.2688830  
N     1.4855320    0.8980060    0.0539580  
C     2.5796280    3.1234940   -0.5231260  
C     3.7849070    3.6928410   -0.9148610  
O     3.8460700    5.0308730   -1.1679940  
C     4.9413520    2.8945560   -1.0742080  
O     6.0576260    3.5877370   -1.4972370  
C     4.9203720    1.5321100   -0.8165450  
H     1.6911830    3.7307670   -0.4228520  
H     4.7466630    5.2268890   -1.4789030  
H     6.7495610    2.9627420   -1.7602680  
H     5.8110560    0.9340790   -0.9894320  
H     1.3075010   -1.2109580    0.3840710  
C     0.1500790    1.2225790    0.2200760  
C    -0.9225480    0.3629340    0.2531120  
C    -2.0649020    1.2021520    0.4816770  
C    -1.4982460    2.5770210    0.5539350  
N    -0.1991350    2.5809210    0.4022490  
C    -2.3173400    3.7431920    0.7538770  
C    -3.6488280    3.5432510    0.8484300  
O    -4.5511300    4.5207750    1.0118370  
C    -4.2686580    2.1589670    0.7720400  
O    -5.4968300    2.1283080    0.8796910  
C    -3.4176030    0.9602430    0.6027440  
H    -0.9258840   -0.6998310    0.0691480  
H    -1.8686970    4.7286450    0.8073940  
H    -5.4179620    4.0557470    1.0598090  
C    -3.3635600   -1.4572330    1.2427660  
C    -4.0018350   -0.3745570    0.6510130  
C    -5.2560980   -0.8911370    0.1249130  
C    -5.2914750   -2.2756750    0.4251800  
N    -4.1297780   -2.5812900    1.1145780  
C    -6.3378350   -3.1218190    0.0423420  
C    -7.3832400   -2.5581080   -0.6711210  
O    -8.4347650   -3.3296360   -1.0674950  
C    -7.3661470   -1.1757080   -0.9923170  
O    -8.4729800   -0.7572700   -1.7058590  
C    -6.3282730   -0.3473270   -0.6101030  
H    -3.8938650   -3.4897420    1.4837300  
H    -6.3541470   -4.1810180    0.2775660  
H    -9.0537180   -2.7486590   -1.5429130  
H    -8.4223990    0.1999230   -1.8459150  
H    -6.3582900    0.7099770   -0.8496950  
H    -2.4306990   -1.4802740    1.7863330  
C     7.3854510   -1.1069850    1.5003730  
C     7.5331870   -2.4206440    1.1833060  
C     6.3097930   -2.8490560    0.5412530  
C     5.4332830   -1.6580740    0.4873620  
N     6.1503900   -0.6336310    1.0820510  
C     4.1582750   -1.6262370   -0.0216270  
C     3.6125330   -2.9424130   -0.4358720  
O     2.4411920   -3.1107770   -0.7336630  
C     4.5669120   -4.1961070   -0.4800690  
O     4.1263230   -5.2346420   -0.9512250  
C     5.9091370   -4.0609760    0.0608420  
H     8.3956740   -3.0383230    1.3869300  
H     6.5457250   -4.9399430    0.0781200  
H     8.0729690   -0.4403660    2.0044990  
H     5.7797750    0.2880290    1.2582680  
