58


C     4.4254150   -0.5797980   -0.0737740  
C     5.1006140   -1.7667370   -0.0253440  
C     6.5077540   -1.4624890   -0.0864140  
C     6.6079330    0.0140690   -0.1729680  
N     5.3042200    0.5075480   -0.1049350  
C     7.7669360    0.6995540   -0.2964530  
C     9.0209550   -0.0597150   -0.3159830  
O    10.1120570    0.4753110   -0.4217990  
C     8.9427200   -1.6238240   -0.1818170  
O     9.9810820   -2.2673980   -0.1862470  
C     7.6227440   -2.2431810   -0.0711140  
H     4.6625720   -2.7458150    0.1016570  
H     7.8211630    1.7816370   -0.3665130  
H     7.5791570   -3.3254150    0.0026590  
H     5.0429200    1.3981500   -0.5058170  
C     2.1512270   -1.2806000   -0.6878800  
C     0.8791970   -0.8345460   -0.5924480  
C     0.9068490    0.4409780    0.0956230  
C     2.3271830    0.7165800    0.4017130  
N     3.0566440   -0.3682120   -0.1107250  
C     2.7729820    1.8053820    1.0807180  
C     1.7944860    2.8077620    1.4848050  
O     2.0966040    3.8336200    2.0720050  
C     0.2825050    2.5593980    1.1452840  
O    -0.5318090    3.3970170    1.4917540  
C    -0.1016450    1.3057460    0.4490570  
H     0.0060160   -1.3370470   -0.9835780  
H     3.8072800    1.9668110    1.3581820  
H     2.5395090   -2.1713840   -1.1604610  
C    -2.0587850   -0.2434830    0.4396810  
C    -1.5117870    0.9885900    0.2290580  
C    -2.5890750    1.8298980   -0.3020080  
C    -3.7817980    0.9543620   -0.4087060  
N    -3.4091380   -0.2926600    0.0980400  
C    -4.9736220    1.3363060   -0.9385300  
C    -5.1183700    2.7120820   -1.4128120  
O    -6.1546000    3.1388310   -1.8968920  
C    -3.8796700    3.6628120   -1.2850110  
O    -3.9749110    4.8165880   -1.6675980  
C    -2.6371500    3.1194500   -0.7177460  
H    -5.8119310    0.6632130   -1.0773570  
H    -1.7907690    3.7909200   -0.6424370  
H    -1.5912830   -1.1241430    0.8515010  
C    -7.4251260   -1.1060090    1.6462450  
C    -7.5170490   -2.4114330    1.2927710  
C    -6.2685000   -2.7775550    0.6555490  
C    -5.4352960   -1.5497370    0.6641020  
N    -6.1779680   -0.5823620    1.2939050  
C    -4.1772500   -1.4753130    0.1261300  
C    -3.5979770   -2.6997720   -0.4416580  
O    -2.4656200   -2.7480210   -0.9004080  
C    -4.4712120   -4.0091230   -0.4365860  
O    -3.9822120   -5.0240680   -0.9027540  
C    -5.8134200   -3.9495080    0.1371350  
H    -8.3593020   -3.0660360    1.4614940  
H    -6.4065570   -4.8581620    0.1298560  
H    -8.1471630   -0.4721670    2.1430370  
H    -5.9232550    0.3933220    1.3455900  
