62


C    -0.5218610   -1.5040560   -0.4313520  
C     0.8303320   -1.5395500   -0.1960060  
C     1.2634860   -0.1827230   -0.0435520  
C     0.1066720    0.6340760   -0.1578430  
N    -0.9614970   -0.1946090   -0.4279470  
C     0.1026820    2.0414630   -0.0286900  
C     1.3605250    2.5909320    0.2099130  
O     1.5014000    3.9565610    0.3231970  
C     2.5331110    1.8128890    0.3486660  
O     3.6700000    2.5653250    0.5663400  
C     2.5287300    0.4192260    0.2093780  
H     1.4374280   -2.4296480   -0.1518300  
H    -1.9156200    0.1182380   -0.5329440  
H     2.4522150    4.1013630    0.5070690  
H     4.1478970    2.1807420    1.3327980  
C    -3.9875560    1.6144210    1.7982340  
C    -2.6448180    1.5115630    1.5308130  
C    -2.3323390    2.4804080    0.5126580  
C    -3.5405540    3.1692670    0.2253970  
N    -4.5291670    2.6093790    1.0105330  
C    -3.6140250    4.2339400   -0.6802750  
C    -2.4318030    4.6187470   -1.2915220  
O    -2.4195410    5.6627130   -2.1654990  
C    -1.2100790    3.9365670   -1.0387510  
O    -0.1430380    4.4182600   -1.7660660  
C    -1.1372340    2.8412250   -0.1742850  
H    -1.9521220    0.8502420    2.0314530  
H    -5.4966880    2.8923330    1.0165680  
H    -4.5349480    4.7665330   -0.8945100  
H    -1.4892830    5.7564320   -2.4464610  
H     0.6345390    4.4606420   -1.1682130  
H    -4.6081980    1.0356750    2.4677970  
C    -1.0939920   -3.6240620   -1.5769940  
C    -2.0955050   -4.5362800   -1.6183600  
C    -3.1438170   -4.0684010   -0.7366820  
C    -2.6554650   -2.7925130   -0.1567750  
N    -1.3971760   -2.5615530   -0.7136920  
C    -3.3475680   -2.0495550    0.7435860  
C    -4.6724120   -2.5059660    1.1513960  
O    -5.3734230   -1.8854940    1.9389360  
C    -5.2147640   -3.8498630    0.5435230  
O    -6.3193900   -4.2491660    0.8775930  
C    -4.3619300   -4.5718990   -0.4046930  
H    -2.1159450   -5.4378000   -2.2133030  
H    -2.9833500   -1.1204760    1.1640680  
H    -4.7410870   -5.5039620   -0.8127280  
H    -0.1510400   -3.6005910   -2.1061720  
C     4.3117030   -2.6719920   -2.4200090  
C     5.4509660   -2.9814580   -1.7636300  
C     5.4484420   -2.1303280   -0.5767560  
C     4.1676240   -1.3586310   -0.6784370  
N     3.5179970   -1.6773530   -1.7572230  
C     3.7772850   -0.3592740    0.3240750  
C     4.6923030   -0.1676960    1.3180860  
O     4.5233570    0.7414530    2.3210600  
C     5.9685550   -0.9208330    1.4457620  
O     6.6926890   -0.6641780    2.4113790  
C     6.3135900   -1.9359930    0.4347210  
H     6.2216100   -3.6846690   -2.0473860  
H     5.3221370    0.6343290    2.8899540  
H     7.2558530   -2.4619220    0.5545570  
H     3.9473700   -3.0742120   -3.3575080  
