58


C     1.2083180   -0.0914380   -1.5909110  
C     2.5554570   -0.0674630   -1.4438710  
C     2.8384550   -0.0688420   -0.0245130  
C     1.5233910   -0.0981130    0.6557270  
N     0.5531630   -0.0998700   -0.3534450  
C     1.3531100   -0.1855770    1.9972330  
C     2.5422770   -0.2262000    2.8419870  
O     2.4923300   -0.3401520    4.0563780  
C     3.9473410   -0.1144390    2.1543710  
O     4.9374640   -0.0095800    2.8551600  
C     4.0165380   -0.0897060    0.6706700  
H     3.2841180   -0.0471520   -2.2400850  
H     0.3830350   -0.2311090    2.4776560  
H     0.6135320   -0.0877720   -2.4942180  
C    -2.5347170   -2.7334900   -1.9711740  
C    -1.3449610   -2.1867610   -1.5945120  
C    -1.6515370   -1.0175510   -0.8100380  
C    -3.1307150   -0.9103310   -0.7892160  
N    -3.6034260   -1.9634690   -1.5477430  
C    -3.8490390    0.0680610   -0.1438770  
C    -3.0397510    0.9370550    0.7463090  
O    -3.5162900    1.5964680    1.6513990  
C    -1.4820160    0.9865340    0.5704760  
O    -0.8696200    1.9211410    1.0560680  
C    -0.8437750   -0.1025860   -0.1824720  
H    -0.3609880   -2.5745470   -1.8113930  
H    -2.7178970   -3.6416130   -2.5308470  
H    -4.5487270   -2.3149710   -1.3580540  
C     6.1153460    2.8131610   -1.9839150  
C     5.2010440    2.1752200   -1.2090050  
C     5.7996510    0.9304680   -0.7697470  
C     7.1616170    0.9012710   -1.3578310  
N     7.2793950    2.0599820   -2.1018200  
C     8.0781870   -0.0800730   -1.1542380  
C     7.7064010   -1.2010490   -0.3031650  
O     8.4629670   -2.1226600   -0.0378280  
C     6.2500370   -1.2305110    0.2861720  
O     5.8824120   -2.2264620    0.8823100  
C     5.3469350   -0.0750570    0.0407510  
H     4.2141600    2.5326140   -0.9574940  
H     9.0770890   -0.0628930   -1.5791820  
H     6.0418340    3.7698290   -2.4841160  
H     8.1275410    2.3668590   -2.5516020  
C    -7.3585320   -2.7217290   -0.1501220  
C    -8.3756080   -1.8580610    0.0565770  
C    -7.7636910   -0.5352760    0.0526810  
C    -6.2969120   -0.7980910   -0.1401680  
N    -6.0869090   -2.0792810   -0.2803490  
C    -5.3074180    0.2710930   -0.1699980  
C    -5.8352330    1.5400290   -0.1887750  
O    -5.0999260    2.6395290   -0.3606760  
C    -7.3016900    1.8299480   -0.0290360  
O    -7.6526110    3.0081410   -0.0388790  
C    -8.2536340    0.7157870    0.1157090  
H    -9.4262640   -2.0780010    0.1827040  
H    -5.7240530    3.3959810   -0.2815410  
H    -9.3039080    0.9635210    0.2332670  
H    -7.3981000   -3.8013900   -0.2255060  
