60


C     0.3828780    1.5143630   -0.5838160  
C    -0.9597440    1.4573710   -0.2934860  
C    -1.2837930    0.0707900   -0.0780950  
C    -0.0795320   -0.6615770   -0.2320880  
N     0.9153980    0.2382290   -0.5627500  
C     0.0344740   -2.0511710   -0.0247180  
C    -1.1401450   -2.6868560    0.3831740  
O    -1.1251910   -4.0059540    0.6748900  
C    -2.3649540   -1.9797950    0.5481020  
O    -3.4039200   -2.7800420    0.9437960  
C    -2.4832010   -0.6124510    0.2855460  
H    -1.6105610    2.3104620   -0.1682030  
H     1.8593680   -0.0064500   -0.8209860  
H    -2.0369910   -4.2323830    0.9446840  
H    -3.9231210   -2.2751680    1.6162180  
C     0.9144150    3.6895570   -1.6865360  
C     1.8852610    4.6342580   -1.6571990  
C     2.9034850    4.1820660   -0.7300690  
C     2.4284070    2.8803500   -0.2041640  
N     1.2125830    2.6159450   -0.8329840  
C     3.0900130    2.1411490    0.7222530  
C     4.3701270    2.6257370    1.2199420  
O     5.0387270    2.0077330    2.0380340  
C     4.9032740    3.9972190    0.6687940  
O     5.9721080    4.4244920    1.0729580  
C     4.0830440    4.7145110   -0.3163830  
H     1.9033730    5.5509100   -2.2285810  
H     2.7190150    1.1981910    1.1017620  
H     4.4566610    5.6670880   -0.6794100  
H    -0.0018690    3.6535910   -2.2598340  
C    -4.4156090    2.0270560   -2.6330600  
C    -5.5125990    2.4125360   -1.9338960  
C    -5.4618930    1.7381410   -0.6529180  
C    -4.2181820    0.9257260   -0.6611620  
N    -3.6350100    1.1496160   -1.8844050  
C    -3.7758710    0.1099620    0.3564440  
C    -4.7005290   -0.0231300    1.4805900  
O    -4.5735890   -0.8621800    2.3744230  
C    -5.9567810    0.9197780    1.5759270  
O    -6.6134960    0.9025330    2.6032890  
C    -6.2911530    1.7513180    0.4232570  
H    -6.2904760    3.0815810   -2.2712280  
H    -7.1868070    2.3617190    0.4769170  
H    -4.1061200    2.2986520   -3.6335880  
H    -2.7635060    0.7322160   -2.1753330  
C     4.0462780   -1.5294270    1.7402700  
C     4.7177140   -2.4918490    1.0597650  
C     3.7722500   -3.1513580    0.1824910  
C     2.4698440   -2.4778160    0.4032420  
N     2.7071320   -1.4794290    1.3390390  
C     1.2988820   -2.7886170   -0.2278370  
C     1.3638180   -3.8759650   -1.2326730  
O     0.4218280   -4.1703390   -1.9459160  
C     2.7235310   -4.6424030   -1.4328660  
O     2.7502040   -5.5873530   -2.2059530  
C     3.8983790   -4.1805800   -0.6975520  
H     5.7720250   -2.7136510    1.1398120  
H     4.8386170   -4.6957750   -0.8683540  
H     4.4152350   -0.8042330    2.4545660  
H     1.9685220   -1.0617500    1.8873960  
