62


C     1.5388250   -0.0078660   -0.0734180  
C     0.8062610    1.1490480   -0.0891660  
C     1.7608610    2.2385610    0.0510710  
C     3.0529440    1.6713400    0.1437930  
N     2.9020130    0.2769750    0.0539930  
C     4.1965290    2.4460060    0.3711990  
C     4.0327720    3.8222400    0.4629540  
O     5.1191760    4.6130550    0.6706280  
C     2.7453210    4.4081420    0.3561800  
O     2.7455870    5.7792890    0.4761900  
C     1.6142080    3.6346270    0.1646820  
H     5.1842510    2.0243750    0.5105900  
H     4.8065990    5.5325070    0.7336160  
H     1.8375270    6.1150420    0.4337270  
H     0.6312700    4.0949350    0.1137060  
H     1.2163730   -1.0292690   -0.2069500  
C    -2.5597650   -0.9217420    2.0350760  
C    -1.3279490   -0.4930220    1.6272490  
C    -1.5343730    0.4538320    0.5659740  
C    -2.9345160    0.5675680    0.3797560  
N    -3.5528140   -0.2902790    1.2873610  
C    -3.5121010    1.4412070   -0.5479790  
C    -2.6486580    2.2043720   -1.3181310  
O    -3.1520960    3.0616160   -2.2517760  
C    -1.2436880    2.1011370   -1.1569100  
O    -0.5296440    2.9140470   -2.0177220  
C    -0.6585390    1.2433760   -0.2252460  
H    -0.3803900   -0.8093140    2.0390470  
H    -4.5832200    1.5315070   -0.6879000  
H    -2.3945540    3.4446320   -2.7273640  
H     0.4103000    2.6732660   -1.9821770  
H    -2.8405190   -1.6437800    2.7885200  
C    -5.6717610   -0.2143060    2.5518540  
C    -4.9363290   -0.4873850    1.4378890  
C    -5.8355020   -1.0793770    0.4555770  
C    -7.1674160   -1.1213010    1.1053260  
N    -6.9930100   -0.5983630    2.3750830  
C    -8.2921020   -1.5963420    0.5140600  
C    -8.1923200   -2.1170840   -0.8479990  
O    -9.1491320   -2.5643720   -1.4602570  
C    -6.7822770   -2.1003010   -1.5463330  
O    -6.6773170   -2.5445290   -2.6775520  
C    -5.6427010   -1.5468840   -0.8040610  
H    -9.2621710   -1.6144930    1.0013230  
H    -4.6753080   -1.5265150   -1.2952110  
H    -5.3453880    0.2285820    3.4832340  
H    -7.7272120   -0.4813570    3.0555830  
C     3.8843710   -0.6936420    0.0886270  
C     3.7995830   -1.9885730    0.5214460  
C     5.0756530   -2.6080320    0.2801020  
C     5.9318430   -1.5646840   -0.3351110  
N     5.1708370   -0.3974600   -0.3757500  
C     7.2004720   -1.7641080   -0.7596030  
C     7.7924110   -3.0914380   -0.5735110  
O     8.9309490   -3.3586380   -0.9226030  
C     6.9201260   -4.2017770    0.1175100  
O     7.4083240   -5.3095770    0.2883910  
C     5.5564590   -3.8613480    0.5133930  
H     2.9500120   -2.4403680    1.0114430  
H     7.8099330   -0.9898090   -1.2156470  
H     4.9565400   -4.6411140    0.9724410  
H     5.3381570    0.3344680   -1.0526940  
