60


C    -2.5095310   -1.2655210    1.6399120  
C    -3.6569940   -0.6710360    1.1657330  
C    -3.2276190    0.5061430    0.4409380  
C    -1.8154940    0.5659840    0.5406030  
N    -1.4058820   -0.5078260    1.3087960  
C    -1.0435160    1.6103100   -0.0223190  
C    -1.7592990    2.5481430   -0.7831570  
O    -1.1019010    3.5212990   -1.4662540  
C    -3.1740850    2.4996610   -0.8793060  
O    -3.7085700    3.5269300   -1.6333000  
C    -3.9155850    1.5166650   -0.2576560  
H    -0.4738210   -0.8908300    1.1936700  
H    -1.7779330    4.0518550   -1.9250260  
H    -4.6419380    3.3456690   -1.8190250  
H    -5.0001280    1.5148920   -0.3273000  
H    -2.3970320   -2.1940900    2.1824930  
C     2.3188510   -1.2368780   -0.3616350  
C     3.4146630   -0.4302660   -0.2210010  
C     2.8497740    0.9039280    0.0448980  
C     1.3666070    0.6965250   -0.0037750  
N     1.0893340   -0.5679440   -0.2241720  
C     0.4147620    1.7752920    0.1726150  
C     0.9682880    2.9830750    0.5239480  
O     0.2490850    4.0621760    0.8410990  
C     2.4467470    3.2218040    0.5789530  
O     2.8398920    4.3463440    0.8854370  
C     3.3800170    2.1142480    0.2911980  
H     0.9030310    4.7747030    1.0191230  
H     4.4413700    2.3391590    0.3100170  
H     2.3154010   -2.3062560   -0.5368420  
C     4.8027700   -0.8071400   -0.3092600  
C     5.3843460   -1.8236950   -1.0250220  
C     6.7977940   -1.8106030   -0.7622760  
C     7.0277020   -0.6935580    0.1855820  
N     5.7947690   -0.0796430    0.3759480  
C     8.2292670   -0.3838780    0.7276670  
C     9.3941870   -1.1773870    0.3334780  
O    10.5149420   -0.9683640    0.7697710  
C     9.1827280   -2.3384750   -0.7055500  
O    10.1485070   -3.0021240   -1.0524730  
C     7.8301070   -2.5829660   -1.2042270  
H     4.8720620   -2.4765010   -1.7174010  
H     8.3789730    0.4318310    1.4286020  
H     7.6917510   -3.3992780   -1.9065980  
H     5.5878240    0.4458760    1.2138420  
C    -5.5588240   -1.5317450    2.5874480  
C    -5.0225500   -1.1416170    1.3952020  
C    -6.0736000   -1.3354140    0.3972690  
C    -7.2578320   -1.8615690    1.1233570  
N    -6.8709090   -1.9781730    2.4414230  
C    -8.4497260   -2.1538490    0.5414850  
C    -8.5881070   -1.9557880   -0.8970480  
O    -9.6213530   -2.1847200   -1.5079880  
C    -7.3384090   -1.4252060   -1.6917150  
O    -7.4331930   -1.2505020   -2.8967250  
C    -6.1048040   -1.1492950   -0.9484190  
H    -9.3042670   -2.5361050    1.0916000  
H    -5.2460990   -0.7937550   -1.5084220  
H    -5.0974010   -1.5221720    3.5661010  
H    -7.4780430   -2.2535290    3.1971640  
