60


C    -2.7802360   -1.2204290   -1.4137200  
C    -1.8878370   -1.9029040   -0.6338190  
C    -2.6496860   -2.9790120    0.0090550  
C    -4.0482750   -2.8415380   -0.4660230  
N    -4.0549380   -1.7559430   -1.3217690  
C    -5.0765830   -3.6465120   -0.0963580  
C    -4.8063840   -4.7225950    0.8509390  
O    -5.6652470   -5.4947070    1.2492070  
C    -3.3363630   -4.8759560    1.3861290  
O    -3.0924920   -5.7491350    2.2025870  
C    -2.3072330   -3.9515370    0.8901890  
H    -6.0908230   -3.5260920   -0.4646000  
H    -1.2921290   -4.0977510    1.2404440  
H    -2.5949440   -0.3826480   -2.0734750  
H    -4.8538730   -1.4440780   -1.8518200  
C     0.1206000    1.8776770    0.2415370  
C     1.4262420    1.4707360    0.1730630  
C     1.4265520    0.0630660   -0.1213320  
C     0.0088160   -0.3324520   -0.2403610  
N    -0.7453420    0.8262720   -0.0627050  
C    -0.4615350   -1.5907790   -0.4820510  
C     0.5661390   -2.6368670   -0.6634400  
O     0.2864260   -3.7976260   -0.9080870  
C     2.0831010   -2.2442910   -0.5493880  
O     2.9054680   -3.1428440   -0.5994370  
C     2.4473650   -0.8354600   -0.3140000  
H     2.2953910    2.1038060    0.2603440  
H    -1.6974810    0.7878170    0.2786320  
C     5.0881560    0.8990620    2.8413850  
C     4.0264920    0.4173150    2.1451410  
C     4.5005410    0.0635880    0.8212740  
C     5.9496390    0.3791530    0.8090300  
N     6.2351550    0.9073620    2.0546740  
C     6.7900840    0.1507110   -0.2331200  
C     6.2373870   -0.4406440   -1.4427970  
O     6.9096440   -0.7116710   -2.4259740  
C     4.6928270   -0.7262340   -1.4864810  
O     4.1966180   -1.0833730   -2.5390180  
C     3.8759560   -0.4870040   -0.2650230  
H     3.0179910    0.3042760    2.5124070  
H     7.8531200    0.3691410   -0.2032090  
H     5.1355860    1.2519370    3.8632430  
H     7.1627030    1.1270510    2.3823760  
C     0.2778240    4.0444910    1.3799490  
C    -0.4884050    5.1575030    1.5344970  
C    -1.7004690    4.9600280    0.7815280  
C    -1.6175640    3.6839740    0.1758860  
N    -0.3898900    3.1184610    0.5635290  
C    -2.6122670    3.2004880   -0.6823810  
C    -3.7272260    4.0010520   -0.8916370  
O    -4.7221950    3.5616590   -1.7123180  
C    -3.8373870    5.2698640   -0.2687840  
O    -5.0008220    5.9408730   -0.5740400  
C    -2.8358490    5.7568570    0.5531800  
H    -0.2307570    6.0234110    2.1287540  
H    -2.5385350    2.2581270   -1.2098670  
H    -5.3963000    4.2622820   -1.7545400  
H    -5.0000490    6.8134420   -0.1529730  
H    -2.9248060    6.7414070    1.0070480  
H     1.2342850    3.7812900    1.8053700  
