62


C    -0.7410570    1.5266270    0.4853380  
C    -1.0449030    2.7719660    0.9962810  
C    -2.4434110    2.9980890    0.7960580  
C    -2.9579670    1.8450130    0.1402790  
N    -1.9101350    0.9701800   -0.0287210  
C    -4.3183600    1.7330080   -0.2121940  
C    -5.1563270    2.8034730    0.1059790  
O    -6.4798830    2.7446980   -0.2207260  
C    -4.6438570    3.9555100    0.7513550  
O    -5.6033530    4.9207900    0.9830200  
C    -3.3111000    4.0647330    1.1003850  
H    -0.3500750    3.4257310    1.5046360  
H    -1.9465750    0.0913790   -0.5215040  
H    -6.8894540    3.5660360    0.1051900  
H    -5.2253100    5.6386400    1.5122420  
H    -2.9413430    4.9618430    1.5915800  
C     1.7475230    1.3307930    0.2224830  
C     0.5099360    0.7912800    0.4391690  
C     0.6945750   -0.6439780    0.5975620  
C     2.0711710   -0.9139620    0.4486910  
N     2.7213200    0.3286680    0.2212760  
C     2.5879000   -2.2078610    0.5648330  
C     1.6899980   -3.2342700    0.8332610  
O     2.1428300   -4.5122450    0.9444950  
C     0.3045170   -2.9792440    1.0092960  
O    -0.4350660   -4.0896030    1.2941770  
C    -0.1945210   -1.6884390    0.8999450  
H     3.6415000   -2.4156010    0.4486530  
H     1.3664600   -5.0687350    1.1374180  
H    -1.3909190   -3.8813450    1.3592410  
H    -1.2453660   -1.5049050    1.0895690  
H     2.0190600    2.3533120    0.0155530  
C     4.0531680    0.5803400    0.0207930  
C     4.6687390    1.8122310   -0.1251950  
C     6.0457460    1.5157830   -0.3174300  
C     6.1166900    0.0092840   -0.2606910  
N     4.9408520   -0.5217730   -0.0610740  
C     7.3537720   -0.6976320   -0.4150880  
C     8.4673680    0.0499800   -0.6121680  
O     9.6925410   -0.4491680   -0.7724200  
C     8.4344350    1.5753190   -0.6728670  
O     9.5281700    2.1228090   -0.8589720  
C     7.1739380    2.2616630   -0.5162190  
H     4.2222810    2.7941660   -0.0885990  
H     7.3789910   -1.7806420   -0.3719310  
H    10.2660170    0.3479210   -0.8913720  
H     7.1783410    3.3457240   -0.5647130  
C    -5.5756270    0.6754600   -2.1047020  
C    -5.8556880   -0.5564740   -2.5883000  
C    -5.2787360   -1.5190440   -1.6736350  
C    -4.6544970   -0.7242160   -0.5830390  
N    -4.8422050    0.6046010   -0.9023190  
C    -4.0263470   -1.2715890    0.4998800  
C    -3.8354600   -2.7027280    0.5244850  
O    -3.1326140   -3.2693850    1.3636320  
C    -4.5180730   -3.5707620   -0.5912700  
O    -4.4287960   -4.7855210   -0.5284120  
C    -5.2283970   -2.8755270   -1.6702770  
H    -6.4003110   -0.7823800   -3.4934510  
H    -3.6121020   -0.6758500    1.3044290  
H    -5.6904040   -3.4839990   -2.4415480  
H    -5.8311520    1.6490200   -2.4958740  
