64


C     2.5498070   -0.9174680   -1.5443500  
C     1.2494370   -0.5678470   -1.3000610  
C     1.2429500    0.1854470   -0.0789360  
C     2.5881120    0.2702810    0.3687490  
N     3.3775340   -0.4205820   -0.5430180  
C     2.9661220    0.9830660    1.5172930  
C     1.9568580    1.6041610    2.2409040  
O     2.2610900    2.3105850    3.3636680  
C     0.5988970    1.5074730    1.8401570  
O    -0.2919510    2.1117590    2.7014980  
C     0.2369400    0.8118490    0.6877170  
H     0.3974540   -0.8113980   -1.9184310  
H     4.0006460    1.1054230    1.8195770  
H     1.4249440    2.6912450    3.6888790  
H    -1.0744300    2.4258670    2.2126870  
H     2.9807140   -1.4964200   -2.3481260  
C     6.6823460    0.5612750   -3.3425540  
C     5.4494350    0.4536700   -2.7537210  
C     5.6419670   -0.2262880   -1.5039650  
C     7.0291050   -0.5063210   -1.3861970  
N     7.6360190   -0.0167370   -2.5245610  
C     7.5872500   -1.1435270   -0.2712960  
C     6.7243890   -1.5153700    0.7474210  
O     7.2094320   -2.1389780    1.8589390  
C     5.3285660   -1.2733600    0.6509020  
O     4.5979080   -1.7525980    1.7172000  
C     4.7829190   -0.6343610   -0.4591470  
H     4.5164540    0.8202410   -3.1569050  
H     8.6237670   -0.0589500   -2.7198750  
H     8.6494600   -1.3430910   -0.1753040  
H     6.4523140   -2.2842040    2.4536840  
H     3.7381200   -1.3009410    1.7623630  
H     6.9664520    1.0074580   -4.2850830  
C    -1.8410140   -0.4598890    0.1781140  
C    -3.1676430   -0.2041680   -0.1184970  
C    -3.2906190    1.2406070   -0.1744490  
C    -2.0093540    1.7789570    0.1000980  
N    -1.1313630    0.7201370    0.3101090  
C    -1.7504300    3.1595330    0.1300620  
C    -2.8198110    4.0129450   -0.1061120  
O    -2.6268590    5.3599580   -0.1061580  
C    -4.1132500    3.4901870   -0.3666300  
O    -5.0719610    4.4595690   -0.5840480  
C    -4.3560470    2.1305980   -0.4080050  
H    -0.7532580    3.5691140    0.2556320  
H    -3.4781940    5.7712370   -0.3382250  
H    -5.8770340    4.0452890   -0.9297640  
H    -5.3434090    1.7568930   -0.6560270  
H    -1.3198970   -1.4028800    0.2611950  
C    -3.8710110   -3.9205880    2.0873470  
C    -4.9249910   -4.4167680    1.3875870  
C    -5.2308540   -3.4687820    0.3383060  
C    -4.2506500   -2.3690680    0.4792510  
N    -3.4283500   -2.7247570    1.5369240  
C    -4.1984470   -1.2335600   -0.2880920  
C    -5.2373100   -1.1301330   -1.3352190  
O    -5.3350970   -0.1718720   -2.0858640  
C    -6.2779090   -2.3042180   -1.5151230  
O    -7.1262390   -2.1865070   -2.3874550  
C    -6.1915710   -3.4531890   -0.6278850  
H    -5.4416150   -5.3466010    1.5761780  
H    -6.9139270   -4.2534670   -0.7539410  
H    -3.3648850   -4.3333390    2.9503020  
H    -2.7962800   -2.0740970    1.9807330  
