58


C    -1.7484470   -0.3652140   -0.1169990  
C    -3.0616180   -0.0837830   -0.3344830  
C    -3.1971690    1.3790300   -0.2435840  
C    -1.8526280    1.9169860    0.0581420  
N    -1.0130420    0.8051360    0.1226900  
C    -1.5439890    3.2241190    0.2242410  
C    -2.6269440    4.2011450    0.1144730  
O    -2.4557170    5.4020660    0.2433940  
C    -4.0727460    3.6605850   -0.1751530  
O    -4.9986210    4.4503680   -0.2424950  
C    -4.2609530    2.2113180   -0.3521610  
H    -0.5419620    3.5776550    0.4424750  
H    -5.2596360    1.8636900   -0.5880830  
H    -1.2351930   -1.3170890   -0.1226800  
C     1.2847090    0.9489230   -0.7220130  
C     2.5484410    0.7730110   -0.2468990  
C     2.4223400    0.5128320    1.1921160  
C     0.9778330    0.5490840    1.5108820  
N     0.3375090    0.8559770    0.3113270  
C     0.4394270    0.3190370    2.7311260  
C     1.3495490    0.0261940    3.8391520  
O     0.9629360   -0.2224920    4.9689450  
C     2.8929050    0.0398820    3.5451740  
O     3.6736650   -0.1718740    4.4569890  
C     3.3403060    0.2985290    2.1680610  
H    -0.6265830    0.3564920    2.9289570  
H     4.4093860    0.3044360    1.9831940  
H     0.9458970    1.1421620   -1.7308580  
C    -4.1199860   -3.8828760    1.7077190  
C    -3.5630310   -2.6911620    1.3628270  
C    -4.2496510   -2.2163110    0.1812940  
C    -5.2714450   -3.2455840   -0.1351400  
N    -5.1236450   -4.2361090    0.8174160  
C    -6.1584430   -3.1755510   -1.1602120  
C    -6.1166380   -2.0022860   -2.0201500  
O    -6.8821790   -1.8245170   -2.9539780  
C    -5.0270640   -0.9047140   -1.7304080  
O    -4.9610660    0.0544190   -2.4810500  
C    -4.1114520   -1.0797820   -0.5783630  
H    -2.7712640   -2.1856630    1.8940340  
H    -6.9002250   -3.9411200   -1.3647680  
H    -3.8831970   -4.5331280    2.5394650  
H    -5.7139510   -5.0495290    0.8959820  
C     4.0922510    1.8287580   -1.9544650  
C     3.7737490    0.8804120   -1.0288470  
C     4.9186260   -0.0508380   -1.0597670  
C     5.8362030    0.5366120   -2.0846970  
N     5.3413760    1.6273640   -2.6005270  
C     7.0897890   -0.0843050   -2.4206660  
C     7.4113150   -1.2433690   -1.7970980  
O     8.5419970   -1.9294320   -2.0179840  
C     6.4943950   -1.8755670   -0.7845050  
O     6.8470310   -2.9335260   -0.2703670  
C     5.2154170   -1.2115290   -0.4459980  
H     7.7382350    0.3726050   -3.1598290  
H     8.4950790   -2.7175060   -1.4336520  
H     4.5867300   -1.7028650    0.2898990  
H     3.5066160    2.7016800   -2.2197160  
