60


C    -3.4885670    1.8479630   -0.4739440  
C    -3.9790700    0.6330940   -0.0293850  
C    -2.8416680   -0.0998070    0.4842150  
C    -1.7099600    0.7354790    0.3441930  
N    -2.1403750    1.9141780   -0.2334460  
C    -0.3987580    0.3401740    0.7097030  
C    -0.2752100   -0.9777740    1.1741480  
O     0.9477880   -1.4745870    1.5222540  
C    -1.4020390   -1.8268140    1.3068720  
O    -1.0835740   -3.0777750    1.7851480  
C    -2.6761570   -1.4065360    0.9783390  
H    -1.5257970    2.6479230   -0.5535390  
H     0.8131400   -2.3923100    1.8224920  
H    -1.8798580   -3.6251830    1.8566570  
H    -3.5212770   -2.0827370    1.0682220  
H    -4.0137830    2.6922210   -0.8974570  
C     0.7353730    1.2500330    0.6015280  
C     0.7641760    2.6259940    0.6115440  
C     2.1312050    3.0444820    0.4414940  
C     2.9306100    1.8049510    0.3426490  
N     2.0381140    0.7711510    0.4469550  
C     4.2931560    1.7500410    0.1489500  
C     5.0002380    3.0547670    0.0950960  
O     6.2115030    3.1577730    0.0921780  
C     4.1486770    4.3755280    0.1213850  
O     4.7187050    5.4435900   -0.0382870  
C     2.7094440    4.2748840    0.3479560  
H    -0.0660460    3.2860880    0.8154300  
H     2.1400380    5.1978380    0.4038730  
H     2.2769770   -0.2093210    0.4137940  
C     5.0185420    0.5008050    0.0325660  
C     4.7640670   -0.6979020    0.6574260  
C     5.7611710   -1.6176600    0.1645850  
C     6.5593770   -0.8012850   -0.8080240  
N     6.1327660    0.4239310   -0.8787800  
C     7.6560570   -1.3732680   -1.5477050  
C     7.9607490   -2.6713570   -1.3157020  
O     8.9567740   -3.3341340   -1.9206520  
C     7.1849870   -3.5138280   -0.3281060  
O     7.5378530   -4.6863510   -0.1918900  
C     6.0630140   -2.9164890    0.4017360  
H     4.0483040   -0.8979510    1.4437820  
H     8.2130480   -0.7634710   -2.2500920  
H     8.9257270   -4.2429240   -1.5450650  
H     5.5246860   -3.5556930    1.0949330  
C    -5.3587860    0.2092440   -0.0741250  
C    -6.0386130   -0.6872120    0.7098550  
C    -7.4013240   -0.7500910    0.2492150  
C    -7.4872390    0.1863110   -0.8983290  
N    -6.2386660    0.7812340   -1.0096350  
C    -8.5977930    0.3757260   -1.6507220  
C    -9.8099890   -0.3630890   -1.2979220  
O   -10.8560680   -0.2537140   -1.9181770  
C    -9.7551800   -1.3276260   -0.0569270  
O   -10.7638770   -1.9428840    0.2560090  
C    -8.4898790   -1.4560360    0.6636430  
H    -5.6425880   -1.1943830    1.5774280  
H    -8.6416110    1.0592450   -2.4933420  
H    -8.4598960   -2.1358990    1.5098200  
H    -5.9104320    1.1915170   -1.8724760  
