60


C     2.7922310   -1.8750430   -0.3488650  
C     1.5020850   -1.5071710   -0.1214310  
C     1.5196530   -0.1844640    0.4467360  
C     2.8747010    0.2164550    0.5356710  
N     3.6545430   -0.8386020    0.0328950  
C     3.2637620    1.4446760    1.0790810  
C     2.2538350    2.2992520    1.5037910  
O     2.5826470    3.4995500    2.0514830  
C     0.8928950    1.9289660    1.3956030  
O     0.0166400    2.8846010    1.8732200  
C     0.4941750    0.6958390    0.8754230  
H     0.6288600   -2.0989800   -0.3550810  
H     4.2968660    1.7382110    1.2174090  
H     1.7554470    3.9239900    2.3403790  
H    -0.8291920    2.4645450    2.0960680  
H     3.2020290   -2.7681440   -0.7957220  
C    -1.5186430   -0.8332870    1.2150290  
C    -0.9260040    0.3172200    0.7934580  
C    -2.0245930    1.0714360    0.1582530  
C    -3.2224580    0.1775350    0.2762160  
N    -2.9042930   -0.9161490    0.9209940  
C    -4.5255890    0.5347200   -0.2593900  
C    -4.6146360    1.8149110   -0.7533430  
O    -5.7593880    2.3674600   -1.1574240  
C    -3.4346940    2.7314060   -0.8808640  
O    -3.6215420    3.8473650   -1.3609530  
C    -2.1069130    2.2869300   -0.4110020  
H    -5.5248520    3.2550140   -1.5089020  
H    -1.2780830    2.9794400   -0.5131500  
H    -1.0498000   -1.6564310    1.7407650  
C    -6.2489490   -2.5483080    2.4814500  
C    -7.3635300   -2.8647620    1.7741830  
C    -7.3232190   -2.0961570    0.5497270  
C    -6.0856760   -1.2738160    0.6250880  
N    -5.4992150   -1.5662370    1.8392180  
C    -5.6767380   -0.3833950   -0.3372240  
C    -6.4466250   -0.4294210   -1.6086120  
O    -6.0392350    0.0626100   -2.6457020  
C    -7.8197760   -1.1884610   -1.6463590  
O    -8.5326720   -1.0516960   -2.6282380  
C    -8.1695510   -2.0355140   -0.5128710  
H    -8.1362350   -3.5630060    2.0613410  
H    -9.0997110   -2.5936050   -0.5584430  
H    -5.9115870   -2.9358340    3.4341640  
H    -4.4874980   -1.4548160    1.9308420  
C     5.0305170   -0.9080190   -0.0802750  
C     5.8427660   -2.0064420   -0.0233870  
C     7.1879330   -1.5611960   -0.2772110  
C     7.1048280   -0.0952640   -0.4884210  
N     5.7699310    0.2597100   -0.2992800  
C     8.1551320    0.6957160   -0.8053260  
C     9.4787230    0.0771570   -0.9177630  
O    10.4814910    0.7148680   -1.1952470  
C     9.5996790   -1.4679590   -0.6541220  
O    10.7007350   -1.9927100   -0.7349650  
C     8.3832440   -2.2115990   -0.3367450  
H     5.5366410   -3.0103140    0.2308400  
H     8.0739750    1.7666460   -0.9648270  
H     8.4754250   -3.2811530   -0.1747680  
H     5.3601440    1.0753670   -0.7340790  
