58


C     3.7481980   -1.0555640   -2.0047970  
C     5.0165500   -1.5148280   -2.1333570  
C     5.7413240   -1.1244830   -0.9434380  
C     4.7769130   -0.3812540   -0.0973030  
N     3.5640090   -0.3671800   -0.7969600  
C     5.0677430    0.1106430    1.1306190  
C     6.4229610   -0.0755290    1.6521590  
O     6.7660110    0.3226380    2.7538510  
C     7.4684500   -0.8322630    0.7568090  
O     8.6050020   -0.9890450    1.1735650  
C     7.0226940   -1.3362540   -0.5447100  
H     5.4184750   -2.0562800   -2.9777110  
H     4.3575490    0.6508540    1.7451610  
H     7.7417420   -1.8813830   -1.1486370  
H     2.9169750   -1.1280070   -2.6930070  
C    -0.5241400   -1.9682900   -0.5320190  
C     0.8390340   -1.8086340   -0.6804710  
C     1.1664990   -0.4474700   -0.3921640  
C    -0.1013730    0.2217490   -0.0491630  
N    -1.0839780   -0.7603550   -0.0942900  
C    -0.2593270    1.5445340    0.2545970  
C     0.9718250    2.3581790    0.2586780  
O     0.9863170    3.5362320    0.5686870  
C     2.3410450    1.6866800   -0.1275030  
O     3.3260230    2.3980630   -0.2232700  
C     2.3602620    0.2405940   -0.3942470  
H     1.5396710   -2.6002840   -0.9017900  
H    -2.0528760   -0.5145120   -0.2494960  
C    -2.4156350    1.6553130    1.5683010  
C    -1.5472350    2.1400560    0.6292830  
C    -2.1663570    3.3556620    0.0904120  
C    -3.4596890    3.5133230    0.7979840  
N    -3.5512670    2.4419030    1.6700040  
C    -4.3409670    4.5227880    0.5875660  
C    -4.0138440    5.5274830   -0.4205700  
O    -4.7441520    6.4692970   -0.6855760  
C    -2.6601070    5.3681130   -1.2027980  
O    -2.3787310    6.1770010   -2.0709860  
C    -1.7820630    4.2386150   -0.8643430  
H    -5.2798630    4.6182160    1.1242870  
H    -0.8363300    4.1665380   -1.3891790  
H    -2.2952090    0.7959830    2.2156550  
H    -4.2738450    2.3278220    2.3641510  
C    -1.0349940   -4.2471710   -1.4846280  
C    -1.3322670   -3.1360430   -0.7314030  
C    -2.6704400   -3.4265120   -0.1805370  
C    -3.0036990   -4.7716930   -0.7361330  
N    -2.0325450   -5.2318220   -1.4890110  
C    -4.2375040   -5.4330480   -0.4321250  
C    -5.1070670   -4.8047110    0.4004460  
O    -6.2916510   -5.3087220    0.7642310  
C    -4.7926040   -3.4613580    0.9989720  
O    -5.6214690   -2.9520460    1.7487780  
C    -3.5091400   -2.8029740    0.6687130  
H    -4.4490870   -6.4076100   -0.8573950  
H    -6.6958630   -4.6488090    1.3689940  
H    -3.3151870   -1.8506760    1.1512490  
H    -0.1387430   -4.4109250   -2.0717230  
