62


C     0.0550580    0.4542110   -1.3008170  
C    -0.3074030    1.5927310   -0.6147840  
C     0.8632660    1.9926950    0.1348500  
C     1.8837740    1.0476420   -0.1318020  
N     1.3589350    0.1152010   -0.9992530  
C     3.1867130    1.1290800    0.4240340  
C     3.4240270    2.2478050    1.2380900  
O     4.6561520    2.4476420    1.8009680  
C     2.4053490    3.1868630    1.5228570  
O     2.8180870    4.2030690    2.3635060  
C     1.1338180    3.0689680    0.9982470  
H     1.9101520   -0.5664720   -1.4984330  
H     4.5997250    3.2634130    2.3310360  
H     2.0913000    4.8280600    2.5022900  
H     0.3723280    3.8116520    1.2141360  
H    -0.5159120   -0.1370750   -2.0028310  
C    -4.2936600   -0.2301480   -0.1334800  
C    -5.0425700    0.9323520   -0.3101970  
C    -4.1329240    1.9991820   -0.5246780  
C    -2.8190290    1.4492820   -0.4771450  
N    -2.9461490    0.1054700   -0.2458150  
C    -1.6431260    2.2161910   -0.6393430  
C    -1.8452410    3.5817380   -0.8470570  
O    -0.7768410    4.4123930   -1.0304520  
C    -3.1519000    4.1494090   -0.8892990  
O    -3.1444690    5.5164630   -1.1026400  
C    -4.2882720    3.3871430   -0.7393350  
H    -6.1195480    0.9741490   -0.2811660  
H    -2.1902820   -0.5485870   -0.1015690  
H    -1.1378160    5.2949240   -1.2292150  
H    -4.0499110    5.8243370   -1.2564700  
H    -5.2753000    3.8426020   -0.7760170  
C    -8.3327770   -1.9247670    0.3343380  
C    -8.0593530   -3.2288050    0.5566630  
C    -6.6039270   -3.3257840    0.5125370  
C    -6.1471790   -1.9269920    0.2427160  
N    -7.1622190   -1.1214900    0.1412550  
C    -4.7210930   -1.5865810    0.1218500  
C    -3.8579920   -2.6461560    0.2721250  
O    -2.5045270   -2.5238740    0.1893810  
C    -4.2885530   -4.0304730    0.5403200  
O    -3.4153700   -4.9004630    0.6605280  
C    -5.7282530   -4.3360260    0.6566260  
H    -8.7516130   -4.0406950    0.7312520  
H    -2.1694720   -3.4361980    0.3504600  
H    -6.0034920   -5.3678720    0.8538620  
H    -9.2996610   -1.4388680    0.2877980  
C     4.1990790    0.1136810    0.1643510  
C     4.0436150   -1.2060040   -0.2030900  
C     5.3494120   -1.7926390   -0.3371580  
C     6.3158960   -0.7112470   -0.0198150  
N     5.5621990    0.4091590    0.2509100  
C     7.6647070   -0.8661160   -0.0175210  
C     8.2140140   -2.1765380   -0.3507640  
O     9.4138380   -2.4096420   -0.3731540  
C     7.2082710   -3.3365230   -0.6970040  
O     7.6555730   -4.4384970   -0.9826430  
C     5.7773220   -3.0450800   -0.6628980  
H     3.1098700   -1.7434570   -0.2736280  
H     8.3566080   -0.0635180    0.2188730  
H     5.0934740   -3.8547950   -0.8998660  
H     5.9042480    1.2687310    0.6553410  
