60


C    -0.6452310   -2.4997520    0.2178760  
C    -0.2130490   -3.0771530    1.3990540  
C     1.0668030   -2.5270720    1.7076580  
C     1.3985150   -1.6200220    0.6666050  
N     0.3359190   -1.5923800   -0.2085770  
C     2.6156710   -0.9154190    0.6090790  
C     3.4965330   -1.1314420    1.6732720  
O     4.6817110   -0.4661220    1.7194710  
C     3.1705000   -2.0209020    2.7337610  
O     4.1546730   -2.1015870    3.6998410  
C     1.9804730   -2.7169650    2.7648670  
H    -0.7769060   -3.7912230    1.9783090  
H     0.4106200   -1.2679350   -1.1612990  
H     5.1390390   -0.7531760    2.5297120  
H     3.8667560   -2.6955270    4.4087900  
H     1.7554910   -3.3971200    3.5832310  
C     0.6944660    2.7247770   -0.9463330  
C     1.5689880    3.1200860   -1.9343310  
C     2.5944310    2.1259660   -1.9321600  
C     2.1847490    1.1540830   -0.8504380  
N     1.0538820    1.5209040   -0.2969650  
C     2.9735240   -0.0051760   -0.5051830  
C     4.1081850   -0.1747240   -1.2526340  
O     4.9427430   -1.1945210   -1.0996630  
C     4.5464950    0.7837930   -2.3530130  
O     5.5919530    0.4900470   -2.9377930  
C     3.7344840    1.9461340   -2.6515130  
H     1.5391030    4.0040110   -2.5533460  
H     5.6567620   -1.0415380   -1.7654330  
H     4.0702320    2.6151020   -3.4367950  
C    -1.0278600    4.4376120   -1.2524530  
C    -2.1461110    4.8971280   -0.6510450  
C    -2.3710360    4.0991430    0.5360100  
C    -1.2734450    3.1036880    0.5880200  
N    -0.4689120    3.3498610   -0.5534730  
C    -1.1333150    2.1953840    1.5824430  
C    -2.1315060    2.1886820    2.6641960  
O    -2.0667280    1.4113720    3.6006710  
C    -3.3097710    3.2193690    2.6094090  
O    -4.1510310    3.2168750    3.4923050  
C    -3.3396020    4.1585070    1.4837920  
H    -2.7646150    5.7138820   -0.9954050  
H    -0.3210660    1.4822620    1.6217890  
H    -4.1443120    4.8866900    1.4522150  
H    -0.5529520    4.7759840   -2.1613550  
C    -2.7849180    0.3200000   -2.3767780  
C    -3.8111000   -0.4789920   -2.7692410  
C    -3.6371000   -1.7594870   -2.1178520  
C    -2.4036700   -1.6461350   -1.3205050  
N    -1.8994830   -0.3668710   -1.5527020  
C    -1.8882940   -2.6296570   -0.5107720  
C    -2.7041010   -3.8664510   -0.3985340  
O    -2.4264210   -4.7765790    0.3620230  
C    -3.9862840   -4.0225550   -1.3037270  
O    -4.5943430   -5.0824310   -1.2537130  
C    -4.3857370   -2.9012210   -2.1361990  
H    -4.6145980   -0.2115050   -3.4402890  
H    -5.2857360   -3.0035340   -2.7341320  
H    -2.5837940    1.3521370   -2.6329820  
H    -1.2544450    0.0871170   -0.9161160  
