60


C    -0.6426600    1.1671660    0.1369410  
C    -1.7540860    0.3200130    0.0327650  
C    -2.9197440    1.1234770   -0.0299330  
C    -2.4759850    2.4822430    0.0168040  
N    -1.1141830    2.4731930    0.1317310  
C    -3.3480960    3.5704320   -0.0875990  
C    -4.6863610    3.2733780   -0.2742050  
O    -5.5928920    4.2654980   -0.4146900  
C    -5.1659690    1.9222690   -0.3233340  
O    -6.5198160    1.8449330   -0.4911900  
C    -4.3187450    0.8289820   -0.1621930  
H    -1.7058290   -0.7518060   -0.0738770  
H    -0.4863200    3.2659660    0.0990950  
H    -3.0140880    4.6018360   -0.0623510  
H    -6.4508670    3.8237470   -0.5748100  
H    -6.6973580    1.0786490   -1.0945160  
C     1.7656040   -2.5330190    0.9852060  
C     0.7070900   -1.6897860    0.8591050  
C     1.2770160   -0.4087360    0.4666410  
C     2.7273020   -0.6792150    0.4006580  
N     3.0121750   -1.9185790    0.7054010  
C     3.7044550    0.3474230    0.0764530  
C     3.2277790    1.6085530   -0.0893050  
O     4.0125600    2.6709340   -0.3560640  
C     1.7747510    1.9265580   -0.0079750  
O     1.4682040    3.1188010   -0.1408510  
C     0.7584760    0.8400930    0.2114730  
H    -0.3299210   -1.9120730    1.0605510  
H     3.4044060    3.4375270   -0.4158520  
H     1.7532880   -3.5767470    1.2762720  
C     5.8468830   -2.2447400   -2.7412610  
C     7.1189180   -2.1861140   -2.2862740  
C     7.0694940   -1.2798840   -1.1426800  
C     5.6233710   -0.8957230   -1.0457460  
N     4.9212820   -1.4470210   -1.9890410  
C     5.1404310    0.0186960   -0.0236000  
C     6.0758680    0.5472740    0.8107610  
O     5.7940310    1.4037370    1.8033830  
C     7.5344560    0.1847300    0.7239180  
O     8.2962490    0.7066190    1.5368280  
C     7.9901580   -0.7658460   -0.3053300  
H     7.9964620   -2.6820390   -2.6770610  
H     6.6590950    1.5962070    2.2294410  
H     9.0516110   -0.9921690   -0.3379710  
H     5.4660860   -2.8075340   -3.5852680  
C    -3.4148280   -2.3836350    2.6992590  
C    -4.1115770   -3.4084900    2.1482870  
C    -4.7801700   -2.8880220    0.9736470  
C    -4.3990210   -1.4544170    0.8784410  
N    -3.5864700   -1.2148500    1.9592380  
C    -4.8074010   -0.5702100   -0.0986410  
C    -5.7929790   -1.1091570   -1.0334330  
O    -6.4253340   -0.4195640   -1.8372280  
C    -6.1246540   -2.6474270   -1.0282910  
O    -6.8283430   -3.0870940   -1.9218160  
C    -5.5973250   -3.4680820    0.0566600  
H    -4.1734410   -4.4207200    2.5197850  
H    -5.8636130   -4.5198450    0.0782410  
H    -2.7963800   -2.3677300    3.5868170  
H    -3.0947380   -0.3460800    2.1099040  
