60


C    -1.4785120    0.5477670    0.6223110  
C    -2.7353450    0.4624500    0.0557440  
C    -2.9900410    1.7439290   -0.5722830  
C    -1.8529170    2.5517900   -0.3466570  
N    -0.9316780    1.7943660    0.3939200  
C    -1.7412760    3.8510850   -0.8495940  
C    -2.8152440    4.3543010   -1.5674570  
O    -2.7565260    5.6162910   -2.0730440  
C    -3.9794950    3.5684940   -1.7740240  
O    -4.9648550    4.2112380   -2.4896250  
C    -4.0774620    2.2773560   -1.2869220  
H    -0.8742740    4.4773080   -0.6835780  
H    -3.6022540    5.7932610   -2.5202480  
H    -5.7463530    3.6429140   -2.5602990  
H    -4.9825170    1.6981060   -1.4462860  
H    -0.9085500   -0.1946090    1.1613360  
C     3.0460440   -0.1023050   -0.0771300  
C     1.6919100    0.1535720   -0.1849170  
C     1.4701450    1.3717610    0.5233280  
C     2.8256730    1.7591490    1.0387340  
N     3.7349930    0.8974600    0.6833170  
C     3.0406590    2.9544180    1.8077110  
C     1.9634350    3.7321680    2.0609060  
O     2.0063180    4.8759480    2.7502660  
C     0.5676420    3.3707650    1.5858060  
O    -0.3424200    4.1247550    1.9284310  
C     0.3768060    2.1580940    0.7771180  
H     0.9493870   -0.4235320   -0.7170280  
H     4.0348960    3.2091340    2.1563120  
H     1.0748030    5.1913880    2.7955660  
C     3.2998290   -2.2351300   -1.3641400  
C     3.8064010   -1.1921070   -0.6164490  
C     5.2505400   -1.4392140   -0.5014360  
C     5.5138580   -2.6960610   -1.2392320  
N     4.2831100   -3.1143170   -1.7311540  
C     6.7254770   -3.2842650   -1.3809780  
C     7.8801340   -2.6349220   -0.7590680  
O     9.0119250   -3.0845960   -0.8297360  
C     7.6306410   -1.2998890    0.0301670  
O     8.5775530   -0.7409570    0.5568990  
C     6.2603060   -0.7684840    0.1068470  
H     6.8848510   -4.2076460   -1.9292580  
H     6.0879850    0.1520340    0.6507710  
H     2.2762950   -2.4134060   -1.6665360  
H     4.1377220   -3.9496870   -2.2789820  
C    -3.5842250   -0.7003210    0.0947630  
C    -4.6007970   -1.0938600   -0.7403500  
C    -5.1167460   -2.3500880   -0.2688490  
C    -4.3306960   -2.6843680    0.9444060  
N    -3.3789600   -1.6847860    1.0807200  
C    -4.5497070   -3.7720190    1.7223270  
C    -5.6041210   -4.7062220    1.3304030  
O    -5.8647540   -5.7155100    1.9672960  
C    -6.4193110   -4.3970550    0.0215340  
O    -7.2940160   -5.1786190   -0.3249620  
C    -6.0996370   -3.1803690   -0.7196170  
H    -4.9058170   -0.5869220   -1.6436880  
H    -3.9710470   -3.9973030    2.6132480  
H    -6.6798210   -2.9685530   -1.6127780  
H    -2.9571500   -1.4624560    1.9716340  
