58


C     4.0751990    0.9496150   -0.2781990  
C     4.5251460    2.2193340   -0.0371130  
C     3.3696570    3.0330330    0.2277490  
C     2.1945890    2.1347880    0.0928930  
N     2.6858840    0.8905470   -0.2614020  
C     0.8887000    2.5188340    0.2515820  
C     0.7079860    3.8875290    0.8171420  
O    -0.3342830    4.2537080    1.3277090  
C     1.9187950    4.8844120    0.8204420  
O     1.7000940    6.0611710    1.0697830  
C     3.2423570    4.3527060    0.5426850  
H     5.5554880    2.5406450    0.0020810  
H     4.0892900    5.0300040    0.5915780  
H     2.1042840    0.0670410   -0.0656350  
C    -0.1043290   -1.7993480    0.9676570  
C    -1.4351410   -1.7942900    0.7428840  
C    -1.7576060   -0.4438180    0.3060440  
C    -0.4500550    0.2911810    0.3642310  
N     0.5040010   -0.5235250    0.7282040  
C    -0.3151360    1.6987010    0.0170340  
C    -1.4364020    2.2500390   -0.5475060  
O    -1.4716100    3.4790430   -1.0637410  
C    -2.7616200    1.5408850   -0.6310050  
O    -3.7117520    2.1923660   -1.0534170  
C    -2.8828890    0.1221150   -0.1937090  
H    -2.1315290   -2.6109360    0.8546510  
H    -2.4106280    3.6394520   -1.3093470  
H     0.5296950   -2.6203460    1.2829510  
C    -5.4262230   -1.8480880    2.8125270  
C    -6.5101000   -2.2011890    2.0858730  
C    -6.2178030   -1.7590130    0.7258950  
C    -4.8583290   -1.1337700    0.8317200  
N    -4.4052010   -1.1895940    2.0473140  
C    -4.1929130   -0.5421980   -0.3203750  
C    -4.8609160   -0.6155210   -1.5067820  
O    -4.3644990   -0.1767160   -2.6674000  
C    -6.2264160   -1.2452460   -1.6349590  
O    -6.7353120   -1.2552710   -2.7532060  
C    -6.8809050   -1.8129870   -0.4451750  
H    -7.4086740   -2.7009630    2.4195490  
H    -5.0669660   -0.3458310   -3.3355700  
H    -7.8658090   -2.2498440   -0.5785760  
H    -5.2510330   -2.0004330    3.8705320  
C     6.0318260   -0.1238620   -1.3235330  
C     6.5561160   -1.3569070   -1.5019000  
C     5.6796230   -2.3058450   -0.8465440  
C     4.5821450   -1.5094020   -0.2453440  
N     4.8317130   -0.1747680   -0.5883260  
C     3.5967770   -2.0358580    0.5227160  
C     3.5465990   -3.4877030    0.6868430  
O     2.6461810   -4.0499320    1.2939800  
C     4.6876920   -4.3523150    0.0450930  
O     4.6736090   -5.5625610    0.1966990  
C     5.7337250   -3.6554400   -0.7104940  
H     7.4570270   -1.5937330   -2.0492600  
H     2.8304440   -1.4508920    1.0160600  
H     6.5357150   -4.2546740   -1.1304290  
H     6.3776090    0.8351940   -1.6825860  
