64


C    -0.7872680    1.2734880   -0.0423770  
C    -1.9143980    0.5510890   -0.3802060  
C    -3.0428800    1.2167250    0.1947970  
C    -2.5534540    2.3629850    0.8795910  
N    -1.1848780    2.3882450    0.6929550  
C    -3.3819890    3.2570720    1.5628970  
C    -4.7460910    2.9965720    1.5711890  
O    -5.5955520    3.8296920    2.2405030  
C    -5.2660590    1.8681140    0.8947760  
O    -6.6355920    1.7240180    0.9632810  
C    -4.4358160    0.9887840    0.2027070  
H    -1.9261190   -0.3327970   -1.0011580  
H    -0.5424540    2.9573010    1.2234740  
H    -3.0017040    4.1285250    2.0860190  
H    -6.4882410    3.4498070    2.1680920  
H    -6.8633220    0.8088020    0.7310310  
C     1.2148850   -0.2114050   -0.4015490  
C     0.6150460    1.0274070   -0.3249990  
C     1.6595370    1.9999080   -0.5641630  
C     2.8587750    1.2764180   -0.7791960  
N     2.5633920   -0.0801010   -0.6758880  
C     4.0760730    1.9008410   -1.0787190  
C     4.0848750    3.2852070   -1.1514700  
O     5.2464040    3.9448560   -1.4338710  
C     2.8922920    4.0272950   -0.9455940  
O     3.0568660    5.3950870   -1.0624230  
C     1.6897780    3.4058970   -0.6600450  
H     4.9874400    1.3429030   -1.2605620  
H     5.0338640    4.8927960   -1.4827450  
H     2.1912670    5.8288280   -1.0352190  
H     0.7838010    3.9966770   -0.5417990  
H     0.7938960   -1.1924020   -0.2353000  
C     3.3533360   -2.1761940   -1.7339050  
C     3.4716620   -1.1518370   -0.8240210  
C     4.6477070   -1.4039580   -0.0323190  
C     5.2055960   -2.6118550   -0.5210900  
N     4.3944390   -3.0596430   -1.5465490  
C     6.3695180   -3.1750280    0.0182300  
C     6.9758990   -2.5056290    1.0687230  
O     8.1136850   -3.0072940    1.6282540  
C     6.4242480   -1.2957110    1.5732200  
O     7.1407600   -0.7549950    2.6225400  
C     5.2760000   -0.7417620    1.0413330  
H     4.5383300   -3.9053130   -2.0756020  
H     6.8031120   -4.0983960   -0.3518470  
H     8.3797540   -2.3967330    2.3373850  
H     6.7382950    0.0840040    2.8917470  
H     4.8695380    0.1843280    1.4401060  
H     2.6081280   -2.3347010   -2.4996420  
C    -5.7650250   -0.0073350   -1.6774340  
C    -6.0827790   -1.2256380   -2.1815610  
C    -5.5103070   -2.2199900   -1.2988880  
C    -4.8228240   -1.4660170   -0.2206190  
N    -5.0303830   -0.1123820   -0.4863030  
C    -4.1447950   -2.0409700    0.8044080  
C    -4.0838130   -3.5000770    0.8611780  
O    -3.4945320   -4.1075280    1.7422930  
C    -4.8131920   -4.3200850   -0.2664580  
O    -4.7717040   -5.5404210   -0.2316810  
C    -5.5124560   -3.5794850   -1.3186280  
H    -6.6531900   -1.4197040   -3.0785080  
H    -3.6400750   -1.4690340    1.5751660  
H    -6.0117270   -4.1539260   -2.0932060  
H    -5.9937410    0.9799460   -2.0569510  
