60


C    -3.7940160   -0.0547750   -1.6843410  
C    -5.1462420   -0.0753960   -1.7576450  
C    -5.6220260   -0.9955260   -0.7470760  
C    -4.4148670   -1.5269080   -0.0699250  
N    -3.3135590   -0.9147970   -0.6850990  
C    -4.4497410   -2.3889750    0.9734360  
C    -5.7548290   -2.8513120    1.4510450  
O    -5.8781900   -3.6172110    2.3932450  
C    -7.0441730   -2.3248190    0.7248870  
O    -8.1392350   -2.7071470    1.1055990  
C    -6.8726490   -1.3754980   -0.3773720  
H    -5.7575410    0.4780510   -2.4560050  
H    -3.5650890   -2.7724460    1.4674260  
H    -7.7674070   -0.9934820   -0.8594600  
H    -3.0798890    0.4875220   -2.2888170  
C    -0.0716140    1.9581820    0.0371020  
C    -1.2874790    1.3520010   -0.1617540  
C    -1.0863730   -0.0694150   -0.2025600  
C     0.3537220   -0.2906290   -0.0190990  
N     0.9171850    0.9577340    0.1840560  
C     1.0049820   -1.5016770   -0.0671730  
C     0.1265160   -2.6921190   -0.1733530  
O     0.5025880   -3.8289510    0.0274140  
C    -1.4003660   -2.4850780   -0.4778390  
O    -2.0676210   -3.4551060   -0.7893360  
C    -1.9552140   -1.1209250   -0.3925280  
H    -2.2391180    1.8599720   -0.1912210  
H     1.8902400    1.1215480   -0.0562220  
C     2.4446270   -1.6353970    0.0141680  
C     3.3608320   -0.8196600    0.6407470  
C     4.6544940   -1.3987180    0.3664740  
C     4.3467840   -2.5874880   -0.4917870  
N     3.0696320   -2.7242560   -0.6907840  
C     5.3918350   -3.4345440   -1.0072310  
C     6.6675890   -3.1329460   -0.6696130  
O     7.7391840   -3.8327930   -1.0660040  
C     7.0071550   -1.9488070    0.2078340  
O     8.1978760   -1.7564600    0.4557930  
C     5.9279000   -1.0910630    0.7089320  
H     3.1767000    0.0199170    1.2963840  
H     5.1426890   -4.2856170   -1.6308860  
H     8.5108470   -3.3750160   -0.6624950  
H     6.2111870   -0.2446280    1.3270650  
C    -1.7553970    5.6852800   -1.8103900  
C    -1.5182800    4.3779030   -1.4645520  
C    -0.4415150    4.3788740   -0.5187760  
C    -0.0566120    5.7344540   -0.3376250  
N    -0.8797090    6.5046010   -1.1315360  
C     0.9906370    6.1275500    0.4999540  
C     1.6764340    5.1316790    1.1804490  
O     2.6883730    5.4687670    2.0255300  
C     1.3255240    3.7706960    1.0173450  
O     2.0939880    2.9105370    1.7804050  
C     0.2772050    3.3622610    0.1755670  
H    -2.0433040    3.5212960   -1.8589760  
H    -0.8365170    7.5086460   -1.2125400  
H     1.2731550    7.1653120    0.6440520  
H     2.9973030    4.6490940    2.4500240  
H     1.6109390    2.0785390    1.9215450  
H    -2.4838050    6.1019960   -2.4913180  
