58


C     5.2162200    0.0371480    0.1215360  
C     6.1099470    1.0865790    0.0775320  
C     7.4304690    0.5392270   -0.0663020  
C     7.2628860   -0.9341050   -0.1136800  
N     5.9120170   -1.1699810    0.0201260  
C     8.2853490   -1.8143640   -0.2629320  
C     9.6431200   -1.2897800   -0.3796990  
O    10.6249640   -2.0028100   -0.5178100  
C     9.8442090    0.2695060   -0.3244970  
O    10.9718260    0.7283920   -0.4191620  
C     8.6599630    1.1185030   -0.1638150  
H     5.8603920    2.1358540    0.0863100  
H     8.1459500   -2.8902320   -0.2978270  
H     8.8091480    2.1935460   -0.1304270  
H     5.4386800   -2.0511490   -0.1234170  
C     2.2264760    3.0585660    1.5241620  
C     3.4053900    2.4221770    1.3084960  
C     3.0509700    1.1569960    0.6890840  
C     1.5546940    1.1988770    0.6212930  
N     1.0867290    2.3184320    1.0957020  
C     0.7631060    0.0966590    0.1033340  
C     1.4636750   -0.9978490   -0.3129400  
O     0.8824980   -2.0796290   -0.8440520  
C     2.9550400   -1.0835040   -0.2337810  
O     3.4620620   -2.1592760   -0.5642170  
C     3.7656640    0.0897040    0.2176390  
H     4.3919760    2.7550160    1.5917730  
H     1.5966250   -2.7367240   -0.9873220  
H     2.0696870    4.0266070    1.9848140  
C    -2.2798960    2.8050220   -1.6977740  
C    -1.1224820    2.2248070   -1.2927100  
C    -1.4741650    1.0855080   -0.4749300  
C    -2.9516460    1.0539550   -0.4307520  
N    -3.3780960    2.1353870   -1.1637030  
C    -3.7235480    0.0845410    0.1704040  
C    -2.9852010   -0.9688430    0.9015130  
O    -3.5224820   -1.8160460    1.5867300  
C    -1.4129200   -0.9559490    0.8662480  
O    -0.8221220   -1.8158320    1.4927440  
C    -0.7088930    0.1193880    0.1249790  
H    -0.1228630    2.5599000   -1.5184800  
H    -2.4334130    3.6728940   -2.3249760  
H    -4.3403650    2.2592260   -1.4465310  
C    -5.1712990    0.0840220    0.1069090  
C    -6.0254940    1.1634270    0.0874490  
C    -7.3551400    0.6096210   -0.0112700  
C    -7.1276650   -0.8710040   -0.0751250  
N    -5.8652580   -1.1725830   -0.0003630  
C    -8.2245000   -1.7955710   -0.2078140  
C    -9.4766820   -1.2827500   -0.2452160  
O   -10.5912390   -2.0183280   -0.3561290  
C    -9.7377710    0.2048030   -0.1631330  
O   -10.9124740    0.5718030   -0.2088660  
C    -8.6052870    1.1290270   -0.0458860  
H    -5.7807420    2.2043220    0.2526220  
H    -8.0325520   -2.8613300   -0.2597220  
H   -11.3302550   -1.3688770   -0.3533180  
H    -8.8318090    2.1898980    0.0003230  
