58


C    -0.7311750   -2.2260460   -0.1746660  
C     0.3443260   -1.4311510   -0.5201140  
C     1.4045550   -1.6851570    0.4071950  
C     0.8953430   -2.7300030    1.3294650  
N    -0.3945710   -3.0027680    0.9305260  
C     1.6121870   -3.2810450    2.3418110  
C     2.9707020   -2.8040640    2.5577480  
O     3.7082900   -3.2515900    3.4224820  
C     3.5124920   -1.6464860    1.6409020  
O     4.5991020   -1.1615320    1.9069650  
C     2.6703210   -1.1634710    0.5205220  
H     0.4158540   -0.7807570   -1.3756650  
H     1.2276100   -4.0624460    2.9894140  
H    -0.9932210   -3.7534190    1.2514130  
C     1.2082350    2.8749920   -0.6183880  
C     2.2543230    3.3140840   -1.3973440  
C     3.1969300    2.2358100   -1.4355100  
C     2.5664820    1.1501620   -0.6010590  
N     1.4087770    1.5323390   -0.1387930  
C     3.2201260   -0.1265870   -0.3725960  
C     4.4309620   -0.2839780   -0.9910260  
O     5.1370510   -1.4105840   -0.9431060  
C     5.0856710    0.7899880   -1.8348220  
O     6.1756250    0.5099210   -2.3365170  
C     4.4089640    2.0672790   -2.0214920  
H     2.3705630    4.2817560   -1.8653190  
H     5.9611720   -1.2249950   -1.4511330  
H     4.9053250    2.8197980   -2.6256840  
C    -0.4768280    4.7707070   -0.6737030  
C     0.0038050    3.5521950   -0.2455930  
C    -1.0192770    3.0898680    0.7175700  
C    -2.0316090    4.1803670    0.7218180  
N    -1.6966180    5.1501910   -0.1012720  
C    -3.2047860    4.1272130    1.5428250  
C    -3.3695320    3.0371700    2.3353530  
O    -4.4139020    2.8528020    3.1512600  
C    -2.3630450    1.9149940    2.3548760  
O    -2.5921580    0.9583180    3.0897260  
C    -1.1583450    1.9998590    1.4973000  
H    -3.9212810    4.9407800    1.5231560  
H    -4.2591750    1.9878770    3.5923100  
H    -0.4373840    1.1907880    1.5307170  
H    -0.0139360    5.4352770   -1.3944440  
C    -2.9734020    0.7005070   -2.5605370  
C    -4.0641730   -0.0441970   -2.8647080  
C    -3.8934620   -1.3338770   -2.2271860  
C    -2.5841670   -1.2830430   -1.5370430  
N    -2.0687340   -0.0386330   -1.7929490  
C    -2.0451240   -2.3050710   -0.7802640  
C    -2.9166310   -3.4726510   -0.5623100  
O    -2.6582290   -4.3678120    0.2326680  
C    -4.2564560   -3.5858200   -1.3749030  
O    -4.8976060   -4.6195970   -1.2930460  
C    -4.6835030   -2.4397780   -2.1751450  
H    -4.9112200    0.2643740   -3.4595490  
H    -5.6338990   -2.5108280   -2.6946220  
H    -2.7333780    1.7200290   -2.8306100  
H    -1.2678630    0.3478360   -1.3098880  
