60


C    -0.2486120   -2.2510790    0.0278020  
C    -1.3028420   -1.3546100   -0.0342850  
C    -2.5012860   -2.1076630   -0.2069870  
C    -2.1236960   -3.4773460   -0.2611470  
N    -0.7593460   -3.5422290   -0.0725200  
C    -3.0370700   -4.5127980   -0.4812890  
C    -4.3690700   -4.1653640   -0.6413930  
O    -5.2992480   -5.1334960   -0.8382540  
C    -4.7828050   -2.8058980   -0.5858100  
O    -6.1340850   -2.6405580   -0.7313710  
C    -3.8781340   -1.7628670   -0.3633660  
H    -1.2029630   -0.2821360    0.0473980  
H    -0.1930560   -4.3466740   -0.3021550  
H    -2.7466870   -5.5573280   -0.5210700  
H    -6.1694570   -4.6995600   -0.8911210  
H    -6.3776060   -1.7306610   -0.4743440  
C     1.1584040   -2.0120210    0.2018960  
C     1.8964260   -0.8912770   -0.0687800  
C     3.2619020   -1.1512480    0.2929160  
C     3.2882540   -2.5403230    0.8056420  
N     1.9969910   -3.0473060    0.6669260  
C     4.3831380   -3.1682700    1.2945190  
C     5.6479170   -2.4420080    1.2909650  
O     6.6950950   -2.9279730    1.6874250  
C     5.6595130   -0.9712970    0.7393430  
O     6.7015500   -0.3422840    0.8070190  
C     4.4029140   -0.3933260    0.2049580  
H     1.5194230    0.0196340   -0.5060690  
H     4.3757150   -4.1910340    1.6588740  
H     1.6506160   -3.7382690    1.3205520  
C     2.2232830    3.2784870    1.3570680  
C     2.7903470    4.2089570    0.5569710  
C     3.7588800    3.4745310   -0.2503440  
C     3.6303210    2.0547770    0.2226750  
N     2.7300950    1.9520380    1.1574090  
C     4.4469110    0.9821160   -0.3263580  
C     5.3170110    1.3402320   -1.3157360  
O     6.0981370    0.4684650   -1.9628710  
C     5.4589960    2.7554730   -1.8087800  
O     6.2702290    2.9646810   -2.7085010  
C     4.6322990    3.8206800   -1.2140560  
H     2.5896420    5.2703340    0.5133940  
H     6.6310400    1.0054580   -2.5906060  
H     4.7712910    4.8295510   -1.5904150  
H     1.4565990    3.4251140    2.1087320  
C    -4.3556970   -0.3905330   -0.2557180  
C    -5.3824710    0.2499890   -0.9144300  
C    -5.4666160    1.6004670   -0.4122880  
C    -4.4168800    1.7148600    0.6285600  
N    -3.7550670    0.4978460    0.6421930  
C    -4.1986930    2.8202820    1.3817700  
C    -5.0280540    3.9996820    1.1373130  
O    -4.8984830    5.0417710    1.7601350  
C    -6.1226390    3.9148190    0.0112650  
O    -6.8178320    4.8941240   -0.2111460  
C    -6.2706650    2.6545270   -0.7190340  
H    -5.9239280   -0.1358180   -1.7677230  
H    -3.4307260    2.8824340    2.1467580  
H    -7.0403390    2.6032920   -1.4832110  
H    -3.1488650    0.1936810    1.3903000  
