62


C    -1.1603410    1.1971680   -1.3327600  
C    -0.5024870    0.3804520   -0.4283280  
C    -1.5101580   -0.5283900    0.0907100  
C    -2.7354150   -0.1971400   -0.5353170  
N    -2.4853780    0.8446070   -1.4086540  
C    -3.9628230   -0.8341680   -0.2536020  
C    -3.9183440   -1.8375760    0.7147920  
O    -5.0531130   -2.5226290    1.0360660  
C    -2.7007760   -2.1787620    1.3577820  
O    -2.8333390   -3.1985690    2.2811500  
C    -1.5092010   -1.5481060    1.0615400  
H    -3.1922460    1.3193540   -1.9485710  
H    -4.8040620   -3.1884950    1.7014990  
H    -1.9547660   -3.4854290    2.5721200  
H    -0.5886800   -1.8545650    1.5462610  
H    -0.7597120    1.9716970   -1.9704090  
C     2.2131110    3.8583810    0.0801660  
C     1.1323190    3.0494320   -0.0774370  
C     1.5923750    1.6786230    0.0122170  
C     3.0444380    1.7572080    0.2597000  
N     3.3551090    3.1049510    0.3080380  
C     3.9144110    0.7037870    0.4121670  
C     3.2954410   -0.6208220    0.3174850  
O     3.9096470   -1.6707540    0.4416720  
C     1.7389400   -0.7383260    0.0567780  
O     1.2841910   -1.8689400   -0.0260580  
C     0.9190470    0.4796700   -0.0982920  
H     0.1104080    3.3699520   -0.2072240  
H     2.2702620    4.9389010    0.0759260  
H     4.3062600    3.4435190    0.2911260  
C     5.8766120    1.8337920    1.5444650  
C     5.3428210    0.8768930    0.6955230  
C     6.4747940    0.1462440    0.1571590  
C     7.6465460    0.7191210    0.7110710  
N     7.2500570    1.7424170    1.5512510  
C     8.9377400    0.2758600    0.3964330  
C     9.0479660   -0.7757800   -0.4980760  
O    10.2770410   -1.2605270   -0.8362020  
C     7.8852140   -1.3628260   -1.0659430  
O     8.1553350   -2.4027350   -1.9364660  
C     6.6158490   -0.9170560   -0.7568550  
H     7.8651160    2.2844090    2.1377350  
H     9.8325050    0.7141820    0.8265600  
H    10.1303320   -2.0110850   -1.4380830  
H     7.3290740   -2.8595660   -2.1542970  
H     5.7434670   -1.4041840   -1.1794620  
H     5.3701650    2.5288260    2.1998620  
C    -5.3998990   -0.4440640   -2.3043100  
C    -5.2077070   -0.4697550   -0.9540730  
C    -6.4710170   -0.0357800   -0.3560510  
C    -7.3999610    0.2368460   -1.4797970  
N    -6.6816970   -0.0085760   -2.6334020  
C    -8.6857080    0.6494080   -1.3352920  
C    -9.1977760    0.8585060    0.0142180  
O   -10.3382220    1.2309690    0.2472590  
C    -8.2224920    0.5971100    1.2210850  
O    -8.6274400    0.7806040    2.3580390  
C    -6.8575780    0.1416050    0.9320180  
H    -9.3502480    0.8381440   -2.1730100  
H    -6.2004410   -0.0573500    1.7712170  
H    -4.7086960   -0.7252360   -3.0887030  
H    -7.0738190   -0.0155520   -3.5619180  
