60


C    -0.3402250    0.4931050    0.9884610  
C    -0.2908660    1.7699900    0.4448070  
C    -1.6449050    2.0706940    0.0038870  
C    -2.4379970    0.9408460    0.3256500  
N    -1.6197530    0.0141610    0.9413200  
C    -3.8086720    0.8565500    0.0226610  
C    -4.3906830    1.9446790   -0.6265810  
O    -5.7179820    1.9207940   -0.9345520  
C    -3.6076770    3.0768110   -0.9529940  
O    -4.3246890    4.0713360   -1.5883870  
C    -2.2587130    3.1512300   -0.6589660  
H    -1.8962290   -0.9215960    1.1986810  
H    -5.9177160    2.7555380   -1.3944030  
H    -3.7305560    4.7995920   -1.8230530  
H    -1.6936580    4.0421940   -0.9056570  
H     0.4624290   -0.1034100    1.3923330  
C     3.8641610    0.4314600    0.1628440  
C     4.5400330    1.6178830    0.1297180  
C     3.5244280    2.6489080    0.2074420  
C     2.2337670    1.8984210    0.2754250  
N     2.4387280    0.6176400    0.2376150  
C     0.9290540    2.5686440    0.3637630  
C     0.9933120    3.9370480    0.3989020  
O    -0.0877870    4.7392110    0.5403700  
C     2.2640760    4.7054960    0.3243330  
O     2.1979850    5.9388680    0.3761810  
C     3.5512680    3.9955290    0.2180990  
H     5.6096950    1.7704030    0.1082300  
H     0.2871490    5.6495400    0.5580940  
H     4.4522340    4.5986090    0.1597710  
C     7.3136500   -1.4980160   -1.9031750  
C     6.4008110   -0.5725660   -1.5113840  
C     5.5199470   -1.2732100   -0.5911310  
C     6.0688900   -2.6673060   -0.5629100  
N     7.1197940   -2.7875960   -1.3247630  
C     5.4581960   -3.7065630    0.2187900  
C     4.3527180   -3.3894570    0.9315680  
O     3.6865510   -4.2594930    1.7041720  
C     3.7774820   -1.9941630    0.9488170  
O     2.8168240   -1.8071320    1.6889010  
C     4.4160960   -0.9153760    0.1276960  
H     6.3198800    0.4555930   -1.8310250  
H     5.8802610   -4.7052810    0.2216150  
H     2.9550810   -3.7451290    2.1109520  
H     8.1379490   -1.3631300   -2.5937950  
C    -5.7508960   -0.2308310    1.1614190  
C    -6.2919070   -1.4624370    1.3247560  
C    -5.4627380   -2.3976400    0.5969820  
C    -4.3770340   -1.5916170   -0.0193350  
N    -4.5903860   -0.2752250    0.3756340  
C    -3.4009650   -2.1072680   -0.8134240  
C    -3.4004000   -3.5461370   -1.0694250  
O    -2.5638310   -4.0952810   -1.7703640  
C    -4.5272960   -4.4195750   -0.4067370  
O    -4.5293150   -5.6261910   -0.5956570  
C    -5.5342340   -3.7423750    0.4130210  
H    -7.1810980   -1.7023210    1.8894740  
H    -2.6382570   -1.5016370   -1.2907450  
H    -6.3208100   -4.3510340    0.8489470  
H    -6.0831730    0.7257690    1.5387690  
