60


C     2.7266040   -1.7464990   -0.2448980  
C     3.6345560   -0.7116770   -0.1006190  
C     2.8572660    0.4803350    0.1774250  
C     1.4984260    0.0879240    0.2018370  
N     1.4572010   -1.2718480   -0.0539290  
C     0.4270820    0.9792510    0.4148390  
C     0.7771860    2.3195150    0.5879300  
O    -0.1947600    3.2464840    0.8113340  
C     2.1337070    2.7367520    0.5422950  
O     2.2944160    4.0935920    0.7237260  
C     3.1707980    1.8439980    0.3448490  
H     0.6075640   -1.8061960   -0.1579310  
H     0.2395980    4.1161620    0.8663670  
H     3.2205690    4.3404150    0.5821470  
H     4.1963990    2.1989930    0.2859590  
H     2.9080790   -2.7945030   -0.4350750  
C    -1.4936730   -0.4407200    1.2665500  
C    -0.9733310    0.5204630    0.4485730  
C    -2.0758790    0.9777460   -0.3970560  
C    -3.2683010    0.2029640    0.0110220  
N    -2.8455610   -0.6384880    1.0228340  
C    -4.5081370    0.3051830   -0.5538220  
C    -4.6620950    1.3050030   -1.6337350  
O    -5.7398850    1.5676790   -2.1361450  
C    -3.3937050    2.1000660   -2.1103890  
O    -3.5059670    2.8792150   -3.0425380  
C    -2.1268680    1.8803220   -1.4094330  
H    -1.2619600    2.4498940   -1.7306940  
H    -0.9988770   -1.0025270    2.0487440  
H    -3.4449040   -1.2823830    1.5150810  
C    -6.6757570   -0.2510800    3.3080020  
C    -5.8077030    0.1456210    2.3400290  
C    -6.1783650   -0.5427110    1.1184220  
C    -7.3532560   -1.3802580    1.4624620  
N    -7.5856150   -1.1748460    2.8110220  
C    -8.0427110   -2.1544770    0.5859790  
C    -7.5977110   -2.1836120   -0.8010530  
O    -8.1668340   -2.8190530   -1.6744310  
C    -6.3062710   -1.3735350   -1.1801760  
O    -5.8257040   -1.5282050   -2.2873770  
C    -5.6692970   -0.5042130   -0.1530300  
H    -5.0126600    0.8673260    2.4529630  
H    -8.9174790   -2.7359150    0.8603430  
H    -6.7311610    0.0540570    4.3447380  
H    -8.3752560   -1.5435380    3.3178520  
C     5.0693530   -0.8424900   -0.1967670  
C     5.8362510   -1.7386460   -0.8972360  
C     7.2199820   -1.4717900   -0.6135500  
C     7.2289440   -0.3280640    0.3322440  
N     5.9045060    0.0527230    0.4985170  
C     8.3461590    0.1947540    0.8923270  
C     9.6411950   -0.3743340    0.5205930  
O    10.6984380    0.0375190    0.9730710  
C     9.6604700   -1.5577920   -0.5153090  
O    10.7388630   -2.0345940   -0.8408300  
C     8.3848700   -2.0435450   -1.0323540  
H     5.4622480   -2.4777320   -1.5914750  
H     8.3334410    1.0248450    1.5925290  
H     8.4093790   -2.8735760   -1.7319890  
H     5.5840180    0.5440730    1.3211580  
