62


C    -1.2949780   -0.8225580   -1.3541560  
C    -0.6094820   -0.0435200   -0.4423340  
C    -1.6085250    0.5092360    0.4454220  
C    -2.8677320    0.0235280    0.0181300  
N    -2.6450300   -0.7852430   -1.0782810  
C    -4.0906780    0.3935140    0.6208280  
C    -3.9986640    1.2774750    1.6975010  
O    -5.1243720    1.6378030    2.3688300  
C    -2.7422010    1.7683710    2.1391200  
O    -2.8343350    2.6197590    3.2235190  
C    -1.5576430    1.4038240    1.5315680  
H    -3.3610370   -1.2898280   -1.5768250  
H    -4.8681530    2.3059560    3.0282200  
H    -1.9530330    2.9541310    3.4462270  
H    -0.6065620    1.7773190    1.8992260  
H    -0.9121120   -1.4477720   -2.1490330  
C     2.0571100    1.0549610   -3.7520560  
C     3.2467950    1.0463770   -3.0692930  
C     2.9404930    0.7199820   -1.7051770  
C     1.5375590    0.5268680   -1.6233720  
N     1.0302190    0.7317050   -2.8890430  
C     0.8456230    0.1838020   -0.4415350  
C     1.6435870    0.0578590    0.6984850  
O     1.0821840   -0.2776530    1.8958940  
C     3.0462090    0.2728190    0.6610560  
O     3.6686670    0.1765380    1.8908210  
C     3.7027180    0.5946100   -0.5239310  
H     4.2234160    1.2350530   -3.4920810  
H     0.0439560    0.7372820   -3.1021050  
H     1.8207610   -0.3546140    2.5284760  
H     4.5439150   -0.2428510    1.7963170  
H     1.8559390    1.2558790   -4.7948120  
C     5.7104310    2.0435940   -0.9019370  
C     7.0520700    2.0098190   -0.7159650  
C     7.3780430    0.7034070   -0.1827550  
C     6.0903200   -0.0313050   -0.0852780  
N     5.1063760    0.8302380   -0.5328810  
C     5.9712360   -1.3136380    0.3666500  
C     7.1802220   -2.0201040    0.7829580  
O     7.1751830   -3.1765550    1.1759850  
C     8.5482830   -1.2491300    0.7111710  
O     9.5659540   -1.8099030    1.0842920  
C     8.5476660    0.1224800    0.1892450  
H     7.7497450    2.8090960   -0.9196740  
H     5.0350800   -1.8644670    0.3483050  
H     9.5035010    0.6334530    0.1213790  
H     5.0797130    2.8416010   -1.2692040  
C    -5.7964630   -3.6784050    0.0949380  
C    -4.9952150   -2.6224560    0.3882070  
C    -5.7215350   -1.4161550    0.0335810  
C    -7.0326530   -1.8678210   -0.4914640  
N    -7.0038230   -3.2489520   -0.4488890  
C    -8.0366940   -1.0462270   -0.8953490  
C    -7.8151430    0.3889970   -0.8208240  
O    -8.6633910    1.2173650   -1.1176370  
C    -6.4033780    0.8992600   -0.3480630  
O    -6.1622980    2.0886310   -0.4356670  
C    -5.3976750   -0.0894210    0.1337560  
H    -4.0092730   -2.6666330    0.8257120  
H    -8.9983270   -1.4051530   -1.2490780  
H    -5.6137610   -4.7365820    0.2282120  
H    -7.7869190   -3.8442070   -0.6686820  
