58


C    -6.1991570   -1.3073150    3.2438150  
C    -5.3266260   -0.6327440    2.4532210  
C    -5.9742080   -0.4175820    1.1773480  
C    -7.3227970   -1.0288980    1.2958870  
N    -7.3923790   -1.5530560    2.5706520  
C    -8.2691260   -1.0262220    0.3223700  
C    -7.9483230   -0.3824380   -0.9418300  
O    -8.7342650   -0.3027290   -1.8736570  
C    -6.5143460    0.2395310   -1.1160350  
O    -6.2127830    0.6967910   -2.2039410  
C    -5.5733180    0.2176180    0.0336080  
H    -4.3248660   -0.3334910    2.7170560  
H    -9.2542910   -1.4659200    0.4440090  
H    -6.0766500   -1.6520940    4.2620570  
H    -8.1929840   -2.0302980    2.9532590  
C    -1.5579740   -1.4945160    0.2822480  
C    -0.7296960   -0.4383890   -0.0110150  
C    -1.6658580    0.6864140   -0.2430580  
C    -3.0180570    0.0891800   -0.0073730  
N    -2.9296700   -1.1768770    0.3048440  
C    -4.2489070    0.8441350   -0.1445640  
C    -4.1127080    2.1463940   -0.5323320  
O    -5.1387510    2.9922590   -0.6664630  
C    -2.7748200    2.7618880   -0.8189050  
O    -2.7550970    3.9409870   -1.1690570  
C    -1.5468710    1.9592750   -0.6644550  
H    -4.7446630    3.8358800   -0.9827060  
H    -0.6061410    2.4522440   -0.8689890  
H    -1.2517490   -2.5108600    0.4795400  
C     1.8954900   -3.8270340   -0.8389690  
C     3.1234880   -3.2545210   -0.8168390  
C     2.8860810   -1.8444090   -0.5400360  
C     1.4110680   -1.7437590   -0.4065770  
N     0.8422040   -2.9022860   -0.5981170  
C     0.7201870   -0.4816350   -0.1062540  
C     1.5562530    0.5847700    0.1053670  
O     1.1221780    1.8128570    0.4737210  
C     3.0320670    0.5118190   -0.0091950  
O     3.6628650    1.5483810    0.2308920  
C     3.7104240   -0.7627270   -0.4053180  
H     4.0816460   -3.7371470   -0.9423720  
H     1.9414300    2.3508010    0.5590170  
H     1.6432770   -4.8674410   -1.0032610  
C     5.7395500   -1.5400650   -1.6560610  
C     5.1338460   -0.7839630   -0.6804440  
C     6.2637970   -0.0761470   -0.0360680  
C     7.4645210   -0.5750550   -0.7724140  
N     7.1357930   -1.4168880   -1.7211310  
C     8.7973140   -0.1556410   -0.4439870  
C     8.9495820    0.7144740    0.5839650  
O    10.1279320    1.1894110    1.0041750  
C     7.7634310    1.2267730    1.3588580  
O     7.9813830    2.0047540    2.2836450  
C     6.4008390    0.7844690    0.9904100  
H     9.6390650   -0.5399590   -1.0089120  
H     9.9205130    1.7866550    1.7569680  
H     5.5770290    1.1995610    1.5567090  
H     5.2381770   -2.1679210   -2.3828320  
