58


C     0.6333560    1.7900040   -1.1651050  
C    -0.0958530    1.0162480   -0.3091060  
C     0.8398070    0.2882730    0.5312690  
C     2.1835720    0.7082680    0.0895320  
N     1.9856630    1.6587110   -0.9043330  
C     3.3641930    0.2295050    0.5865940  
C     3.2522550   -0.7927940    1.6559620  
O     4.2252870   -1.2977440    2.1862760  
C     1.8222780   -1.2349990    2.1480310  
O     1.7451160   -2.0882240    3.0172060  
C     0.6553340   -0.6166590    1.5295950  
H    -0.3271960   -0.9101230    1.8843900  
H     0.2824810    2.4543860   -1.9433350  
H     2.7229080    1.9851840   -1.5119360  
C    -2.2454830   -0.2267650   -0.4460840  
C    -3.5856990   -0.0103250   -0.3173240  
C    -3.7395580    1.4115010    0.0105570  
C    -2.3742360    1.9813260    0.0645440  
N    -1.4972610    0.9373060   -0.2303940  
C    -2.0873970    3.2745760    0.3568950  
C    -3.1922980    4.1824190    0.6495090  
O    -3.0301920    5.3613080    0.9252390  
C    -4.6492560    3.5992880    0.6094910  
O    -5.5890450    4.3320030    0.8680090  
C    -4.8262640    2.1798490    0.2681700  
H    -1.0768360    3.6666990    0.3939800  
H    -5.8399520    1.8002600    0.2179350  
H    -1.7285970   -1.1358390   -0.7252150  
C    -4.0389710   -4.0384960    1.3904660  
C    -5.1892940   -4.4186460    0.7802430  
C    -5.6164690   -3.3195170   -0.0607220  
C    -4.6010070   -2.2520740    0.1092780  
N    -3.6524630   -2.7654540    0.9729960  
C    -4.6414880   -1.0178630   -0.4829140  
C    -5.7893260   -0.7575380   -1.3738880  
O    -5.9287950    0.2912480   -1.9820440  
C    -6.8736410   -1.8822830   -1.5695150  
O    -7.8266250   -1.6466850   -2.2945770  
C    -6.6958080   -3.1522800   -0.8708830  
H    -5.6958860   -5.3656540    0.8957450  
H    -7.4497040   -3.9201970   -1.0131980  
H    -3.4237620   -4.5783700    2.0981480  
H    -2.9416470   -2.2034120    1.4166740  
C     5.0339440    2.0409650    0.0469730  
C     4.6757860    0.7239200    0.1580700  
C     5.8557770   -0.0541880   -0.2372200  
C     6.9057520    0.9324130   -0.5864260  
N     6.3350570    2.1808370   -0.4000190  
C     8.1572650    0.6199140   -1.0048440  
C     8.5076980   -0.7915230   -1.1435530  
O     9.6058480   -1.1726770   -1.5158950  
C     7.4036780   -1.8568710   -0.8057960  
O     7.6607960   -3.0410620   -0.9415760  
C     6.0900660   -1.3855430   -0.3422830  
H     8.9090770    1.3639130   -1.2495500  
H     5.3555660   -2.1372680   -0.0781370  
H     4.4502350    2.9199640    0.2899480  
H     6.8349410    3.0546750   -0.4613830  
