60


C    -1.0279690    0.3629210   -1.1770350  
C    -0.5978340   -0.6340010   -0.3169180  
C    -1.7602130   -1.0262020    0.4553720  
C    -2.8437340   -0.2297430    0.0147550  
N    -2.3716490    0.5944370   -0.9894410  
C    -4.1406570   -0.2934750    0.5696280  
C    -4.3155290   -1.2051670    1.6108580  
O    -5.5441250   -1.3621890    2.1676240  
C    -3.2381580   -2.0125520    2.0642350  
O    -3.5884320   -2.8716630    3.0859680  
C    -1.9775940   -1.9371020    1.5076030  
H    -2.9191490    1.2965730   -1.4627030  
H    -5.4556920   -2.0100020    2.8886430  
H    -2.8384710   -3.4481270    3.2959930  
H    -1.1824900   -2.5913650    1.8494470  
H    -0.4874270    0.8703710   -1.9643370  
C     3.1825650    1.5318110   -0.2374230  
C     4.0843360    0.5003590   -0.2318560  
C     3.2896470   -0.7325520   -0.2390650  
C     1.8722960   -0.3127750   -0.2584990  
N     1.8831440    1.0714320   -0.2933390  
C     0.7775280   -1.1363150   -0.2310510  
C     1.0708360   -2.5785590   -0.1285150  
O     0.2023980   -3.4348960   -0.0599020  
C     2.5741070   -3.0502070   -0.0978790  
O     2.7974430   -4.2460510    0.0112530  
C     3.6311580   -2.0466810   -0.1777770  
H     4.6573220   -2.3928310   -0.1885850  
H     3.3805700    2.5955040   -0.2462990  
H     1.0486320    1.6304190   -0.1894400  
C     6.7639860    3.1038080    2.1660290  
C     5.6929580    2.4351040    1.6647030  
C     6.1779860    1.5517210    0.6235550  
C     7.6438970    1.7606390    0.5656150  
N     7.9295010    2.7295040    1.5079220  
C     8.4991830    1.0973370   -0.2569090  
C     7.9433970    0.0987990   -1.1520800  
O     8.6174140   -0.5817110   -1.9107750  
C     6.3837370   -0.1217000   -1.1449200  
O     5.9144400   -0.9168960   -1.9408160  
C     5.5397340    0.6542070   -0.1989190  
H     4.6726590    2.5251120    2.0044620  
H     9.5710990    1.2678330   -0.2694290  
H     6.8056220    3.8358050    2.9616170  
H     8.8580160    3.0445240    1.7414560  
C    -6.0795350   -0.1181920   -3.3536000  
C    -6.9934970    0.8612880   -3.1276160  
C    -6.8251730    1.3021020   -1.7582000  
C    -5.7186180    0.4885080   -1.2005820  
N    -5.2851380   -0.3299140   -2.2315570  
C    -5.2520940    0.5506380    0.0805030  
C    -5.8930320    1.5481010    0.9652640  
O    -5.5171210    1.7603770    2.1041940  
C    -7.0848060    2.4079330    0.3968570  
O    -7.6379940    3.2012120    1.1431190  
C    -7.4752940    2.2255450   -0.9994450  
H    -7.7152650    1.2413700   -3.8358880  
H    -8.2952420    2.8273990   -1.3792050  
H    -5.9050130   -0.6987720   -4.2501040  
H    -4.6600510   -1.1110900   -2.0961830  
