64


C     0.7672900   -0.7200680    1.9353440  
C    -0.5676370   -0.6290860    1.6493280  
C    -0.8718280   -1.6143960    0.6400840  
C     0.3313070   -2.3099520    0.3673970  
N     1.3188110   -1.7357660    1.1618060  
C     0.4216740   -3.3823080   -0.5227270  
C    -0.7560830   -3.7679540   -1.1434010  
O    -0.7630850   -4.8185270   -2.0072200  
C    -1.9784240   -3.0788560   -0.9100640  
O    -3.0393080   -3.5626910   -1.6459170  
C    -2.0608380   -1.9792740   -0.0528550  
H    -1.2676250    0.0401360    2.1289010  
H     1.3490290   -3.9089090   -0.7170020  
H    -1.6895240   -4.9099600   -2.3011710  
H    -3.8201130   -3.6060750   -1.0533180  
H     1.3949610   -0.1418630    2.5982480  
C     3.1720810   -3.0829100    2.0350890  
C     4.5067400   -3.2065800    1.7723580  
C     4.8285070   -2.2862230    0.7132910  
C     3.6336590   -1.6140550    0.3594530  
N     2.6334630   -2.1179470    1.1846270  
C     3.5667670   -0.6402230   -0.6403790  
C     4.7449780   -0.3352250   -1.3044830  
O     4.7448840    0.6073030   -2.2912270  
C     5.9570710   -0.9954330   -0.9688860  
O     7.0418280   -0.5844050   -1.7212280  
C     6.0117170   -1.9578580    0.0224400  
H     5.1899310   -3.8767310    2.2761230  
H     2.6474430   -0.1276920   -0.8996230  
H     5.6614370    0.6939870   -2.6052150  
H     7.8436850   -1.0184990   -1.3949130  
H     6.9525620   -2.4501790    0.2609450  
H     2.5307210   -3.5824300    2.7462820  
C    -2.6794630    2.3695670   -0.4219310  
C    -4.0340640    2.4041450   -0.1906300  
C    -4.4496160    1.0483430    0.0205800  
C    -3.2914030    0.2323770   -0.0755950  
N    -2.2290030    1.0638040   -0.3676710  
C    -3.3018840   -1.1736790    0.0770360  
C    -4.5627120   -1.7227600    0.3055440  
O    -4.6976430   -3.0921030    0.4315130  
C    -5.7323530   -0.9313740    0.4063800  
O    -6.8773520   -1.6686000    0.6440470  
C    -5.6953150    0.4428560    0.2752270  
H    -4.6473780    3.2932640   -0.1493590  
H    -1.2761180    0.7581960   -0.5000910  
H    -5.6394380   -3.2723900    0.6061220  
H    -7.6359510   -1.0741020    0.7393280  
H    -6.6047790    1.0339530    0.3545000  
C    -2.0624120    4.4492370   -1.6274430  
C    -1.0732570    5.3753340   -1.6368450  
C    -0.0772480    4.9563480   -0.6729390  
C    -0.5813440    3.6920230   -0.0833860  
N    -1.7981460    3.4194580   -0.7127990  
C     0.0598530    2.9919110    0.8853290  
C     1.3425350    3.4915470    1.3731200  
O     1.9924720    2.9143560    2.2328820  
C     1.8993880    4.8271100    0.7605540  
O     2.9628200    5.2687490    1.1660970  
C     1.1054700    5.4950940   -0.2755410  
H    -1.0281650    6.2566980   -2.2599770  
H    -0.3179000    2.0702110    1.3098730  
H     1.4956320    6.4203570   -0.6885690  
H    -2.9701510    4.3964580   -2.2130990  
