58


C     5.0191160   -0.2219380   -0.0632930  
C     5.8805730   -1.2044660   -0.5001340  
C     7.2223700   -0.7621550   -0.2394680  
C     7.1068430    0.5746670    0.3945710  
N     5.7612270    0.8423530    0.4716530  
C     8.1659170    1.3265640    0.7934580  
C     9.5097100    0.7980540    0.5907270  
O    10.5224680    1.3996120    0.9168280  
C     9.6563220   -0.6175950   -0.0806720  
O    10.7737890   -1.0782320   -0.2582390  
C     8.4380730   -1.3341960   -0.4675750  
H     5.5749300   -2.1314440   -0.9567860  
H     8.0632300    2.3031240    1.2564240  
H     8.5497890   -2.3105270   -0.9293990  
H     5.3420050    1.6746690    0.8576530  
C     2.1456500   -3.1470640   -1.6406500  
C     0.9620010   -2.5506000   -1.3604780  
C     1.3056940   -1.3032390   -0.6927090  
C     2.7913810   -1.3039060   -0.6677030  
N     3.2698990   -2.3859800   -1.2139270  
C     3.5691680   -0.1956860   -0.0995760  
C     2.8184940    0.8502720    0.3732440  
O     3.3456440    1.9728670    0.9129550  
C     1.3311800    0.8769280    0.3542880  
O     0.7942260    1.8903790    0.8139750  
C     0.5564320   -0.2830830   -0.1743770  
H    -0.0295730   -2.8990280   -1.6090950  
H     2.5685690    2.5251470    1.1624120  
H     2.3204240   -4.0901040   -2.1432020  
C    -1.6412700   -1.4288440    0.2184370  
C    -0.8895900   -0.3123740   -0.0532200  
C    -1.8962030    0.7624040   -0.1951420  
C    -3.2011950    0.0625800    0.0143390  
N    -3.0267720   -1.2101220    0.2641030  
C    -4.4769580    0.7419600   -0.0720380  
C    -4.4310580    2.0741260   -0.3643810  
O    -5.5122900    2.8508650   -0.4441740  
C    -3.1342340    2.8026620   -0.5961520  
O    -3.1977710    3.9999850   -0.8581860  
C    -1.8547500    2.0724670   -0.4982980  
H    -5.1842860    3.7473530   -0.6818280  
H    -0.9471240    2.6413180   -0.6545400  
H    -1.2646680   -2.4214510    0.4342310  
C    -6.4113130   -1.6704400    3.1827990  
C    -5.5032250   -0.9368480    2.4992850  
C    -6.1201480   -0.6786420    1.2028570  
C    -7.4526900   -1.3616270    1.2959360  
N    -7.6168780   -1.9342960    2.4522670  
C    -8.3983870   -1.3335760    0.2111090  
C    -8.0474780   -0.6645170   -0.9104130  
O    -8.8231480   -0.5636020   -2.0016170  
C    -6.7163870    0.0267950   -1.0428890  
O    -6.4655470    0.5627970   -2.1184090  
C    -5.7543200    0.0185410    0.0999780  
H    -4.5234290   -0.6172710    2.8209750  
H    -9.3526700   -1.8388250    0.3091350  
H    -8.3000880   -0.0427460   -2.6494000  
H    -6.3267230   -2.0645880    4.1885480  
