60


C    -2.4483440    0.8484230    0.2041870  
C    -1.1055320    1.0924540    0.4797500  
C    -0.6768410    2.1824610   -0.3255690  
C    -1.8123410    2.6114750   -1.0720120  
N    -2.8537430    1.7581060   -0.7801260  
C    -1.7962260    3.7227880   -1.9133680  
C    -0.6044790    4.4304590   -1.9887930  
O    -0.5175860    5.5328910   -2.7718800  
C     0.5506830    4.0303130   -1.2591730  
O     1.6412820    4.8394080   -1.4836160  
C     0.5616820    2.8909990   -0.4512240  
H    -0.5166980    0.5175300    1.1734750  
H    -3.8220420    1.9916660   -0.9410960  
H    -2.6619600    4.0549650   -2.4767330  
H     0.3899520    5.8738140   -2.6457030  
H     2.0475260    5.0197850   -0.6069310  
C     2.6099040   -1.0829090   -0.0250030  
C     1.7742730   -0.0755830   -0.4439910  
C     2.1956030    1.1105080    0.2571320  
C     3.3455480    0.6499220    1.0911520  
N     3.5834200   -0.6149540    0.9386380  
C     4.0765050    1.5493200    1.9483480  
C     3.7095730    2.8485350    1.9345840  
O     4.3164800    3.8085740    2.6540040  
C     2.5952280    3.3493320    1.0568620  
O     2.4302220    4.5814230    1.0577070  
C     1.7698290    2.4158520    0.2569670  
H     0.9783710   -0.1607230   -1.1635190  
H     4.8951710    1.1821780    2.5565490  
H     3.8633960    4.6449560    2.4130350  
C     0.1837380   -3.1792430   -3.0246470  
C     0.6502920   -4.4445190   -2.9396440  
C     1.6825700   -4.3970490   -1.9137510  
C     1.7056460   -2.9623020   -1.4673670  
N     0.8263470   -2.2679680   -2.1272590  
C     2.6207850   -2.4725080   -0.4295740  
C     3.4598000   -3.4318670    0.1069620  
O     4.3608150   -3.2246140    1.0622160  
C     3.4397890   -4.8755320   -0.3399660  
O     4.2318060   -5.6418520    0.2085240  
C     2.5067570   -5.3172940   -1.3828670  
H     0.3420180   -5.3158120   -3.5002470  
H     4.7768510   -4.1069520    1.2128590  
H     2.5328400   -6.3644100   -1.6684620  
H    -0.5931710   -2.7932020   -3.6734810  
C    -6.2939350   -0.9162610   -1.2461510  
C    -5.1079700   -0.2548460   -1.1696170  
C    -4.5304180   -0.5333760    0.1320860  
C    -5.4816460   -1.4360140    0.8054950  
N    -6.5392220   -1.6046630   -0.0665060  
C    -5.3217480   -1.9877880    2.0429930  
C    -4.1023900   -1.6977490    2.7592720  
O    -3.8339400   -2.1393370    3.8687090  
C    -3.0399200   -0.7591960    2.0687600  
O    -1.9888760   -0.5796880    2.6557140  
C    -3.3542780   -0.1329230    0.7451350  
H    -4.6578940    0.3095660   -1.9713930  
H    -6.0574270   -2.6394840    2.5036600  
H    -7.0013140   -0.9686370   -2.0627330  
H    -7.3276810   -2.2086220    0.1046680  
