60


C    -2.2140390    2.0911320    0.0969690  
C    -3.3702710    2.1801100    0.8679850  
C    -3.8169950    0.8534230    1.1243870  
C    -2.9109070   -0.0284840    0.4680150  
N    -1.9703860    0.7497650   -0.1596390  
C    -3.0510370   -1.4366370    0.5006320  
C    -4.1033050   -1.9240910    1.2870720  
O    -4.2421300   -3.2611100    1.4688790  
C    -5.0081950   -1.0511700    1.9509890  
O    -5.9817710   -1.7157380    2.6677050  
C    -4.8894040    0.3190810    1.8686250  
H    -3.7804660    3.0840940    1.2968920  
H    -1.1093120    0.4385710   -0.5915580  
H    -5.0505400   -3.4048320    1.9917760  
H    -6.5654580   -1.0756150    3.1008720  
H    -5.5937170    0.9693780    2.3829630  
C     1.4002040   -2.0934760   -0.1086670  
C     0.2082470   -1.5695760    0.3262310  
C    -0.8255390   -2.3796910   -0.2785640  
C    -0.0584370   -3.4096500   -1.0505900  
N     1.2270340   -3.2603980   -0.9256570  
C    -0.7138780   -4.4365460   -1.8188160  
C    -2.0635680   -4.4186070   -1.8573360  
O    -2.8121280   -5.2867250   -2.5572190  
C    -2.8692130   -3.3660730   -1.1399710  
O    -4.0755420   -3.3499320   -1.3691970  
C    -2.1920200   -2.3725080   -0.2487860  
H     0.0775070   -0.7323510    0.9952750  
H    -0.1244280   -5.1731730   -2.3529200  
H    -3.7379350   -4.9784010   -2.4383030  
C     2.7268390   -1.5730540    0.1245960  
C     3.0802450   -0.2579170    0.2715770  
C     4.5186370   -0.2628650    0.4327410  
C     4.8942040   -1.7114300    0.3680790  
N     3.8587920   -2.4712550    0.1774730  
C     6.2664320   -2.1365320    0.5056070  
C     7.2076260   -1.1789050    0.6731110  
O     8.5210830   -1.4238550    0.8097300  
C     6.8579570    0.2893590    0.7212030  
O     7.7852320    1.0845090    0.8773820  
C     5.4528590    0.7020710    0.5882740  
H     2.4485430    0.6143180    0.1711270  
H     6.5153420   -3.1910710    0.4638830  
H     8.9364730   -0.5380330    0.9091920  
H     5.2326440    1.7647180    0.6232000  
C    -2.7870970    6.3846420   -0.6824290  
C    -1.4932380    6.7435700   -0.8921160  
C    -0.6883520    5.5470950   -0.7806870  
C    -1.6301320    4.4518050   -0.4777270  
N    -2.8823320    5.0277350   -0.3885980  
C    -1.2912420    3.1276810   -0.3241330  
C     0.1261250    2.8149460   -0.5789050  
O     0.5491600    1.6677930   -0.6699360  
C     1.1663550    3.9853700   -0.7394520  
O     2.3534460    3.6890040   -0.7364560  
C     0.6574610    5.3357120   -0.8875230  
H    -1.1285210    7.7384030   -1.1024400  
H     1.3678430    6.1381710   -1.0569890  
H    -3.6811250    6.9937980   -0.6990170  
H    -3.7353440    4.4868120   -0.4084450  
