58


C    -2.7810030   -1.0255570    1.3082050  
C    -1.5446400   -0.4924700    1.1131340  
C    -1.6235040    0.3414140   -0.0586250  
C    -3.0194920    0.2515540   -0.5437470  
N    -3.6876090   -0.6040800    0.3383880  
C    -3.5106090    0.9370580   -1.6028600  
C    -2.6033550    1.8108690   -2.3457860  
O    -2.9639790    2.5036550   -3.2812830  
C    -1.0948630    1.8700280   -1.9112280  
O    -0.3044200    2.5174610   -2.5738820  
C    -0.6998890    1.1177980   -0.7048780  
H    -0.6745780   -0.6589330    1.7305880  
H    -4.5395820    0.8697720   -1.9357150  
H    -3.1184450   -1.7052300    2.0794110  
C    -7.0647210   -0.3119180    3.1175030  
C    -5.8504300   -0.1752750    2.5146700  
C    -5.9296990   -0.8527780    1.2441820  
C    -7.3032730   -1.4071310    1.1508510  
N    -7.9331730   -1.0476180    2.3295570  
C    -7.7917370   -2.1005110    0.0930230  
C    -6.9076460   -2.3377940   -1.0449750  
O    -7.2607140   -2.9165920   -2.0577250  
C    -5.4243260   -1.8215410   -0.9593860  
O    -4.6475510   -2.0890800   -1.8583740  
C    -5.0283100   -1.0417540    0.2311910  
H    -5.0000300    0.3602450    2.9088590  
H    -8.8056790   -2.4843250    0.0440500  
H    -7.3970690    0.0703340    4.0737110  
H    -8.8948980   -1.2517200    2.5535480  
C     1.5102160    0.0543140   -0.3231030  
C     2.7874810    0.3880710    0.0428950  
C     2.7745730    1.8206150    0.3302770  
C     1.3868190    2.2753550    0.0861720  
N     0.6569690    1.1435930   -0.3015800  
C     0.9502300    3.5420320    0.2727300  
C     1.9094220    4.5482530    0.7333620  
O     1.6025980    5.7120420    0.9313550  
C     3.3858510    4.0905510    1.0018200  
O     4.2012980    4.9077340    1.3956190  
C     3.7260950    2.6799500    0.7800470  
H    -0.0725350    3.8542110    0.0957420  
H     4.7383340    2.3714200    1.0192740  
H     1.1329100   -0.9064010   -0.6475630  
C     3.9036390   -0.5294680    0.1017160  
C     3.9115530   -1.8798980    0.3412580  
C     5.2695460   -2.3455850    0.2498080  
C     6.0897130   -1.1515460   -0.0710460  
N     5.2161230   -0.0736030   -0.0950030  
C     7.4267220   -1.1761380   -0.2883130  
C     8.1249820   -2.4565190   -0.1706100  
O     9.3279000   -2.5725610   -0.3448520  
C     7.2822290   -3.7293990    0.2079440  
O     7.8554250   -4.8033560    0.3202960  
C     5.8421360   -3.5729810    0.3994070  
H     3.0529390   -2.4779740    0.6118960  
H     8.0108600   -0.2938890   -0.5319170  
H     5.2672110   -4.4614580    0.6425040  
H     5.4276880    0.7938750   -0.5669630  
