58


C    -3.1053690   -1.3257760   -0.1348400  
C    -3.9568420   -0.3148140    0.2722410  
C    -5.3007580   -0.8094770    0.2153380  
C    -5.2018560   -2.2120490   -0.2579920  
N    -3.8616890   -2.4538560   -0.4596270  
C    -6.2674500   -3.0347950   -0.4326900  
C    -7.6019360   -2.5168610   -0.1436600  
O    -8.6180160   -3.1827270   -0.2715390  
C    -7.7301800   -1.0307870    0.3557400  
O    -8.8389260   -0.5792840    0.6019810  
C    -6.5069180   -0.2427990    0.5077310  
H    -3.6629500    0.6579320    0.6303130  
H    -6.1785420   -4.0600870   -0.7777270  
H    -6.6071720    0.7813080    0.8548910  
H    -3.4279940   -3.3426000   -0.6703620  
C     0.0960230    1.8434950   -0.2058020  
C    -1.1411320    1.2076590   -0.2168960  
C    -0.8683220   -0.1903430   -0.2002280  
C     0.6305330   -0.2715400   -0.1590320  
N     1.1696620    0.9116610   -0.1496520  
C     1.3643900   -1.5310430   -0.1278210  
C     0.5783780   -2.6565380   -0.2345710  
O     1.0446040   -3.8985770   -0.3232940  
C    -0.9258540   -2.6018290   -0.3194540  
O    -1.4865020   -3.6975400   -0.4727800  
C    -1.6571230   -1.3245460   -0.2159210  
H    -2.1010500    1.6624880   -0.4095560  
H     0.2467700   -4.4698790   -0.4144190  
C    -2.2282700    5.2304000    1.3177410  
C    -1.3969820    6.2470060    0.9833060  
C    -0.2468680    5.6596900    0.3266640  
C    -0.4882940    4.2021850    0.2863900  
N    -1.7058670    4.0095990    0.8812670  
C     0.3869460    3.2521240   -0.2168600  
C     1.6590940    3.7798600   -0.7854350  
O     2.4815670    3.0965010   -1.3618360  
C     1.9386510    5.3253590   -0.7014090  
O     3.0133190    5.7463820   -1.0926540  
C     0.8998680    6.2044800   -0.1602570  
H    -1.5515940    7.2983040    1.1768200  
H     1.1028350    7.2707960   -0.1328180  
H    -3.1797510    5.2522440    1.8314830  
H    -2.0522800    3.0977150    1.1453640  
C     2.8133760   -1.5507660   -0.0358620  
C     3.6900240   -0.5190890   -0.2516720  
C     5.0064200   -1.0775880   -0.0314470  
C     4.7493490   -2.5050380    0.3374500  
N     3.4813830   -2.7803750    0.3344760  
C     5.8288040   -3.4087560    0.6509190  
C     7.0908120   -2.9237650    0.5906280  
O     8.1918030   -3.6451460    0.8505830  
C     7.3804400   -1.4891710    0.2151700  
O     8.5611020   -1.1418870    0.1898140  
C     6.2640480   -0.5840290   -0.0937010  
H     3.4499960    0.4949490   -0.5311270  
H     5.6170040   -4.4380400    0.9181340  
H     8.9425720   -3.0225720    0.7231790  
H     6.5081170    0.4412960   -0.3542400  
