58


C     4.5003420   -0.3357900   -0.0536430  
C     5.0746560    0.9133900   -0.1955140  
C     6.4982350    0.7446400   -0.2597860  
C     6.7450820   -0.7139750   -0.1391250  
N     5.5063330   -1.3045590   -0.0347680  
C     7.9781830   -1.2823160   -0.1407190  
C     9.1439500   -0.4142980   -0.2747180  
O    10.2912580   -0.8348270   -0.2883880  
C     8.9050980    1.1351470   -0.4094600  
O     9.8704550    1.8760090   -0.5259240  
C     7.5283830    1.6290260   -0.3899700  
H     4.5594890    1.8606460   -0.1819200  
H     8.1410280   -2.3515440   -0.0486370  
H     7.3752030    2.7003770   -0.4796190  
H     5.3048300   -2.2660760    0.2092190  
C     0.6888220    1.7229320   -1.1021490  
C     1.9980600    1.3611630   -0.9939290  
C     2.0505480    0.1139330   -0.2800680  
C     0.6456450   -0.2383960    0.0190580  
N    -0.1462450    0.7953430   -0.4902540  
C     0.2374150   -1.3558030    0.6735870  
C     1.2568700   -2.3129580    1.0734030  
O     1.0105090   -3.3441450    1.6780210  
C     2.7487690   -2.0185820    0.6852950  
O     3.5591040   -2.9166250    0.8760010  
C     3.1037660   -0.7026920    0.1024000  
H     2.8295860    1.8954910   -1.4235890  
H    -0.7999210   -1.5768820    0.9035150  
H     0.2542290    2.5823420   -1.5948410  
C    -2.4211590   -0.1141190   -0.7522960  
C    -1.5477190    0.8724780   -0.4161630  
C    -2.3145940    1.9929690    0.0967810  
C    -3.7320740    1.5674790    0.0296460  
N    -3.7372950    0.2665470   -0.5000440  
C    -4.7645510    2.3265310    0.4649650  
C    -4.4742060    3.6580660    1.0076150  
O    -5.3494900    4.4055600    1.4103940  
C    -2.9793450    4.1290940    1.0696910  
O    -2.7189100    5.2337590    1.5159460  
C    -1.9480660    3.2035470    0.5895540  
H    -5.7996560    2.0154830    0.4190300  
H    -0.9126420    3.5196770    0.6691660  
H    -2.2154240   -1.0939690   -1.1529150  
C    -3.9316960   -3.7689440    1.0184660  
C    -5.2097040   -4.1074970    0.7374580  
C    -5.7844920   -2.9404930    0.0732900  
C    -4.6604650   -1.9576250    0.0419830  
N    -3.5861150   -2.4422520    0.5875480  
C    -4.8202590   -0.6339560   -0.5440310  
C    -6.0290950   -0.3366210   -1.0982830  
O    -6.3111310    0.8277510   -1.7003860  
C    -7.1703020   -1.3099830   -1.0659820  
O    -8.2238710   -0.9546640   -1.5898220  
C    -6.9889760   -2.6396320   -0.4477870  
H    -5.7183050   -5.0360250    0.9554090  
H    -7.2490180    0.7510500   -1.9898760  
H    -7.8433430   -3.3092320   -0.4561780  
H    -3.1689090   -4.3597260    1.5097300  
