60


C     1.6539790   -0.4997480   -0.9780670  
C     2.9235000   -0.0017520   -0.8634090  
C     2.8346680    1.3093800   -0.2702700  
C     1.4597720    1.5584230   -0.0524480  
N     0.7448010    0.4429240   -0.5122670  
C     1.0070480    2.7263550    0.5701710  
C     1.9580020    3.6618880    0.9508110  
O     1.5621190    4.8149060    1.5610690  
C     3.3386080    3.4328600    0.7168490  
O     4.1556620    4.4575380    1.1447520  
C     3.7856090    2.2712380    0.1133830  
H    -0.0393180    2.9300480    0.7535260  
H     2.3649670    5.3264470    1.7619510  
H     5.0843090    4.2022650    1.0389080  
H     4.8474530    2.1004560   -0.0443070  
H     1.3144740   -1.4565100   -1.3399200  
C    -1.4908850   -2.9954880    0.8304680  
C    -2.7705590   -2.5758110    0.6722750  
C    -2.6680350   -1.2193440    0.1434600  
C    -1.2001100   -0.9899540    0.0400030  
N    -0.5211100   -2.0268030    0.4426890  
C    -0.6488050    0.2539180   -0.4777820  
C    -1.5425870    1.1882920   -0.9108790  
O    -1.1894140    2.3660290   -1.4492360  
C    -3.0198660    1.0077550   -0.7570530  
O    -3.7281160    1.9706720   -1.0320850  
C    -3.5797360   -0.2887690   -0.2455250  
H    -3.6794290   -3.1317230    0.8542820  
H    -2.0342190    2.8461460   -1.6012220  
H    -1.1430120   -3.9559380    1.1912790  
C    -6.2709120   -1.3449120    3.1040320  
C    -7.4649280   -1.2181230    2.4743820  
C    -7.1890170   -0.8522920    1.1000130  
C    -5.7106870   -0.7771670    0.9802600  
N    -5.2182160   -1.0831530    2.2268490  
C    -5.0366960   -0.4180920   -0.1595750  
C    -5.8527950   -0.1785280   -1.3699560  
O    -5.3585270   -0.0111430   -2.4706070  
C    -7.4157970   -0.2079280   -1.2428570  
O    -8.0893740    0.0737630   -2.2196080  
C    -8.0024470   -0.5818630    0.0454480  
H    -8.4423740   -1.3571320    2.9122830  
H    -9.0853510   -0.6129980    0.1169010  
H    -6.0567820   -1.6037940    4.1323360  
H    -4.2373610   -1.1534260    2.4532120  
C     4.3849710   -1.0213610   -2.6129850  
C     5.5858900   -1.6453900   -2.7153180  
C     6.1523300   -1.7038360   -1.3858260  
C     5.1600330   -1.0591160   -0.4882220  
N     4.0996620   -0.6552970   -1.2938280  
C     5.3117690   -0.9299930    0.8548670  
C     6.5375940   -1.4372070    1.4650420  
O     6.7681370   -1.3565140    2.6627550  
C     7.6087080   -2.1138040    0.5314080  
O     8.6410900   -2.5390180    1.0277580  
C     7.3194280   -2.2058280   -0.9005240  
H     6.0385300   -2.0216730   -3.6212430  
H     4.5664130   -0.4686570    1.4933200  
H     8.0602800   -2.6835650   -1.5346760  
H     3.6645560   -0.7763200   -3.3821750  
