60


C     1.2035010   -2.5261090   -1.0420000  
C     2.5070810   -2.1672960   -0.8189640  
C     2.4997630   -0.7954970   -0.4022190  
C     1.1463520   -0.3753730   -0.3835020  
N     0.3788730   -1.4558480   -0.7588990  
C     0.7389050    0.9461350   -0.0721920  
C     1.7813730    1.8560520    0.1610120  
O     1.5005170    3.1617480    0.4523130  
C     3.1383320    1.4620980    0.1507080  
O     3.9968420    2.4882140    0.4638430  
C     3.5303620    0.1410270   -0.1084930  
H     3.3702210   -2.7999350   -0.9609950  
H    -0.6002870   -1.3977050   -0.9958010  
H     2.3494430    3.6030710    0.6414270  
H     4.9053030    2.1391390    0.5631790  
H     0.7868020   -3.4648210   -1.3780010  
C    -0.6658800    1.3234420    0.0046060  
C    -1.7680160    0.5344740    0.2593140  
C    -2.9405190    1.3654780    0.2145930  
C    -2.4548140    2.7289490   -0.0978820  
N    -1.0851390    2.6348980   -0.2116490  
C    -3.2459030    3.8235450   -0.2466190  
C    -4.6816530    3.6514100   -0.1063360  
O    -5.4874750    4.5591840   -0.2443830  
C    -5.2312310    2.2165100    0.2369760  
O    -6.4355310    2.0825430    0.3807050  
C    -4.2786790    1.0917150    0.3927510  
H    -1.7518000   -0.5131710    0.5144710  
H    -2.8609540    4.8118060   -0.4769460  
H    -0.4436290    3.4115570   -0.2780530  
C    -4.2413690   -0.9930040    1.7985550  
C    -4.7722000   -0.2264510    0.7980020  
C    -5.8851050   -1.0047760    0.2390620  
C    -5.9303470   -2.2761550    1.0028270  
N    -4.9007820   -2.2055430    1.9235870  
C    -6.8210700   -3.2786570    0.7949580  
C    -7.8023370   -3.1216590   -0.2729880  
O    -8.6402910   -3.9689180   -0.5418870  
C    -7.7555110   -1.7986130   -1.1193550  
O    -8.5430210   -1.6579580   -2.0404790  
C    -6.7560000   -0.7772170   -0.7754160  
H    -6.8333680   -4.1957230    1.3761720  
H    -6.7699090    0.1453460   -1.3433580  
H    -3.4278760   -0.7498520    2.4693440  
H    -4.7497430   -2.8723370    2.6647500  
C     4.9308230   -0.2482410   -0.0508850  
C     5.5084860   -1.4065080    0.3852810  
C     6.9409770   -1.2783780    0.2868680  
C     7.1919660    0.0697490   -0.2650820  
N     5.9414070    0.7063550   -0.3866370  
C     8.4134100    0.5544570   -0.5753630  
C     9.5832330   -0.2946750   -0.3166780  
O    10.7217580    0.0636990   -0.5649230  
C     9.3438290   -1.7099970    0.3218790  
O    10.3085660   -2.4198440    0.5599530  
C     7.9653720   -2.1213750    0.5907840  
H     4.9782150   -2.2502210    0.8030160  
H     8.5818100    1.5444300   -0.9886140  
H     7.8073350   -3.1102320    1.0101470  
H     5.7882150    1.2799020   -1.2118780  
