58


C     1.9390790   -0.4171250    0.0916750  
C     3.2296100    0.0220830    0.0415060  
C     3.1610160    1.4606150   -0.2298250  
C     1.7231140    1.7949840   -0.3500200  
N     1.0179140    0.6060410   -0.1314340  
C     1.2392300    3.0391000   -0.5779310  
C     2.1920710    4.1335430   -0.7535440  
O     1.8472320    5.2884390   -0.9492110  
C     3.7222110    3.7947670   -0.6791730  
O     4.5369070    4.6857650   -0.8552010  
C     4.1157750    2.4098620   -0.3902570  
H     0.1823910    3.2652840   -0.6575270  
H     5.1742020    2.2025620   -0.2863810  
H     1.5743790   -1.4184980    0.2768680  
C    -1.6539890   -1.0013580    2.9361950  
C    -0.5734420   -0.5155650    2.2668040  
C    -1.0343510   -0.0889900    0.9656600  
C    -2.4857780   -0.3639360    0.9267420  
N    -2.8017950   -0.9003960    2.1637250  
C    -3.3191460   -0.1228560   -0.1299590  
C    -2.7040560    0.5045300   -1.3176960  
O    -3.3538240    0.9159650   -2.2603440  
C    -1.1469910    0.7158140   -1.3490090  
O    -0.6232830    1.0740470   -2.3875360  
C    -0.3815060    0.4464350   -0.1144930  
H     0.4346010   -0.4428250    2.6465840  
H    -1.7116200   -1.4094660    3.9366010  
H    -3.7009560   -1.2957550    2.3929780  
C    -6.6639600    1.2716530    2.3991070  
C    -7.6813540    0.5861570    1.8217920  
C    -7.1163210   -0.2062840    0.7476610  
C    -5.6609740    0.0761320    0.7524730  
N    -5.4403810    0.9443940    1.8093610  
C    -4.7578370   -0.4323710   -0.1379950  
C    -5.2834240   -1.3741020   -1.1528380  
O    -4.5581420   -1.9690630   -1.9291900  
C    -6.8268790   -1.6678480   -1.1827540  
O    -7.2636920   -2.4116640   -2.0455000  
C    -7.6745430   -1.0434840   -0.1664020  
H    -8.7233290    0.6236410    2.1045020  
H    -8.7386360   -1.2566760   -0.1952390  
H    -6.6889280    1.9772750    3.2190760  
H    -4.6004540    1.4972420    1.9024460  
C     4.3715680   -3.8523040   -1.7934480  
C     3.7474750   -2.6893010   -1.4704950  
C     4.5583700   -2.0236530   -0.4726610  
C     5.7273380   -2.9071160   -0.2429080  
N     5.5389510   -4.0081650   -1.0553550  
C     6.7583630   -2.6363850    0.5996040  
C     6.7254860   -1.3843130    1.3366380  
O     7.6077150   -1.0276890    2.1024610  
C     5.4841540   -0.4358350    1.1388780  
O     5.4323990    0.5887530    1.7982260  
C     4.4146190   -0.8275790    0.1879450  
H     2.8310990   -2.3185350   -1.9036990  
H     7.6058480   -3.2996010    0.7416660  
H     4.0814520   -4.6098090   -2.5093850  
H     6.2050870   -4.7559870   -1.1698300  
