60


C     1.4869240   -2.3118060    1.3587980  
C     2.7553640   -1.8930500    1.0528380  
C     2.6473830   -0.5590870    0.5223030  
C     1.2683910   -0.2287830    0.5316840  
N     0.5873610   -1.3204450    1.0257920  
C     0.7645420    1.0417780    0.1501770  
C     1.7496200    1.9911940   -0.1583100  
O     1.4062250    3.2686910   -0.4847480  
C     3.1333180    1.6801340   -0.1871960  
O     3.9117530    2.7375820   -0.5800150  
C     3.6156280    0.4000070    0.0955940  
H     3.6626440   -2.4522470    1.2287290  
H    -0.3899690   -1.3141710    1.2792600  
H     2.2552310    3.7333340   -0.6412040  
H     4.7270500    2.7242780   -0.0163770  
H     1.1443990   -3.2405620    1.7922710  
C    -0.6590620    1.3307490    0.1102580  
C    -1.7231240    0.4553740    0.0238640  
C    -2.9367320    1.2192120    0.0194260  
C    -2.5220270    2.6395050    0.0903010  
N    -1.1461460    2.6359030    0.1725350  
C    -3.3747470    3.6956280    0.0572300  
C    -4.8026370    3.4253080   -0.0502520  
O    -5.6459260    4.3062510   -0.1202930  
C    -5.2782220    1.9276470   -0.0551570  
O    -6.4735520    1.6964110    0.0065780  
C    -4.2587160    0.8529470   -0.0623350  
H    -1.6637460   -0.6104610   -0.1275200  
H    -3.0457110    4.7296020    0.0887750  
H    -0.5438280    3.4426070    0.0885290  
C    -3.6570270   -2.6688090    2.6055630  
C    -3.6260510   -1.4314040    2.0454330  
C    -4.3912170   -1.4933110    0.8129440  
C    -4.8795300   -2.8874400    0.7068520  
N    -4.3700120   -3.5565290    1.8065780  
C    -5.6895530   -3.3604300   -0.2759920  
C    -6.1087320   -2.4379860   -1.3203620  
O    -6.8646470   -2.7488830   -2.2283540  
C    -5.5382580   -0.9741020   -1.2847790  
O    -5.7309160   -0.2530590   -2.2451640  
C    -4.7127950   -0.5426310   -0.1196150  
H    -3.1521590   -0.5532690    2.4569260  
H    -6.0565430   -4.3816830   -0.3090540  
H    -3.2243300   -3.0123990    3.5361820  
H    -4.6344210   -4.4916960    2.0746420  
C     5.4835830   -3.0495720   -1.8794990  
C     6.7889400   -2.8233240   -1.5919230  
C     6.8514500   -1.5901280   -0.8344710  
C     5.4495950   -1.1151300   -0.6961020  
N     4.6796270   -2.0348540   -1.3605430  
C     5.0441480    0.0320690   -0.0444840  
C     6.1304730    0.8718680    0.4532670  
O     5.9714440    2.0137250    0.8920490  
C     7.6101620    0.3387760    0.4241370  
O     8.4701120    0.9959220    0.9849370  
C     7.8891590   -0.9034480   -0.2910070  
H     7.6302320   -3.4347360   -1.8831480  
H     8.9190860   -1.2411900   -0.3442440  
H     5.0290000   -3.8600330   -2.4333720  
H     3.6698090   -2.0295600   -1.3559670  
