58


C    -3.4100220    0.4843760   -1.5298540  
C    -3.0705070   -0.4024330   -0.5370920  
C    -4.3394820   -0.9452590   -0.0280010  
C    -5.4124520   -0.2850450   -0.8115350  
N    -4.7715860    0.5642280   -1.7010730  
C    -6.7419740   -0.4949190   -0.6542470  
C    -7.1763300   -1.4303710    0.3806770  
O    -8.3493080   -1.6866260    0.5985780  
C    -6.0658860   -2.1182760    1.2499290  
O    -6.3980240   -2.8825660    2.1399230  
C    -4.6546320   -1.8165670    0.9623100  
H    -7.5000360    0.0058950   -1.2485940  
H    -3.9082370   -2.3341170    1.5511940  
H    -2.7460170    1.0555030   -2.1646250  
H    -5.2352160    1.0836150   -2.4312330  
C     0.5573040    2.1626370    0.0627410  
C    -0.7382880    1.7543010   -0.1540570  
C    -0.7291300    0.3131370   -0.0595810  
C     0.6906870   -0.0130720    0.2066300  
N     1.4360690    1.0486330    0.2616930  
C     1.1527070   -1.3817630    0.3968210  
C     0.1909740   -2.3504600    0.4152520  
O     0.4423400   -3.6457800    0.6771760  
C    -1.2424470   -2.0531970    0.1417660  
O    -2.0172130   -3.0137680    0.1614310  
C    -1.6949560   -0.6570890   -0.1335940  
H    -1.6118480    2.3833300   -0.2455480  
H    -0.4280180   -4.0970610    0.5950940  
C    -0.4112000    5.9716710   -2.0332380  
C    -0.3848730    4.6760830   -1.6120220  
C     0.6379880    4.5672010   -0.6005670  
C     1.2251620    5.9193390   -0.4731580  
N     0.5264710    6.7277270   -1.3516360  
C     2.2684100    6.2508240    0.3316780  
C     2.8673950    5.1986770    1.1390120  
O     3.8539930    5.3685110    1.8376180  
C     2.1956680    3.7783090    1.1229680  
O     2.5565660    2.9751980    1.9628440  
C     1.1047060    3.5015890    0.1427280  
H    -1.0008010    3.8751010   -1.9883730  
H     2.6961640    7.2475370    0.3776410  
H    -1.0362620    6.4355680   -2.7847630  
H     0.7346590    7.6984510   -1.5271420  
C     3.3700620   -0.8317020    1.3831220  
C     4.6336780   -1.3176990    1.3850920  
C     4.6654820   -2.4788120    0.5273580  
C     3.2850320   -2.6487420    0.0109360  
N     2.5190440   -1.6278850    0.5889180  
C     2.9315560   -3.5897370   -0.8981360  
C     3.9540660   -4.5276540   -1.3657470  
O     3.7167000   -5.4012710   -2.1855570  
C     5.4083660   -4.3956020   -0.7906130  
O     6.2657520   -5.1837550   -1.1590200  
C     5.6729960   -3.3115090    0.1550080  
H     5.4712820   -0.8989400    1.9240970  
H     1.9303520   -3.7017080   -1.2914420  
H     6.6893270   -3.1950340    0.5189310  
H     2.9678550    0.0439910    1.8699880  
