58


C     5.8678200   -2.2129170    0.0174000  
C     7.2086160   -2.0434580   -0.0511080  
C     7.4660750   -0.6226220   -0.1328670  
C     6.1359480    0.0384890   -0.1140150  
N     5.1913780   -0.9766020    0.0107170  
C     5.9557940    1.3828350   -0.2306790  
C     7.1355490    2.2395260   -0.3445050  
O     7.0618720    3.4540750   -0.4510540  
C     8.5509350    1.5601260   -0.3208770  
O     9.5471630    2.2626860   -0.3812180  
C     8.6126080    0.0985310   -0.2322440  
H     7.9519810   -2.8273890   -0.0535660  
H     4.9819980    1.8553290   -0.2929570  
H     9.5937640   -0.3658890   -0.2585860  
H     5.2877520   -3.1214040    0.0693250  
C     2.7049110    1.5687890    2.5318940  
C     1.4872190    1.2252930    2.0392990  
C     1.6931690    0.2357930    1.0031990  
C     3.1519430    0.0277530    0.9385350  
N     3.7090270    0.8513150    1.8868770  
C     3.7892170   -0.8393260    0.0818450  
C     2.9489360   -1.6874030   -0.7519070  
O     3.3872410   -2.5572210   -1.4903400  
C     1.3845140   -1.5064580   -0.6715800  
O     0.7154770   -2.2555000   -1.3605830  
C     0.8016340   -0.4646430    0.2104580  
H     0.5358370    1.5929740    2.3897000  
H     2.9615590    2.2636660    3.3196520  
H     4.6995860    1.0219430    1.9808870  
C    -1.2024120    1.0591980    0.3225790  
C    -0.6198290   -0.1757160    0.1725640  
C    -1.7804740   -1.0861120    0.0064980  
C    -2.9637740   -0.1818650    0.0884540  
N    -2.6057070    1.0620650    0.2752220  
C    -4.3258520   -0.6650120    0.0003280  
C    -4.4856750   -2.0141920   -0.0972130  
O    -5.6758790   -2.6215600   -0.1779650  
C    -3.3158540   -2.9530930   -0.1499190  
O    -3.5557870   -4.1556040   -0.2389640  
C    -1.9393500   -2.4176920   -0.1017130  
H    -5.4737460   -3.5817910   -0.2426770  
H    -1.1286640   -3.1311320   -0.1749000  
H    -0.6888180    2.0071380    0.4276640  
C    -5.5036190    2.5037860   -2.7962250  
C    -6.5981420    3.0300230   -2.2016220  
C    -6.7836260    2.2430400   -0.9858960  
C    -5.6488440    1.2636930   -1.0110940  
N    -4.9165270    1.4115760   -2.0733320  
C    -5.4669610    0.2737540    0.0377820  
C    -6.4044730    0.2519880    1.0227580  
O    -6.3810520   -0.6001670    2.0576810  
C    -7.5586590    1.2190440    1.0627550  
O    -8.3423610    1.1235990    2.0057670  
C    -7.7030960    2.2269480   -0.0021420  
H    -7.2211120    3.8455070   -2.5415870  
H    -7.1719750   -0.3732640    2.5962650  
H    -8.5534990    2.8990070    0.0614910  
H    -5.0407500    2.8057640   -3.7281520  
