60


C    -1.1604060   -2.9050560    0.0512730  
C    -2.2715500   -3.7396470   -0.0267910  
C    -3.4078320   -2.9079250   -0.1774290  
C    -2.9476390   -1.5501510   -0.1730130  
N    -1.5936850   -1.5904880   -0.0086290  
C    -3.8241360   -0.4316200   -0.2667340  
C    -5.1712380   -0.7687510   -0.4341800  
O    -6.1236640    0.2132450   -0.5652970  
C    -5.6373900   -2.1140180   -0.4549440  
O    -7.0075170   -2.2111860   -0.6141420  
C    -4.7851280   -3.1822290   -0.3168360  
H    -2.2572700   -4.8200810    0.0096330  
H    -0.9558720   -0.8287040   -0.1972850  
H    -6.9595670   -0.2383200   -0.7876090  
H    -7.2490760   -3.1269060   -0.8182800  
H    -5.1589690   -4.2031960   -0.3162990  
C     0.2378450   -3.1829130    0.1375580  
C     0.9060740   -4.3748520    0.2683100  
C     2.2957780   -4.0378820    0.2850870  
C     2.3311440   -2.5367310    0.1431820  
N     1.1265100   -2.0535930    0.0670680  
C     3.5808190   -1.7795210    0.1161150  
C     4.7227280   -2.5455070    0.2252520  
O     5.9645830   -2.0823570    0.1760490  
C     4.6988540   -4.0591060    0.3792810  
O     5.8013390   -4.6106670    0.4662360  
C     3.4355170   -4.7665030    0.4058580  
H     0.4837990   -5.3662490    0.3520820  
H     6.5291550   -2.8889570    0.2809120  
H     3.4594680   -5.8458260    0.5161140  
C     3.5866250   -0.3324760   -0.0188620  
C     2.5860660    0.4969680   -0.4534000  
C     3.1291840    1.8359050   -0.3907120  
C     4.5169110    1.6461620    0.1350910  
N     4.7843190    0.3955660    0.3502550  
C     5.3997180    2.7660940    0.3588680  
C     4.9294700    3.9993570    0.0652260  
O     5.6294550    5.1361460    0.2146650  
C     3.5319870    4.2183940   -0.4707580  
O     3.2029550    5.3849210   -0.6968610  
C     2.6482070    3.0671890   -0.6867490  
H     1.5986140    0.2226590   -0.7877070  
H     6.4004270    2.6022620    0.7431190  
H     5.0146030    5.8460130   -0.0808470  
H     1.6478050    3.2588300   -1.0633450  
C    -5.4061240    3.0373960    1.9894470  
C    -4.4658980    3.9659160    1.6865280  
C    -3.5140710    3.3333400    0.8007500  
C    -3.9836120    1.9324350    0.6191460  
N    -5.1114960    1.8059530    1.4048840  
C    -3.3630090    0.9750140   -0.1513990  
C    -2.1424920    1.4278670   -0.8420080  
O    -1.4554970    0.6984410   -1.5466110  
C    -1.6432040    2.9126230   -0.6698790  
O    -0.6309660    3.2454210   -1.2682420  
C    -2.3923340    3.8057650    0.1967670  
H    -4.4217730    4.9846060    2.0431630  
H    -2.0325390    4.8216160    0.3254310  
H    -6.2866600    3.1318590    2.6116940  
H    -5.8223580    1.1234160    1.1675440  
