60


C    -2.2516050   -0.6681890   -0.6944130  
C    -0.9282160   -0.3209620   -0.4596680  
C    -0.9091640    1.1251890   -0.3184620  
C    -2.2371930    1.5784050   -0.4686820  
N    -3.0452160    0.4544050   -0.7049190  
C    -2.5988100    2.9250820   -0.3605780  
C    -1.5840340    3.8369700   -0.1061540  
O    -1.8773030    5.1630460    0.0057800  
C    -0.2421430    3.3987190    0.0384980  
O     0.6575380    4.4141370    0.2896950  
C     0.1046910    2.0643970   -0.0613680  
H    -3.6209460    3.2732990   -0.4546780  
H    -1.0399720    5.6306350    0.1703500  
H     1.5521330    4.0428710    0.3346660  
H     1.1299430    1.7298570    0.0537950  
H    -2.6873310   -1.6385750   -0.8830010  
C     0.1807050   -1.2263710   -0.3807350  
C     0.2135170   -2.6009110   -0.4630540  
C     1.5851450   -2.9761040   -0.3167410  
C     2.3130850   -1.6674730   -0.1459790  
N     1.4916160   -0.6617430   -0.1828890  
C     3.7536180   -1.5971270    0.0241910  
C     4.4027590   -2.7977400    0.0406120  
O     5.7125380   -2.9288440    0.2373620  
C     3.6932070   -4.1324560   -0.1231410  
O     4.4143560   -5.1336780   -0.0818740  
C     2.2550180   -4.1606430   -0.3084200  
H    -0.6195140   -3.2755950   -0.6045590  
H     5.8797260   -3.9004170    0.1772660  
H     1.7796880   -5.1285600   -0.4303640  
C     3.4069930    1.9616990    2.6943370  
C     3.2563710    0.7486720    2.1089020  
C     4.1916060    0.6769440    1.0027980  
C     4.9196830    1.9691400    1.0026610  
N     4.3570720    2.7316240    2.0147020  
C     5.9409670    2.2901060    0.1679750  
C     6.3432800    1.3073890   -0.8266570  
O     7.2698360    1.4787130   -1.6040550  
C     5.5298500   -0.0361350   -0.9131750  
O     5.7757450   -0.7988300   -1.8294460  
C     4.4714500   -0.3101900    0.0976690  
H     2.5495290   -0.0151030    2.3915580  
H     6.4769260    3.2334030    0.2110970  
H     2.8913190    2.3801120    3.5487950  
H     4.8061560    3.5461970    2.4064130  
C    -5.1132920    1.2239710   -1.8232380  
C    -4.4336130    0.4570140   -0.9236770  
C    -5.4096170   -0.3517520   -0.2074130  
C    -6.7272380    0.0141620   -0.7811690  
N    -6.4750130    0.9773770   -1.7420230  
C    -7.9076430   -0.5260970   -0.3885000  
C    -7.8934550   -1.5288300    0.6754000  
O    -8.9046050   -2.0718540    1.0902770  
C    -6.5072040   -1.9161510    1.3090470  
O    -6.4744790   -2.7429020    2.2050780  
C    -5.2974330   -1.2641340    0.7915420  
H    -8.8644350   -0.2493170   -0.8203770  
H    -4.3462000   -1.5359720    1.2379480  
H    -4.7234310    1.9424340   -2.5310130  
H    -7.1795020    1.4352120   -2.2989840  
