60


C     0.7089630   -0.3305600   -0.3351410  
C     2.0712550   -0.6003120   -0.1828310  
C     2.7705330    0.6102230   -0.3792650  
C     1.7895150    1.6203820   -0.6465480  
N     0.5632460    1.0213670   -0.6161910  
C     2.1229480    2.9589310   -0.8807040  
C     3.4661090    3.2873220   -0.8440320  
O     3.8562000    4.5645720   -1.0812190  
C     4.4626880    2.3029460   -0.5596900  
O     5.7376360    2.8214740   -0.5708300  
C     4.1532950    0.9694180   -0.3218270  
H     2.4928990   -1.5736360    0.0183420  
H    -0.3435600    1.4469920   -0.7473260  
H     1.3842500    3.7238250   -1.0936140  
H     4.8292980    4.5848650   -1.0511370  
H     6.3804200    2.0969210   -0.5014460  
C    -0.4409720   -1.1616620   -0.2482500  
C    -0.5729310   -2.5043620    0.0299840  
C    -1.9737670   -2.7779910   -0.0047370  
C    -2.6003470   -1.4534320   -0.3346850  
N    -1.7116660   -0.5172680   -0.4773870  
C    -4.0371760   -1.3040410   -0.4671880  
C    -4.7899540   -2.4263230   -0.2934820  
O    -6.1187030   -2.4599180   -0.4027070  
C    -4.1785590   -3.7670580    0.0634940  
O    -4.9825500   -4.6961760    0.2018380  
C    -2.7408510   -3.8883360    0.1939180  
H     0.2162490   -3.2125690    0.2388120  
H    -6.3552500   -3.4002780   -0.2068320  
H    -2.3372610   -4.8646620    0.4406190  
C    -4.1652760    0.7857140   -1.8109190  
C    -4.8447850    1.9580740   -1.8314520  
C    -5.7686980    1.9430470   -0.7192580  
C    -5.5717750    0.6394810   -0.0365440  
N    -4.5874160   -0.0373280   -0.7582970  
C    -6.2329220    0.2631840    1.0858530  
C    -7.2167980    1.1823060    1.6549970  
O    -7.8531740    0.9273520    2.6663930  
C    -7.4589770    2.5567740    0.9321650  
O    -8.2849090    3.3309370    1.3917480  
C    -6.6692620    2.8534570   -0.2632970  
H    -4.7206930    2.7572520   -2.5479510  
H    -6.0806500   -0.6881220    1.5802670  
H    -6.8259500    3.8132390   -0.7464610  
H    -3.3879640    0.4272790   -2.4698780  
C     7.3114200    0.8132610    2.8069200  
C     6.2570220    1.1630400    2.0231920  
C     6.1117410    0.1372620    1.0104600  
C     7.1835010   -0.8548160    1.2796370  
N     7.8835410   -0.3738240    2.3699450  
C     7.3815410   -1.9979890    0.5756730  
C     6.4757840   -2.2845740   -0.5269100  
O     6.5435330   -3.2972300   -1.2052360  
C     5.3467090   -1.2375960   -0.8604740  
O     4.6238300   -1.4627170   -1.8146140  
C     5.2128390   -0.0181740   -0.0192020  
H     5.6340520    2.0359590    2.1424730  
H     8.1665020   -2.7131780    0.8009400  
H     7.7198050    1.3216440    3.6703970  
H     8.6421400   -0.8580780    2.8241670  
