60


C    -2.6378210    1.8957730    0.6286270  
C    -3.6142240    1.2547330   -0.0982500  
C    -3.0077700    0.1143740   -0.7350340  
C    -1.6473230    0.1177090   -0.3463440  
N    -1.4526010    1.2142860    0.4731000  
C    -0.7136080   -0.8392270   -0.8009790  
C    -1.2103990   -1.8169590   -1.6647080  
O    -0.3853050   -2.8017330   -2.1042590  
C    -2.5764710   -1.8319680   -2.0572300  
O    -2.8904120   -2.8724780   -2.9043850  
C    -3.4760680   -0.8849950   -1.6097370  
H    -0.5695780    1.4754950    0.8834950  
H    -0.8852100   -3.3415210   -2.7414350  
H    -3.8257600   -2.8252200   -3.1523180  
H    -4.5172050   -0.9144100   -1.9210810  
H    -2.7043570    2.7798370    1.2460640  
C     1.3844910   -0.9428000    3.1193110  
C     0.4541270   -0.9476520    2.1301140  
C     1.1622590   -0.8471180    0.8676600  
C     2.6007300   -0.7965990    1.2095090  
N     2.6681160   -0.8811800    2.5884600  
C     3.6377310   -0.7022690    0.3195630  
C     3.2606550   -0.6459920   -1.1017660  
O     4.0792270   -0.6094440   -2.0059550  
C     1.7349370   -0.6352220   -1.4889860  
O     1.4491610   -0.4382940   -2.6551620  
C     0.7142070   -0.8050600   -0.4268490  
H    -0.6143910   -1.0380910    2.2543110  
H     1.2478350   -1.0012390    4.1911130  
H     3.5143320   -0.7205210    3.1137960  
C     5.6318470   -1.6381290    1.5614100  
C     5.0495820   -0.7312720    0.7200850  
C     6.1157290    0.1929780    0.3185620  
C     7.3466560   -0.2624860    1.0086470  
N     6.9787810   -1.3671790    1.7553230  
C     8.5627670    0.3291450    0.8965370  
C     8.6802090    1.5143310    0.0530030  
O     9.7288330    2.1197270   -0.1070910  
C     7.3832140    2.0329200   -0.6678310  
O     7.4492610    3.0400680   -1.3529330  
C     6.1303920    1.2871700   -0.4822320  
H     9.4508900   -0.0293690    1.4079290  
H     5.2558030    1.6360370   -1.0190410  
H     5.1829230   -2.5015930    2.0358170  
H     7.6230190   -1.9635720    2.2511690  
C    -5.4021300    2.8187350   -0.8828790  
C    -6.7521260    2.9455140   -0.8262480  
C    -7.2583580    1.8113020   -0.0841450  
C    -6.0696490    1.0068020    0.2960620  
N    -4.9597200    1.6699690   -0.2178300  
C    -6.1193430   -0.1438100    1.0146550  
C    -7.4251330   -0.6376870    1.4419530  
O    -7.5698310   -1.6634310    2.0906720  
C    -8.7004130    0.1944950    1.0441860  
O    -9.8004630   -0.2084980    1.3903460  
C    -8.5125180    1.4243860    0.2717640  
H    -7.3407650    3.7412900   -1.2592320  
H    -5.2353100   -0.7113790    1.2841710  
H    -9.3987730    1.9937520    0.0079780  
H    -4.6663250    3.4551500   -1.3565460  
