62


C    -0.3796530   -0.0303390   -0.9490530  
C     0.0122210   -1.3602420   -0.9903850  
C    -1.1563040   -2.1655830   -0.8242060  
C    -2.2512070   -1.2706180   -0.6868560  
N    -1.7562870    0.0056850   -0.7612570  
C    -3.5728920   -1.7262800   -0.5198220  
C    -3.7811850   -3.1054860   -0.4995080  
O    -5.0449440   -3.5968490   -0.3468930  
C    -2.6927910   -4.0011300   -0.6513340  
O    -3.0710870   -5.3303690   -0.6211750  
C    -1.3945790   -3.5542010   -0.8078180  
H     1.0082370   -1.7296290   -1.1858350  
H    -2.2902250    0.8625400   -0.7649360  
H    -4.9707620   -4.5674140   -0.3285910  
H    -2.2823200   -5.8923710   -0.6137530  
H    -0.5783580   -4.2634300   -0.9267310  
C     3.9251960    0.6812190   -0.2132740  
C     3.9368800    2.0247140   -0.5769170  
C     2.6116110    2.3812550   -0.9372240  
C     1.8054560    1.2148430   -0.7952920  
N     2.6239490    0.2048440   -0.3668020  
C     0.4128180    1.1932800   -1.0592460  
C    -0.1378630    2.4289310   -1.4226140  
O    -1.4819780    2.5418370   -1.6617430  
C     0.6557040    3.5990630   -1.5688390  
O    -0.0759290    4.7042190   -1.9600840  
C     2.0143990    3.5929440   -1.3475220  
H     4.8129050    2.6530930   -0.5699750  
H     2.3263190   -0.7032800   -0.0420850  
H    -1.6584050    3.4780150   -1.8666530  
H     0.4813050    5.4954850   -1.9224650  
H     2.6054490    4.4973630   -1.4699440  
C     8.1932610    1.5375120    0.4566680  
C     8.6487060    0.3424500    0.8912180  
C     7.4821340   -0.5346210    0.8864150  
C     6.3661560    0.3360040    0.4014520  
N     6.7923120    1.5384970    0.1544680  
C     4.9947810   -0.1732730    0.2496220  
C     4.8282280   -1.4964730    0.5814320  
O     3.6315980   -2.1403540    0.5034140  
C     5.9149970   -2.3704180    1.0624270  
O     5.6403460   -3.5466180    1.3346620  
C     7.2798050   -1.8253260    1.2042910  
H     9.6536810    0.0721090    1.1841230  
H     3.8264490   -3.0536590    0.8166130  
H     8.0511300   -2.5015150    1.5608180  
H     8.7468280    2.4579140    0.3171020  
C    -5.7976820   -0.8356210   -1.2313620  
C    -6.6887840    0.1207250   -0.8710990  
C    -6.1435780    0.8056770    0.2793030  
C    -4.8400750    0.1528530    0.5668230  
N    -4.6696980   -0.8320880   -0.4017510  
C    -4.0278070    0.4946700    1.6008750  
C    -4.4438680    1.5851440    2.4797270  
O    -3.7797390    1.9590220    3.4350560  
C    -5.8075680    2.3074860    2.1759240  
O    -6.1576860    3.2352740    2.8900030  
C    -6.6035470    1.8313320    1.0443490  
H    -7.6336410    0.3299820   -1.3513400  
H    -3.0913580   -0.0083110    1.8140750  
H    -7.5541640    2.3210480    0.8551110  
H    -5.8474580   -1.5587430   -2.0329770  
