62


C     0.5996200    0.7921320   -0.1862900  
C     0.7847500    2.1748880   -0.1513910  
C     2.1801400    2.4203810   -0.1452570  
C     2.8320280    1.1503200   -0.1864580  
N     1.8537070    0.1954650   -0.1968270  
C     4.2452110    1.0058400   -0.1495780  
C     4.9548440    2.2080580   -0.0845320  
O     6.3287670    2.1992410   -0.0290790  
C     4.3162530    3.4779690   -0.0559760  
O     5.2054010    4.5372350    0.0110760  
C     2.9473330    3.6030640   -0.0860920  
H     0.0089820    2.9239100   -0.1831980  
H     1.9625790   -0.7873830   -0.4190170  
H     6.6152960    3.1276520   -0.1130310  
H     4.7408480    5.3631640   -0.1896940  
H     2.4733830    4.5812870   -0.0503820  
C    -3.6563840    1.7153550    0.7765580  
C    -2.3044650    1.7588780    0.6718310  
C    -1.8689080    0.5068230    0.0935360  
C    -3.0969320   -0.2792210   -0.1262590  
N    -4.1586910    0.5029520    0.2868920  
C    -3.1493330   -1.5454010   -0.6525700  
C    -1.8983510   -2.1885070   -0.9848770  
O    -1.8028750   -3.2934820   -1.4991170  
C    -0.5672290   -1.4208940   -0.6498960  
O     0.4752940   -2.0528920   -0.7291080  
C    -0.6194570    0.0146570   -0.2398810  
H    -1.6743040    2.5601950    1.0217940  
H    -4.0790510   -2.0320930   -0.9318010  
H    -4.3476960    2.4387160    1.1855660  
C    -7.8239180    2.3534810   -1.3813760  
C    -6.5176400    2.0702310   -1.0780500  
C    -6.5256440    0.8870850   -0.2641600  
C    -7.8808600    0.4912510   -0.1096850  
N    -8.6474840    1.4083410   -0.7980610  
C    -8.2678930   -0.6478950    0.6062480  
C    -7.2622980   -1.4062480    1.1857170  
O    -7.5718910   -2.5275630    1.8913220  
C    -5.8972910   -1.0258280    1.0763350  
O    -5.0206380   -1.8295830    1.7737820  
C    -5.5252040    0.1103590    0.3610310  
H    -5.6536280    2.6298960   -1.4067720  
H    -9.6508800    1.3749870   -0.8872570  
H    -9.3028970   -0.9564110    0.7100700  
H    -6.7246650   -2.9072620    2.1897180  
H    -4.1973590   -1.9551440    1.2621950  
H    -8.2425230    3.1548550   -1.9735080  
C     7.5005390   -0.7149180    2.3100300  
C     7.5552770   -1.9633210    1.7831480  
C     6.5712730   -2.0229600    0.7230480  
C     5.9195910   -0.6880580    0.6925950  
N     6.4970910    0.0473570    1.7128180  
C     4.9178960   -0.3142090   -0.1668130  
C     4.5203020   -1.3291700   -1.1644040  
O     3.6644660   -1.1257600   -2.0125940  
C     5.2121030   -2.7441100   -1.1529940  
O     4.8747770   -3.5594540   -1.9961700  
C     6.2235080   -3.0143540   -0.1384050  
H     8.2047110   -2.7689040    2.0937210  
H     6.6834400   -3.9975880   -0.1246130  
H     8.0923570   -0.2823700    3.1065320  
H     6.5394790    1.0576820    1.6442240  
