58


C     4.4995880    3.5875370    1.8068170  
C     3.5750380    2.7007650    1.3450970  
C     2.6923320    3.4206130    0.4579270  
C     3.1724670    4.8204080    0.4521070  
N     4.2891310    4.8473120    1.2669860  
C     2.5822920    5.8479760   -0.2121700  
C     1.3776270    5.5651080   -0.9797120  
O     0.7395830    6.4272420   -1.5629720  
C     0.8883850    4.0737010   -1.0740570  
O    -0.0075810    3.8193510   -1.8567020  
C     1.5816910    3.0334630   -0.2631570  
H     3.5009190    1.6581170    1.6138430  
H     2.9457000    6.8704890   -0.1776690  
H     5.3175460    3.4269390    2.4966650  
H     4.7964190    5.6818890    1.5165230  
C     1.1013540    1.6661060   -0.2891280  
C     1.8226800    0.5042970   -0.2578330  
C     0.8569840   -0.5660260   -0.2729220  
C    -0.4665670    0.1314680   -0.3144880  
N    -0.3180160    1.4185990   -0.3246080  
C    -1.7460660   -0.5862290   -0.3389940  
C    -1.6243280   -1.9503370   -0.3416400  
O    -2.6733180   -2.7973630   -0.3955880  
C    -0.3189550   -2.6731740   -0.2886610  
O    -0.3671570   -3.9050070   -0.2328210  
C     0.9619370   -1.9203840   -0.2893360  
H     2.8953520    0.3911950   -0.2580300  
H    -2.2651250   -3.6940370   -0.3695400  
C     4.3603420   -1.9057540    2.5382660  
C     5.1478050   -2.8848880    2.0398490  
C     4.4558290   -3.3562460    0.8450090  
C     3.2158130   -2.5114820    0.7815370  
N     3.1737650   -1.6655900    1.7692910  
C     2.2229360   -2.6852620   -0.2691010  
C     2.5067410   -3.6274320   -1.2150620  
O     1.7314730   -3.8661900   -2.2763350  
C     3.7529220   -4.4750500   -1.1769850  
O     3.9077530   -5.2917490   -2.0816820  
C     4.7205220   -4.2964100   -0.0814780  
H     6.0853930   -3.2573300    2.4282630  
H     2.1698350   -4.5966500   -2.7678940  
H     5.6004100   -4.9324220   -0.0835300  
H     4.5213740   -1.3079770    3.4275290  
C    -3.1695780    1.4258450   -0.8893900  
C    -2.9979070    0.1560530   -0.3944030  
C    -4.3473870   -0.2223740    0.0886190  
C    -5.1923750    0.9652450   -0.2406730  
N    -4.4969660    1.9080240   -0.8156430  
C    -6.5951900    1.0224380    0.0724710  
C    -7.1433660   -0.0332050    0.7189700  
O    -8.4326370   -0.1167000    1.0855890  
C    -6.3161220   -1.2280330    1.0991230  
O    -6.8799720   -2.1446010    1.6964650  
C    -4.8810800   -1.2680780    0.7504560  
H    -7.1702250    1.9010270   -0.1981580  
H    -8.5161760   -0.9880940    1.5325570  
H    -4.3347590   -2.1604400    1.0255430  
H    -2.4054120    2.0650760   -1.3082700  
