58


C    -2.5796590   -2.1915140   -1.9842300  
C    -3.7278170   -2.9025180   -2.0805230  
C    -3.7463800   -3.8514220   -0.9867360  
C    -2.4911680   -3.6360220   -0.2291730  
N    -1.8086370   -2.6001340   -0.8816620  
C    -2.1563110   -4.3106120    0.8958150  
C    -3.0768420   -5.3375440    1.3900970  
O    -2.8600670   -5.9849260    2.4012290  
C    -4.4005300   -5.5997560    0.5864650  
O    -5.1759700   -6.4553660    0.9805520  
C    -4.6556170   -4.7856150   -0.6060700  
H    -4.4840030   -2.7943400   -2.8448230  
H    -1.2369810   -4.1467050    1.4455500  
H    -5.5826950   -4.9555460   -1.1450230  
H    -2.1959990   -1.4120730   -2.6292580  
C    -0.6764670    1.4875640   -0.1095010  
C     0.6921700    1.2991400    0.0050280  
C     0.9649830   -0.0859380   -0.1632750  
C    -0.3464310   -0.7303730   -0.3728080  
N    -1.2861150    0.2704790   -0.3728070  
C    -0.5486230   -2.0750420   -0.5462800  
C     0.6321900   -2.9444980   -0.4965890  
O     0.6003930   -4.1380860   -0.7325830  
C     2.0110990   -2.2930730   -0.1241010  
O     2.9197280   -3.0701850    0.1475560  
C     2.1511150   -0.8269770   -0.1202020  
H     1.4058120    2.0716710    0.2415230  
H    -2.2927960    0.1707950   -0.3882850  
C     3.4651330   -0.2340670   -0.0568400  
C     3.8744820    1.0510920   -0.3902280  
C     5.2904720    1.1291890   -0.2071460  
C     5.7215380   -0.2115170    0.2600480  
N     4.5783600   -0.9747300    0.3357660  
C     7.0072030   -0.5450020    0.5382650  
C     8.0426040    0.4727740    0.3742240  
O     9.2241710    0.2639930    0.6015640  
C     7.6088880    1.9009160   -0.1198160  
O     8.4606710    2.7660110   -0.2621780  
C     6.1914700    2.1397360   -0.3910360  
H     3.2532130    1.8327580   -0.7977240  
H     7.3066980   -1.5321210    0.8758730  
H     5.9026250    3.1290430   -0.7332720  
H     4.5095360   -1.9679540    0.5228660  
C    -1.4945990    2.6567490    0.0173950  
C    -1.1393680    3.9579290    0.2652370  
C    -2.3821220    4.6912210    0.2907240  
C    -3.4356930    3.6552760    0.0323840  
N    -2.9100640    2.4730510   -0.1266320  
C    -4.8310070    3.9952710   -0.0195030  
C    -5.1677820    5.2939910    0.1734860  
O    -6.4215250    5.7529750    0.1520920  
C    -4.1288720    6.3638520    0.4359760  
O    -4.5334610    7.5131060    0.5975830  
C    -2.7084280    5.9916090    0.4852820  
H    -0.1478470    4.3625310    0.4127550  
H    -5.5751320    3.2293020   -0.2061810  
H    -6.3558930    6.7198230    0.3218620  
H    -1.9906590    6.7830660    0.6767380  
