58


C     6.0727590   -1.7135240    0.0067370  
C     7.3580260   -1.3030610    0.1142930  
C     7.3473400    0.1384540    0.2462150  
C     5.9235640    0.5475820    0.2001300  
N     5.1771670   -0.6307840    0.0465990  
C     5.4976690    1.8238670    0.3469060  
C     6.4998240    2.8775660    0.5230820  
O     6.2009050    4.0521210    0.6652220  
C     8.0155080    2.4681300    0.5386930  
O     8.8638420    3.3344510    0.6761830  
C     8.3449530    1.0465600    0.4018090  
H     8.2342050   -1.9349500    0.0872140  
H     4.4553940    2.1187190    0.3249100  
H     9.3926040    0.7645260    0.4427240  
H     5.6769500   -2.7103980   -0.1298050  
C     2.3256570   -3.2961070    2.0023650  
C     3.4391300   -2.5930630    1.6730290  
C     3.0539230   -1.6567360    0.6432390  
C     1.6024410   -1.8599330    0.4066770  
N     1.2252030   -2.8490970    1.2817890  
C     0.7990890   -1.1218240   -0.4566650  
C     1.5155560   -0.0840200   -1.1933030  
O     0.9865640    0.7825390   -1.8894210  
C     3.0834050    0.0095750   -1.1228620  
O     3.6549600    0.6901600   -1.9518010  
C     3.7847310   -0.7387340   -0.0639420  
H     4.4175070   -2.6912810    2.1180380  
H     2.2023980   -4.0902360    2.7265220  
H     0.4081600   -3.4179850    1.0863660  
C    -2.6026310    1.7210450   -0.8750800  
C    -3.6370590    0.8368650   -0.9241160  
C    -3.0656870   -0.4985050   -0.8506720  
C    -1.5974690   -0.3040070   -0.7381360  
N    -1.3962880    1.0609350   -0.7299170  
C    -0.6639680   -1.3180530   -0.6140450  
C    -1.2373120   -2.6767030   -0.6557170  
O    -0.5667840   -3.6979080   -0.5358880  
C    -2.7892060   -2.8919210   -0.8324310  
O    -3.2007890   -4.0372930   -0.8961270  
C    -3.6511530   -1.7208450   -0.8873260  
H    -4.7233460   -1.8640860   -0.9706030  
H    -2.6313790    2.8017020   -0.9241120  
H    -0.4987380    1.4298410   -1.0412510  
C    -5.6739700    1.4710140   -2.2322360  
C    -6.9970550    1.6725260   -2.0218610  
C    -7.2491690    1.4635380   -0.6107280  
C    -5.9398590    1.1200750   -0.0047860  
N    -5.0063980    1.1422810   -1.0417210  
C    -5.7464570    0.8544990    1.3104450  
C    -6.9032760    0.9022360    2.2034960  
O    -6.8265250    0.6787460    3.4013770  
C    -8.3037140    1.2608250    1.5835540  
O    -9.2804430    1.3043390    2.3143190  
C    -8.3768670    1.5315480    0.1444750  
H    -7.7307460    1.9390180   -2.7688450  
H    -4.7776640    0.6116340    1.7339230  
H    -9.3477840    1.7822650   -0.2719570  
H    -5.1015240    1.5274540   -3.1487270  
