58


C     5.7926320   -0.5992030   -0.1538270  
C     6.0757380   -1.9060140   -0.3633260  
C     4.8197230   -2.6273330   -0.3841340  
C     3.7620040   -1.6128320   -0.1490050  
N     4.4008170   -0.3872640   -0.0564160  
C     2.4313670   -1.9031370   -0.0365050  
C     2.0020580   -3.2725420   -0.2238490  
O     0.8237530   -3.6265430   -0.1935510  
C     3.0983000   -4.3629010   -0.5012660  
O     2.7525710   -5.5199880   -0.6670090  
C     4.5034740   -3.9373920   -0.5472710  
H     7.0594580   -2.3354750   -0.4848360  
H     1.6806940   -1.1620940    0.2089540  
H     5.2519800   -4.7073890   -0.7065410  
H     6.4535090    0.2485990   -0.0541670  
C     0.8229900    1.2547670   -1.8100240  
C     0.5720170    2.2508930   -0.9165540  
C     1.7691770    2.3568440   -0.0742970  
C     2.6619710    1.2551860   -0.5022020  
N     2.0876230    0.6912150   -1.6123870  
C     3.7655850    0.8484660    0.1994880  
C     4.2338680    1.6973870    1.2969380  
O     5.2484790    1.4601490    1.9338750  
C     3.3781230    2.9733010    1.6483920  
O     3.7890150    3.7132940    2.5240890  
C     2.1147600    3.1956730    0.9339280  
H     1.4966030    4.0331710    1.2359520  
H     0.1915940    0.8859250   -2.6073920  
H     2.3787170   -0.1872730   -2.0144810  
C    -3.2622560    0.3863880   -0.1119140  
C    -4.0582220    1.5073680   -0.0561260  
C    -3.2221370    2.6556820   -0.2893920  
C    -1.8537140    2.1333730   -0.5116200  
N    -1.9469010    0.7721780   -0.4223750  
C    -0.7344850    2.8977740   -0.7264760  
C    -0.9022600    4.3506870   -0.6798330  
O     0.0358710    5.1326070   -0.7510960  
C    -2.3585130    4.9287780   -0.5169150  
O    -2.5097800    6.1402550   -0.5557720  
C    -3.4669700    3.9966300   -0.3094320  
H    -5.1169150    1.5042700    0.1435660  
H    -4.4573810    4.4160790   -0.1623290  
H    -1.1707900    0.1271460   -0.4161580  
C    -7.1330840   -1.5163400    0.6755800  
C    -6.7901880   -2.8162300    0.8103880  
C    -5.3458030   -2.8505670    0.6146190  
C    -4.9718900   -1.4239070    0.3619830  
N    -6.0203160   -0.6570890    0.3995570  
C    -3.5871610   -1.0142710    0.1097360  
C    -2.6530650   -2.0275160    0.1188920  
O    -1.3441580   -1.8282750   -0.0924100  
C    -3.0160220   -3.4677880    0.3817550  
O    -2.1141270   -4.2961460    0.3869780  
C    -4.4239350   -3.8292660    0.6255840  
H    -7.4297500   -3.6625820    1.0179390  
H    -0.8289970   -2.6799810   -0.0349970  
H    -4.6378020   -4.8784680    0.8052920  
H    -8.1169730   -1.0697710    0.7498210  
