58


C    -2.6697160   -1.4548570   -1.5061660  
C    -1.7533960   -2.0474790   -0.6826610  
C    -2.4579110   -3.1453500   -0.0129750  
C    -3.8511780   -3.1183910   -0.5196750  
N    -3.9128450   -2.0615860   -1.4109200  
C    -4.8296420   -3.9797890   -0.1435340  
C    -4.5071950   -5.0028380    0.8467590  
O    -5.3202570   -5.8180300    1.2539070  
C    -3.0431710   -5.0357020    1.4181180  
O    -2.7588450   -5.8606080    2.2705810  
C    -2.0690320   -4.0598630    0.9097650  
H    -5.8415510   -3.9425670   -0.5352240  
H    -1.0541400   -4.1229600    1.2853100  
H    -2.5209730   -0.6357940   -2.1982390  
H    -4.7036060   -1.8555480   -2.0017720  
C     0.0158920    1.8723940    0.1941680  
C     1.3457020    1.5205840    0.1350330  
C     1.4328430    0.1162120   -0.1527990  
C     0.0416580   -0.3613620   -0.2769440  
N    -0.7724590    0.7530090   -0.1113090  
C    -0.3500640   -1.6478140   -0.5182740  
C     0.7350990   -2.6330480   -0.6878800  
O     0.5267610   -3.8075210   -0.9391790  
C     2.2254550   -2.1572810   -0.5462190  
O     3.0962570   -3.0085640   -0.5501260  
C     2.5110040   -0.7216920   -0.3297450  
H     2.1779890    2.2045030    0.2120150  
H    -1.7324630    0.6543520    0.1912540  
C     4.8790000    1.2257490    2.8592950  
C     6.0807960    1.2947560    2.2325160  
C     5.9103500    0.7303720    0.9092670  
C     4.4866080    0.3279120    0.8130250  
N     3.9125100    0.6765780    2.0208850  
C     3.9143210   -0.2937730   -0.2621200  
C     4.7912600   -0.5281720   -1.4337690  
O     4.3700280   -0.9662750   -2.4888030  
C     6.3084690   -0.1300680   -1.3366060  
O     7.0377800   -0.3697410   -2.2854130  
C     6.7803150    0.5195930   -0.1148820  
H     6.9985290    1.6892150    2.6435840  
H     7.8294940    0.7931570   -0.0596480  
H     4.6072510    1.5336760    3.8604070  
H     2.9758830    0.4233870    2.2949930  
C    -0.0301850    4.2054810    1.1569950  
C    -0.5807600    3.1492460    0.4757130  
C    -1.9231470    3.6315650    0.0941510  
C    -1.9830310    5.0134990    0.6563300  
N    -0.8673510    5.3294850    1.2666870  
C    -3.1391660    5.8466370    0.4965350  
C    -4.1899340    5.3485890   -0.2035050  
O    -5.3275270    6.0184490   -0.4257000  
C    -4.1527140    3.9710860   -0.8052820  
O    -5.1368320    3.5842730   -1.4301360  
C    -2.9456100    3.1332390   -0.6260000  
H    -3.1513870    6.8436100    0.9223810  
H    -5.8961220    5.4206980   -0.9584310  
H    -2.9543090    2.1596920   -1.1050760  
H     0.9499730    4.2396950    1.6181920  
