58


C    -4.3545000   -3.4036710    1.6916440  
C    -4.2029510   -2.0655960    1.4958420  
C    -4.9871780   -1.7079610    0.3351060  
C    -5.6241240   -2.9656980   -0.1303570  
N    -5.1817220   -3.9570820    0.7264800  
C    -6.4805300   -3.0640850   -1.1779300  
C    -6.8143890   -1.8486210   -1.9118950  
O    -7.6001030   -1.8262320   -2.8448320  
C    -6.1182120   -0.5098900   -1.4814610  
O    -6.2866930    0.4832830   -2.1653800  
C    -5.2296620   -0.5116220   -0.2911820  
H    -3.6155680   -1.3946930    2.1038270  
H    -6.9468700   -3.9952650   -1.4844380  
H    -3.9309990   -4.0333470    2.4630670  
H    -5.4813290   -4.9191510    0.6957030  
C    -1.0583760    1.0604980    0.3195510  
C    -2.1082420    0.2238190    0.0456490  
C    -3.3027320    1.0124370    0.2623730  
C    -2.7829390    2.3488960    0.6773330  
N    -1.4815270    2.3750570    0.7095930  
C    -3.6640530    3.4473830    0.9749910  
C    -4.9946030    3.2361150    0.8493580  
O    -5.9284050    4.1663460    1.0929450  
C    -5.5582180    1.8946630    0.4579880  
O    -6.7771780    1.7673200    0.4897700  
C    -4.6347810    0.7649630    0.1243690  
H    -2.0626180   -0.7897570   -0.3239920  
H    -3.2559530    4.4059070    1.2748960  
H    -6.7919450    3.7190630    0.9533530  
C     1.3917490   -2.5158620    1.3047770  
C     0.3384080   -1.6783700    1.1426390  
C     0.9049880   -0.4559510    0.6034810  
C     2.3766320   -0.7352590    0.5185060  
N     2.6380600   -1.9457210    0.9288820  
C     3.3507440    0.2521050    0.0548490  
C     2.8080350    1.4679980   -0.3095540  
O     3.4907730    2.5054420   -0.7774520  
C     1.3196300    1.7589610   -0.2609840  
O     0.9700290    2.8463460   -0.7059750  
C     0.3607690    0.7428710    0.2517750  
H    -0.7004300   -1.8614710    1.3722050  
H     2.8072090    3.1907350   -0.9749020  
H     1.3846060   -3.5305520    1.6854200  
C     4.7668510   -0.0598550   -0.0028410  
C     5.3890700   -1.2450070    0.2999290  
C     6.7971150   -1.0180250    0.0767070  
C     6.8758020    0.4076390   -0.3752140  
N     5.7045630    0.9616670   -0.4218170  
C     8.1371270    1.0266860   -0.7027790  
C     9.2542320    0.2720420   -0.5888440  
O    10.4944650    0.7085520   -0.8580210  
C     9.2052640   -1.1694380   -0.1362520  
O    10.2777440   -1.7715310   -0.0649650  
C     7.9114630   -1.7782260    0.1924470  
H     4.9162980   -2.1519910    0.6386520  
H     8.1674490    2.0608340   -1.0272850  
H    11.0795030   -0.0625000   -0.6817670  
H     7.9156280   -2.8151010    0.5144320  
