60


C     2.0583050    2.5254780   -0.6941100  
C     3.1914440    1.7844470   -0.8098180  
C     2.8027230    0.3992740   -0.7595700  
C     1.3972610    0.3483130   -0.6047440  
N     0.9423700    1.6867290   -0.5629320  
C     0.6922640   -0.8578500   -0.5590720  
C     1.4235950   -2.0372890   -0.6438750  
O     0.7750680   -3.2310730   -0.5927800  
C     2.8315820   -2.0128160   -0.7798610  
O     3.4370500   -3.2398380   -0.8521020  
C     3.5236900   -0.8058060   -0.8461230  
H     4.1954230    2.1731770   -0.9036360  
H    -0.3821070   -0.8935850   -0.4498490  
H     1.4439430   -3.9368470   -0.6195520  
H     4.3992900   -3.1189730   -0.7875770  
H     1.9313530    3.5959350   -0.6588560  
C    -0.3436020    2.1590940   -0.4469500  
C    -0.7907950    3.4474880   -0.6147200  
C    -2.1947850    3.3880010   -0.3536590  
C    -2.4619350    1.9418310   -0.0224510  
N    -1.3687150    1.2385350   -0.0891750  
C    -3.7907460    1.4384820    0.3123070  
C    -4.7753330    2.3897950    0.2940500  
O    -6.0565750    2.1457370    0.6011780  
C    -4.5382830    3.8435090   -0.0482920  
O    -5.5323450    4.5766930   -0.0140420  
C    -3.1992400    4.3013150   -0.3718280  
H    -0.2323660    4.3219380   -0.9121230  
H    -6.5007900    3.0244250    0.5071800  
H    -3.0644440    5.3517930   -0.6070840  
C    -3.0939840   -0.7964500    1.2762080  
C    -3.9899830    0.0337010    0.6596700  
C    -5.1606400   -0.8358870    0.4049970  
C    -4.7596980   -2.1579520    0.9751670  
N    -3.5598290   -2.1177800    1.4856350  
C    -5.6258230   -3.3058400    0.9284060  
C    -6.8260040   -3.1694610    0.3166320  
O    -7.7298610   -4.1538890    0.1891410  
C    -7.2471580   -1.8630120   -0.2956700  
O    -8.3473700   -1.8169330   -0.8434910  
C    -6.3450090   -0.6942660   -0.2205420  
H    -5.3003150   -4.2437740    1.3643710  
H    -8.4839420   -3.7528250   -0.2967720  
H    -6.7034400    0.2296840   -0.6562520  
H    -2.0986110   -0.5396240    1.6099880  
C     5.5949910   -0.9769830   -2.2566910  
C     6.9313650   -0.7840710   -2.1407380  
C     7.2048150   -0.4613410   -0.7551520  
C     5.8937740   -0.4805000   -0.0609880  
N     4.9406580   -0.8328090   -1.0208900  
C     5.7166350   -0.2053980    1.2547080  
C     6.8952080    0.1243800    2.0566640  
O     6.8351250    0.3868320    3.2473320  
C     8.2982800    0.1357170    1.3456090  
O     9.2923400    0.4038400    2.0014660  
C     8.3525200   -0.1750440   -0.0858650  
H     7.6603330   -0.8563400   -2.9350860  
H     4.7462490   -0.2165270    1.7395250  
H     9.3250490   -0.1591710   -0.5685730  
H     5.0029440   -1.2181350   -3.1299930  
