58


C    -6.4504780   -2.8675200    2.2110540  
C    -7.7410960   -2.6921350    1.8283600  
C    -7.7593860   -1.5997830    0.8807840  
C    -6.3512010   -1.1326070    0.7699900  
N    -5.6132170   -1.9180760    1.6315460  
C    -5.9310810   -0.0909400   -0.0200730  
C    -6.9527680    0.4398470   -0.9611960  
O    -6.6699400    1.1376520   -1.9186510  
C    -8.4590770    0.0482340   -0.7584340  
O    -9.3065250    0.6433180   -1.4058150  
C    -8.7718070   -1.0205820    0.1816570  
H    -8.5976530   -3.2614620    2.1589120  
H    -9.8098250   -1.3197410    0.2902220  
H    -6.0320390   -3.6031080    2.8859470  
H    -4.6222890   -2.0639290    1.4299850  
C    -1.8595210   -1.9036790    0.0159810  
C    -1.0618090   -0.8313440   -0.2523270  
C    -1.9992770    0.3078160   -0.3107480  
C    -3.3488820   -0.2972600   -0.0697850  
N    -3.2329470   -1.5854330    0.1365260  
C    -4.5741520    0.4832150   -0.0759150  
C    -4.3924440    1.8421490   -0.1858070  
O    -5.3830300    2.7278590   -0.0668780  
C    -3.0587220    2.4730040   -0.4448810  
O    -3.0107040    3.6960140   -0.5602450  
C    -1.8525320    1.6248810   -0.5304120  
H    -4.9843330    3.6080140   -0.2473780  
H    -0.9091750    2.1199160   -0.7357640  
H    -1.5461860   -2.9303510    0.1620040  
C     1.1012590   -1.7517010   -1.1716770  
C     0.3698070   -0.8323780   -0.4795390  
C     1.3838370    0.1104490    0.0397740  
C     2.6821340   -0.4154820   -0.4724850  
N     2.4965140   -1.5062670   -1.1618020  
C     3.9685200    0.2239660   -0.1757680  
C     3.8888110    1.3311700    0.6327990  
O     4.9545470    2.0833330    0.9825920  
C     2.6136650    1.8444390    1.1924650  
O     2.6539800    2.8513040    1.9054100  
C     1.3409950    1.1655540    0.8697990  
H     4.5818410    2.8002140    1.5448840  
H     0.4390550    1.5662740    1.3213890  
H     0.7266600   -2.6050790   -1.7239270  
C     5.3076550   -1.0437200   -1.8995380  
C     5.1973070   -0.3154790   -0.7404390  
C     6.5845720   -0.2672940   -0.2229250  
C     7.3764500   -1.0155880   -1.2471570  
N     6.6192550   -1.4512900   -2.2189030  
C     8.7937830   -1.2189510   -1.1269700  
C     9.4108010   -0.7356530   -0.0222210  
O    10.7214220   -0.8590270    0.2305100  
C     8.6406410   -0.0097240    1.0464850  
O     9.2655020    0.3896260    2.0270550  
C     7.1858820    0.1988250    0.8891470  
H     9.3276980   -1.7577600   -1.9017240  
H    10.8632740   -0.4180500    1.0974560  
H     6.6818340    0.7463080    1.6745120  
H     4.5005890   -1.3247970   -2.5599080  
