58


C    -4.2669290   -3.3603280    1.4250560  
C    -4.1769180   -2.0101350    1.3239890  
C    -4.9044600   -1.6139160    0.1390420  
C    -5.4442660   -2.8717270   -0.4460750  
N    -5.0297880   -3.8885430    0.3866540  
C    -6.2086140   -2.9517520   -1.5659330  
C    -6.5161990   -1.7206250   -2.2724760  
O    -7.2166930   -1.6736020   -3.2728980  
C    -5.9056390   -0.3809210   -1.7232860  
O    -6.0356280    0.6256840   -2.3979800  
C    -5.1574690   -0.3949040   -0.4385340  
H    -3.5961430   -1.3692300    1.9658650  
H    -6.6104930   -3.8846620   -1.9493510  
H    -3.8297660   -4.0193970    2.1630680  
H    -5.2211730   -4.8665790    0.2387920  
C    -1.1431430    0.9977520    0.7891880  
C    -1.3776330    2.3310690    1.0129680  
C    -2.7984650    2.5152530    0.8103620  
C    -3.2924220    1.1553820    0.4101270  
N    -2.3257500    0.2858150    0.3986690  
C    -4.6862440    0.9013820    0.0840720  
C    -5.5311840    1.9646910    0.2427660  
O    -6.8534220    1.8875880    0.0713050  
C    -5.0640730    3.3339340    0.6637730  
O    -5.9176500    4.2151590    0.7679210  
C    -3.6392180    3.5651770    0.9294550  
H    -0.6901660    3.0703550    1.4031750  
H    -7.1926650    2.7985770    0.2218830  
H    -3.3389450    4.5687670    1.2143770  
C     2.8712300    2.1370900   -0.4579480  
C     3.5846820    1.0145870   -0.1078960  
C     2.6115440    0.0854700    0.4818030  
C     1.3087780    0.7791210    0.4547740  
N     1.5450980    2.0133930   -0.1150130  
C     0.1083220    0.2650610    0.8769410  
C     0.1530320   -1.0920010    1.4679410  
O    -0.7936910   -1.6097060    2.0322670  
C     1.5149580   -1.8726000    1.4329640  
O     1.5306830   -3.0318640    1.8111230  
C     2.7199790   -1.1819950    0.9577140  
H     3.6666140   -1.7081500    0.9664310  
H     3.2213420    3.0415010   -0.9371030  
H     0.8073100    2.6623170   -0.3545790  
C     4.9972380    0.8124530   -0.3009720  
C     5.9315910    1.6686530   -0.8331870  
C     7.1803420    0.9620460   -0.7917140  
C     6.8325760   -0.3681060   -0.1807370  
N     5.5650380   -0.4466720    0.1015240  
C     7.8267830   -1.3841820    0.0374390  
C     9.0986800   -1.0992210   -0.3291960  
O    10.1298070   -1.9379180   -0.1904080  
C     9.4829300    0.2340430   -0.9481080  
O    10.6700480    0.3821250   -1.2420070  
C     8.4553540    1.2493680   -1.1597550  
H     5.7794540    2.6714100   -1.2082060  
H     7.5502250   -2.3349550    0.4791050  
H    10.9082720   -1.4480080   -0.5436610  
H     8.7654630    2.1896640   -1.6045700  
