62


C    -3.6340720    0.1709280   -0.0094130  
C    -4.2907470    1.3999190   -0.0923690  
C    -3.3015150    2.4126310   -0.1833350  
C    -2.0329680    1.7600050   -0.1618870  
N    -2.2685450    0.4158080   -0.0508880  
C    -0.8003490    2.4571500   -0.2084800  
C    -0.9154460    3.8448110   -0.2603020  
O     0.2227470    4.6245990   -0.2761740  
C    -2.1681920    4.5129640   -0.2910890  
O    -2.0530990    5.8891760   -0.3523190  
C    -3.3583230    3.8212750   -0.2605340  
H    -5.3586840    1.5473850   -0.1418820  
H    -1.5879170   -0.3330840   -0.1066100  
H    -0.0667950    5.5532040   -0.3418880  
H    -2.9334250    6.2888250   -0.4102300  
H    -4.3103310    4.3469910   -0.2787450  
C     0.8482890   -0.9726190   -2.5898480  
C     0.0811810    0.0652490   -2.1324770  
C     0.7921220    0.6692690   -1.0377580  
C     2.0104210   -0.0473080   -0.8964430  
N     2.0080710   -1.0463940   -1.8435830  
C     2.9834820    0.2574800    0.0825560  
C     2.7016240    1.3660010    0.8870990  
O     3.6170510    1.7986040    1.7913130  
C     1.4948610    2.0984480    0.7588150  
O     1.3820880    3.1412320    1.6571780  
C     0.5059390    1.7540370   -0.1640150  
H    -0.8761660    0.3664770   -2.5309740  
H     2.7618030   -1.6990920   -1.9946740  
H     3.2050890    2.5688160    2.2292180  
H     1.0702300    3.9272000    1.1604780  
H     0.6664130   -1.6747150   -3.3906860  
C     6.3382630   -1.0815950   -2.5827130  
C     5.1967320   -0.4893330   -2.1515810  
C     5.1029940   -0.8302340   -0.7339430  
C     6.3213440   -1.6526470   -0.4852300  
N     7.0378180   -1.7977120   -1.5671640  
C     6.6342260   -2.1766610    0.8197110  
C     5.7753930   -1.9016980    1.8263430  
O     5.9326310   -2.3267960    3.0917170  
C     4.5121090   -1.1095330    1.6050920  
O     3.7401630   -1.0247060    2.5532500  
C     4.2187060   -0.5216470    0.2537810  
H     4.5114870    0.1295690   -2.7129880  
H     7.5316060   -2.7671090    0.9677740  
H     5.1302040   -2.0171740    3.5672940  
H     6.7631340   -1.0559330   -3.5795920  
C    -7.6057730   -1.4702770    1.1979760  
C    -6.5328280   -0.6590370    0.9982560  
C    -5.4653840   -1.4688200    0.4536490  
C    -6.0062950   -2.8400350    0.3634190  
N    -7.3142220   -2.7679260    0.7981040  
C    -5.3284370   -3.9381780   -0.0769540  
C    -3.9462690   -3.7653330   -0.4570990  
O    -3.2311430   -4.6569930   -0.8931210  
C    -3.3083720   -2.3355790   -0.2849560  
O    -2.0977060   -2.2473340   -0.4339710  
C    -4.1711730   -1.1721240    0.0637400  
H    -6.4797510    0.3864750    1.2546500  
H    -5.7765680   -4.9229650   -0.1613660  
H    -8.5791860   -1.2354610    1.6071020  
H    -7.9241260   -3.5631480    0.9047860  
