60


C     2.1894650   -0.8168450   -1.1828460  
C     3.2835340   -0.4727760   -0.4042260  
C     2.9071280    0.7489670    0.2883490  
C     1.5840460    1.0622770   -0.1061490  
N     1.1826710    0.0968830   -1.0102410  
C     0.8736630    2.1948000    0.3518580  
C     1.5461160    3.0079570    1.2678950  
O     0.9196700    4.0900360    1.8002800  
C     2.8647630    2.6989980    1.6859050  
O     3.3793030    3.5989870    2.5990290  
C     3.5460560    1.5942340    1.2158500  
H     0.2854300    0.0774540   -1.4707590  
H     1.5755640    4.5600090    2.3456080  
H     4.3341110    3.4584450    2.6869620  
H     4.5662440    1.4047860    1.5294230  
H     2.0827790   -1.6268260   -1.8895280  
C    -3.0675470    0.0558450    0.2376380  
C    -1.7369710    0.3437730    0.4637830  
C    -1.5553310    1.6656220   -0.0588030  
C    -2.9057930    2.0447060   -0.5883310  
N    -3.7800950    1.0873350   -0.4108410  
C    -3.1665410    3.3193500   -1.1883190  
C    -2.1256080    4.1819940   -1.2619670  
O    -2.2000340    5.4042750   -1.7878000  
C    -0.7281430    3.8243770   -0.7684790  
O     0.1401250    4.6650450   -0.9888460  
C    -0.4849150    2.5212170   -0.1196980  
H    -0.9885280   -0.2512100    0.9634590  
H    -4.1568740    3.5661530   -1.5535240  
H    -1.2820590    5.7619010   -1.7301600  
C    -3.1567330   -2.1466830    1.3006190  
C    -4.0246240   -3.1595600    1.5132960  
C    -5.2888670   -2.7903330    0.9138080  
C    -5.0942510   -1.4462090    0.3183200  
N    -3.7498110   -1.0912380    0.5843920  
C    -6.0683590   -0.7723790   -0.3372530  
C    -7.3882920   -1.4049780   -0.4656480  
O    -8.3154470   -0.8626250   -1.0440420  
C    -7.6088110   -2.8244970    0.1603380  
O    -8.7000760   -3.3614320    0.0600980  
C    -6.4736550   -3.4482550    0.8447490  
H    -3.8146230   -4.0782100    2.0425230  
H    -5.9149020    0.2088080   -0.7637420  
H    -6.6215720   -4.4322800    1.2791570  
H    -2.1257510   -2.0575990    1.6086400  
C     4.0804190   -4.8422780   -0.4415730  
C     3.4946870   -3.6194840   -0.3740240  
C     4.5498740   -2.6238720   -0.3923530  
C     5.8177440   -3.3837500   -0.4634070  
N     5.4641110   -4.7165270   -0.5178960  
C     7.0667170   -2.8412770   -0.4600240  
C     7.1737640   -1.4022430   -0.3632910  
O     8.2347600   -0.7957130   -0.3086760  
C     5.8419160   -0.5574090   -0.3118510  
O     5.9513220    0.6555750   -0.2493790  
C     4.5219800   -1.2472130   -0.3489030  
H     2.4367920   -3.4258400   -0.2912390  
H     7.9757790   -3.4321650   -0.5107220  
H     3.6276310   -5.8247640   -0.4384620  
H     6.1202780   -5.4814730   -0.5224310  
