64


C    -4.3903210   -0.0354060   -0.4672440  
C    -5.2109410   -1.1371970   -0.3263980  
C    -4.3791140   -2.2686700   -0.0525250  
C    -3.0363010   -1.8000260   -0.0172280  
N    -3.0771630   -0.4454670   -0.2619300  
C    -1.9210680   -2.6392100    0.2020040  
C    -2.2247350   -3.9937280    0.3595090  
O    -1.2008610   -4.9101760    0.5390490  
C    -3.5498640   -4.4804180    0.3416740  
O    -3.6389890   -5.8483120    0.5326570  
C    -4.6298780   -3.6387600    0.1499200  
H    -6.2907920   -1.1265520   -0.3809820  
H    -2.2676610    0.1292020   -0.4382000  
H    -1.6198560   -5.7837260    0.6490640  
H    -4.5687530   -6.1190730    0.5234400  
H    -5.6434800   -4.0335820    0.1356850  
C    -5.7672960    1.8072460   -1.5101110  
C    -4.6924970    1.3511900   -0.7748890  
C    -3.9340750    2.5241410   -0.3926020  
C    -4.6035800    3.6505180   -0.9326650  
N    -5.7210950    3.1809850   -1.5974500  
C    -4.1422350    4.9614670   -0.7588790  
C    -2.9794340    5.1405060   -0.0245820  
O    -2.4804550    6.3958460    0.1656680  
C    -2.3056470    4.0251890    0.5384550  
O    -1.1726990    4.3489660    1.2610450  
C    -2.7697750    2.7341770    0.3724260  
H    -6.3739620    3.7503560   -2.1127600  
H    -4.6516170    5.8249170   -1.1745020  
H    -1.6634960    6.3053520    0.6859310  
H    -0.7157400    3.5308460    1.5107680  
H    -2.2480530    1.9125090    0.8558520  
H    -6.5513720    1.2468500   -1.9987710  
C    -0.0017140    0.6755510    2.5524340  
C    -0.8778450   -0.2488630    2.0460780  
C    -0.1763790   -0.9897150    1.0313950  
C     1.1341910   -0.4537750    0.9667050  
N     1.2053620    0.5771010    1.8792060  
C     2.1587620   -0.9789140    0.1375350  
C     1.7997410   -2.1388040   -0.5648790  
O     2.7047350   -2.7839220   -1.3554640  
C     0.4914570   -2.6836660   -0.5221720  
O     0.3369670   -3.7886630   -1.3299480  
C    -0.5343310   -2.1127960    0.2306690  
H    -1.8947130   -0.4083080    2.3733210  
H     2.0761390    0.9845040    2.1875890  
H     2.2211450   -3.5533470   -1.7221810  
H    -0.1629360   -4.4650500   -0.8179800  
H    -0.1241060    1.3859790    3.3586280  
C     3.4783110   -0.3729550    0.0564230  
C     3.8738260    0.9150480    0.3555900  
C     5.2852290    1.0214460    0.1068010  
C     5.7167300   -0.3172030   -0.3686830  
N     4.5903070   -1.1091270   -0.3587990  
C     6.9890400   -0.6294900   -0.7251100  
C     8.0100590    0.4097120   -0.6374140  
O     9.1800260    0.2205880   -0.9372070  
C     7.5764310    1.8354970   -0.1316790  
O     8.4233540    2.7143240   -0.0493510  
C     6.1752410    2.0479260    0.2206840  
H     3.2261310    1.7366840    0.6222480  
H     7.2861400   -1.6143460   -1.0722810  
H     5.8878560    3.0369620    0.5651990  
H     4.5087050   -2.0339600   -0.7562870  
