60


C     0.2984040    1.5874510    0.0728240  
C     0.7580060    2.8656390    0.3901160  
C     2.1670580    2.8649360    0.2366490  
C     2.5443040    1.5571520   -0.1861380  
N     1.4005570    0.8114470   -0.2839270  
C     3.8816050    1.1751010   -0.4304760  
C     4.8404370    2.1696340   -0.2293480  
O     6.1527900    1.8996310   -0.4629120  
C     4.4798780    3.4813820    0.2003530  
O     5.5659160    4.3215570    0.3402630  
C     3.1712170    3.8414330    0.4281950  
H     0.1244680    3.6822440    0.6969620  
H     1.3437690   -0.1754920   -0.4893180  
H     6.6567180    2.7083520   -0.2614670  
H     5.2688590    5.1936630    0.6394750  
H     2.9181590    4.8483020    0.7522750  
C    -3.5353850    3.4685850    1.1138060  
C    -4.4070570    2.4553760    0.9105650  
C    -3.5904720    1.3356000    0.4570630  
C    -2.1949630    1.8730050    0.4546510  
N    -2.1777940    3.1150920    0.8388910  
C    -1.0402670    1.0489550    0.0736730  
C    -1.3468820   -0.2462060   -0.2729570  
O    -0.4097060   -1.1488220   -0.6767020  
C    -2.7077000   -0.7992000   -0.2865050  
O    -2.8599300   -1.9624920   -0.6800120  
C    -3.8637520    0.0509980    0.1285320  
H    -5.4784310    2.4551930    1.0488750  
H    -0.9248140   -1.9677490   -0.8604340  
H    -3.7446740    4.4752490    1.4541910  
C    -7.7672810    0.8898940   -1.9092990  
C    -6.4774610    1.0055320   -1.5114900  
C    -6.2669580   -0.1012690   -0.5857870  
C    -7.5910480   -0.8065510   -0.5585100  
N    -8.4597300   -0.2216660   -1.3319640  
C    -7.8049950   -1.9888660    0.2328520  
C    -6.7656620   -2.4552110    0.9633390  
O    -6.8279060   -3.5356410    1.7553850  
C    -5.4278770   -1.7644910    0.9773150  
O    -4.5721370   -2.2046350    1.7373450  
C    -5.2052090   -0.5577680    0.1246660  
H    -5.7510110    1.7489360   -1.8055300  
H    -8.7747360   -2.4738030    0.2326590  
H    -5.9420610   -3.6111930    2.1729500  
H    -8.3076850    1.5268950   -2.5995780  
C     3.6714790   -0.8498250   -1.9332890  
C     4.2324940   -0.1826430   -0.8829960  
C     5.2049860   -1.1017170   -0.2903150  
C     5.1550120   -2.3459790   -1.0969910  
N     4.2013160   -2.1276270   -2.0708840  
C     5.9163530   -3.4467550   -0.8681250  
C     6.8473270   -3.4234160    0.2543550  
O     7.5747460   -4.3627210    0.5406000  
C     6.9043340   -2.1217860    1.1356080  
O     7.6698430   -2.0842780    2.0859760  
C     6.0325870   -0.9963490    0.7797000  
H     5.8632480   -4.3458610   -1.4745060  
H     6.0943650   -0.0994050    1.3851140  
H     2.9197450   -0.5011030   -2.6296690  
H     3.9596440   -2.7816020   -2.7985630  
