62


C     0.3313020    1.6464950   -0.8854480  
C     0.8267660    2.8922380   -1.2186180  
C     2.2331210    2.8859640   -0.9305440  
C     2.5504800    1.5972460   -0.4258750  
N     1.3796350    0.8932060   -0.3765740  
C     3.8554390    1.1722810   -0.0793630  
C     4.8576180    2.1418410   -0.2207950  
O     6.1604130    1.8383930    0.0556860  
C     4.5561000    3.4425800   -0.6979110  
O     5.6667670    4.2688700   -0.7788960  
C     3.2759810    3.8238680   -1.0581610  
H     0.2618870    3.6979930   -1.6667070  
H     1.2621510   -0.0392690   -0.0175810  
H     6.6887520    2.6089440   -0.2212190  
H     5.4564620    5.0370700   -1.3299660  
H     3.0879630    4.8281250   -1.4325040  
C    -2.2181960    1.5328330   -0.8996040  
C    -0.9622650    0.9912680   -1.0097620  
C    -1.1345960   -0.4396200   -1.2099890  
C    -2.5165390   -0.7164940   -1.1830430  
N    -3.1630340    0.5120400   -1.0208440  
C    -3.0399500   -2.0078030   -1.3119930  
C    -2.1294080   -3.0466780   -1.4589840  
O    -2.5666480   -4.3311600   -1.5599410  
C    -0.7301600   -2.7915300   -1.5158500  
O     0.0494410   -3.9038820   -1.6846920  
C    -0.2343540   -1.5045460   -1.4223480  
H    -4.1032030   -2.2189970   -1.2803240  
H    -1.7691080   -4.8878670   -1.6280470  
H     0.9801660   -3.7082910   -1.4422000  
H     0.8272530   -1.3429920   -1.5712830  
H    -2.5418480    2.5457510   -0.7113200  
C    -5.3997500    0.8678310   -1.9617020  
C    -6.6716920    0.9861280   -1.5114380  
C    -6.6381690    0.8744210   -0.0650410  
C    -5.2176580    0.6740590    0.3086050  
N    -4.5116360    0.6856660   -0.8922190  
C    -4.7578390    0.5223440    1.5731020  
C    -5.7315130    0.5606770    2.6637200  
O    -5.4207450    0.4385610    3.8380140  
C    -7.2476380    0.7736540    2.2980490  
O    -8.0730820    0.8103100    3.1967340  
C    -7.6087640    0.9221460    0.8845760  
H    -7.5538320    1.1359870   -2.1169680  
H    -3.7100360    0.3742990    1.8109850  
H    -8.6578320    1.0672290    0.6447900  
H    -5.0009010    0.8922980   -2.9667220  
C     6.1208280   -0.8315450    3.2595410  
C     5.5977140    0.0832700    2.4084470  
C     4.8439680   -0.6382580    1.4036740  
C     4.9586860   -2.0773000    1.7617280  
N     5.7590810   -2.1265660    2.8742970  
C     4.3119770   -3.1119630    1.1424580  
C     3.4566550   -2.7797930    0.0393060  
O     2.6710750   -3.5647510   -0.4969290  
C     3.5241470   -1.3138720   -0.5121970  
O     3.1074530   -1.1260060   -1.6435540  
C     4.0979200   -0.2226130    0.3288150  
H     5.7489030    1.1497520    2.4378110  
H     4.3452400   -4.1347520    1.5039340  
H     6.7464130   -0.6869470    4.1299570  
H     5.9645960   -2.9662020    3.3932360  
