60


C     2.0137210    2.6974940    0.1410520  
C     2.0144720    1.3392290    0.3878300  
C     3.0847110    0.7536940   -0.3655620  
C     3.7149310    1.8217050   -1.0643640  
N     3.0658380    2.9882700   -0.7181940  
C     4.8051600    1.6473260   -1.9171070  
C     5.2991870    0.3576300   -2.0420150  
O     6.3594500    0.1104130   -2.8516840  
C     4.7294400   -0.7249360   -1.3217800  
O     5.3490780   -1.9316480   -1.5714980  
C     3.6125820   -0.5698100   -0.4904550  
H     1.3394780    0.8324040    1.0614890  
H     3.1763550    3.8709110   -1.1942000  
H     5.2756540    2.4651360   -2.4530120  
H     6.5443770   -0.8444630   -2.7549820  
H     5.5539880   -2.3285670   -0.6979760  
C    -0.5582490   -2.2128290    0.1392850  
C     0.4985870   -1.4623120   -0.3224340  
C     1.6774540   -1.9947670    0.3152010  
C     1.1465570   -3.1062670    1.1653540  
N    -0.1395390   -3.2384150    1.0602460  
C     2.0026620   -3.9155730    1.9951870  
C     3.3277750   -3.6676990    1.9408370  
O     4.2504570   -4.3532110    2.6374000  
C     3.8976220   -2.6073350    1.0406050  
O     5.1379020   -2.5445520    1.0167170  
C     3.0193390   -1.7057930    0.2501580  
H     0.4712500   -0.6677790   -1.0533680  
H     1.5793060   -4.6985290    2.6137310  
H     5.1166010   -3.9785650    2.3683460  
C    -1.9593550   -2.0756870   -0.1605450  
C    -2.6066880   -0.9714800   -0.6573770  
C    -4.0050250   -1.3289230   -0.7121600  
C    -4.0414060   -2.7413270   -0.2219560  
N    -2.8604700   -3.1704290    0.1083370  
C    -5.2817910   -3.4729070   -0.1391720  
C    -6.4163110   -2.8275210   -0.4977180  
O    -7.6394530   -3.3784850   -0.4704900  
C    -6.4090180   -1.3921150   -0.9689670  
O    -7.4926560   -0.8940980   -1.2723820  
C    -5.1330290   -0.6629450   -1.0497390  
H    -2.2027910   -0.0010120   -0.9010420  
H    -5.2856760   -4.4997410    0.2089790  
H    -8.2474100   -2.6692210   -0.7782110  
H    -5.1553000    0.3758380   -1.3628500  
C     1.4444520    4.9747320    1.1129580  
C     1.1176380    3.7471150    0.6090750  
C    -0.3394350    3.7072480    0.5473470  
C    -0.8241890    5.0082200    1.0656040  
N     0.3095090    5.7308170    1.3835820  
C    -2.1342270    5.3491150    1.1641340  
C    -3.1362000    4.3908350    0.7007730  
O    -4.3373850    4.5998240    0.7587260  
C    -2.6330280    3.0329140    0.0840900  
O    -3.4526440    2.2566870   -0.3872850  
C    -1.1960720    2.7630920    0.0835940  
H    -2.4793040    6.3006700    1.5563380  
H    -0.8416580    1.8200230   -0.3181920  
H     2.4254260    5.3837910    1.3170910  
H     0.3107380    6.6472240    1.8036260  
