58


C     6.0356610   -0.4377020   -1.9482510  
C     6.0332820   -1.7626810   -2.2231790  
C     5.1663850   -2.4086770   -1.2623790  
C     4.6594760   -1.3291630   -0.3776770  
N     5.1943340   -0.1373160   -0.8562000  
C     3.8511300   -1.5452260    0.6948400  
C     3.3637560   -2.8990320    0.9383170  
O     2.5273390   -3.1504400    1.7953660  
C     3.9081660   -4.0591510    0.0320770  
O     3.5598570   -5.2054620    0.2625140  
C     4.8148600   -3.7058300   -1.0649670  
H     6.5842460   -2.2504460   -3.0141700  
H     3.5406130   -0.7634250    1.3772170  
H     5.1939060   -4.5142560   -1.6827460  
H     6.5689240    0.3664140   -2.4309680  
C     1.5320160    2.0163910    0.2949740  
C     2.1388810    3.1700030    0.7205380  
C     3.5594960    3.0235040    0.5574400  
C     3.7659830    1.6697510   -0.0088020  
N     2.5161280    1.0966350   -0.1106890  
C     4.9926700    1.1587830   -0.3372950  
C     6.1705750    2.0237480   -0.1310720  
O     7.2986400    1.6731200   -0.4350310  
C     5.9565260    3.4501630    0.4941480  
O     6.9410340    4.1515340    0.6658680  
C     4.5993390    3.8682460    0.8122560  
H     1.6366820    4.0218010    1.1555940  
H     4.4578210    4.8594950    1.2303530  
H     2.3240890    0.2599190   -0.6403770  
C    -0.8973750    2.5764260    0.0210730  
C     0.1273480    1.6957270    0.2306020  
C    -0.5392180    0.3871740    0.3703820  
C    -1.9906460    0.7002800    0.1950460  
N    -2.1703880    1.9800940    0.0055050  
C    -3.0284070   -0.3283820    0.2664260  
C    -2.5713830   -1.5966760    0.5327550  
O    -3.3634230   -2.6805750    0.6292970  
C    -1.1309310   -1.9246040    0.7467600  
O    -0.8467280   -3.1006580    0.9669200  
C    -0.1171440   -0.8539680    0.6786100  
H    -2.7523800   -3.4306900    0.8268900  
H     0.9060990   -1.1436210    0.8989710  
H    -0.8169680    3.6423800   -0.1545130  
C    -4.4313740   -0.0044690    0.0664090  
C    -5.0150950    1.2114370   -0.2138150  
C    -6.4329950    1.0054180   -0.3218470  
C    -6.6647160   -0.4401830   -0.0847280  
N    -5.4247140   -0.9902260    0.1427760  
C    -7.8861830   -1.0335760   -0.1042330  
C    -9.0568050   -0.2050440   -0.3750830  
O   -10.1946350   -0.6479870   -0.4135810  
C    -8.8350670    1.3316380   -0.6291610  
O    -9.8018940    2.0419650   -0.8578360  
C    -7.4666910    1.8545790   -0.5815810  
H    -4.4845480    2.1424260   -0.3242240  
H    -8.0378890   -2.0940620    0.0712880  
H    -7.3243210    2.9164700   -0.7578850  
H    -5.2344390   -1.9621120    0.3351890  
