62


C     0.4064350   -1.5401430    0.2787350  
C    -0.9702870   -1.5187670    0.0783790  
C    -1.3845260   -0.1563180   -0.0283610  
C    -0.2087970    0.6345620    0.1055180  
N     0.8552420   -0.2257000    0.2751720  
C    -0.1864200    2.0389450    0.0412160  
C    -1.4203240    2.6354370   -0.2241730  
O    -1.5120120    3.9756730   -0.3665180  
C    -2.6171010    1.8717790   -0.3788750  
O    -3.7197550    2.6472990   -0.6209000  
C    -2.6457670    0.4825470   -0.2470970  
H    -1.5806310   -2.3986440   -0.0667670  
H     1.7761880    0.0754580    0.5580810  
H    -2.4496220    4.1541480   -0.5800310  
H    -4.2701760    2.1712570   -1.2917370  
C     3.5754100    1.9707300   -2.2887230  
C     4.2717540    2.8888320   -1.5491270  
C     3.4046040    3.3279370   -0.4912950  
C     2.1806040    2.6266960   -0.6395830  
N     2.3184650    1.7879220   -1.7310280  
C     1.0687360    2.8101400    0.2108240  
C     1.2313780    3.7393570    1.2401290  
O     0.2214000    3.9514090    2.1288040  
C     2.4503470    4.4491930    1.4012380  
O     2.4430800    5.3207880    2.4755670  
C     3.5301840    4.2549700    0.5616240  
H     5.2877210    3.2111700   -1.7310580  
H     1.5564040    1.2871580   -2.1626870  
H     0.5115240    4.6630780    2.7255120  
H     3.2662780    5.8308810    2.4826020  
H     4.4536140    4.8105530    0.7126130  
H     3.8709240    1.4124100   -3.1657310  
C    -4.1634170   -2.6051900    2.4790980  
C    -5.3008380   -2.9686850    1.8346750  
C    -5.4059370   -2.1383620    0.6530780  
C    -4.2109580   -1.2557850    0.6584200  
N    -3.5143460   -1.5789860    1.7977250  
C    -3.9009350   -0.3051710   -0.2909020  
C    -4.9261680   -0.1079260   -1.3138020  
O    -4.9185150    0.8248440   -2.1207000  
C    -6.1443250   -1.1005140   -1.4090550  
O    -6.8951360   -0.9989780   -2.3652460  
C    -6.3310900   -2.0750800   -0.3405230  
H    -6.0073780   -3.7231670    2.1478390  
H    -7.1954630   -2.7292810   -0.3905150  
H    -3.7419020   -2.9852310    3.4002290  
H    -2.5964270   -1.2174230    2.0134630  
C     1.0121660   -3.9163520    0.8990890  
C     1.2959220   -2.6569770    0.4431510  
C     2.7425910   -2.7153750    0.1069180  
C     3.1384450   -4.1029390    0.4593080  
N     2.1184510   -4.7899960    0.9099600  
C     4.4833830   -4.5721080    0.2762010  
C     5.3896260   -3.7195360   -0.2651560  
O     6.6790800   -4.0331170   -0.4920330  
C     5.0123310   -2.3322420   -0.6725810  
O     5.8791020   -1.6150320   -1.1749120  
C     3.6211840   -1.8671360   -0.4620430  
H     4.7448420   -5.5869690    0.5552250  
H     7.0731370   -3.2292820   -0.8953140  
H     3.3931740   -0.8596860   -0.7988080  
H     0.0559010   -4.2813100    1.2539560  
