58


C     4.1162880   -2.6658350    2.3896980  
C     2.8814010   -2.3513100    1.9234530  
C     2.6196190   -3.1996280    0.7822480  
C     3.8246960   -4.0552930    0.6248120  
N     4.6918220   -3.6802430    1.6299170  
C     3.9825200   -5.0160590   -0.3213660  
C     2.8983630   -5.2305200   -1.2663460  
O     2.9270410   -6.0836720   -2.1403330  
C     1.6264170   -4.3129210   -1.1573040  
O     0.7639270   -4.4207670   -2.0110350  
C     1.5382200   -3.3287450   -0.0477580  
H     2.2314750   -1.5810880    2.3054950  
H     4.8678430   -5.6396780   -0.3988020  
H     4.6633880   -2.2413760    3.2209860  
H     5.6026780   -4.0824600    1.7835110  
C     0.9006750    1.0270630   -0.0834700  
C    -0.4792870    1.0946620   -0.0806700  
C    -0.9395790   -0.2589000   -0.0406510  
C     0.3221950   -1.0719680   -0.0078980  
N     1.3816310   -0.3159950   -0.0377560  
C     0.3085270   -2.5199430    0.0523370  
C    -0.9267910   -3.0958880    0.1363190  
O    -1.1109010   -4.4114030    0.2575260  
C    -2.2191070   -2.3174400    0.0947890  
O    -3.2519770   -2.9784030    0.0925050  
C    -2.1879890   -0.8304870    0.0050530  
H    -1.0929970    1.9830740   -0.0682360  
H    -2.0857550   -4.5456820    0.2300510  
C     1.8227290    2.1296170   -0.1114570  
C     1.5221630    3.4655010   -0.2531260  
C     2.7846560    4.1579990   -0.2171510  
C     3.7955160    3.0644930   -0.0413110  
N     3.2378200    1.8930580    0.0194320  
C     5.2051990    3.3537580    0.0448860  
C     5.5895560    4.6488640   -0.0405660  
O     6.8626220    5.0636280    0.0228160  
C     4.5933090    5.7708180   -0.2191190  
O     5.0389920    6.9162760   -0.2852560  
C     3.1609580    5.4564700   -0.3036830  
H     0.5473430    3.9153400   -0.3806120  
H     5.9179780    2.5464800    0.1701200  
H     6.8224000    6.0419430   -0.0692800  
H     2.4751120    6.2885970   -0.4301100  
C    -3.4285720   -0.0832140   -0.0544490  
C    -3.6806500    1.0509660   -0.7848440  
C    -5.0553950    1.3993690   -0.5035170  
C    -5.5069110    0.3500570    0.4649080  
N    -4.5671560   -0.5115010    0.7183290  
C    -6.8387300    0.3585430    1.0147930  
C    -7.6812440    1.3381420    0.6099060  
O    -8.9474010    1.4649100    1.0309400  
C    -7.2586290    2.3998820   -0.3770790  
O    -8.0915520    3.2516390   -0.6846020  
C    -5.8904570    2.3797560   -0.9170100  
H    -3.0213910    1.5416950   -1.4865560  
H    -7.1403690   -0.4088900    1.7186870  
H    -9.2996300    2.2566680    0.5665040  
H    -5.6208830    3.1636290   -1.6182590  
