60


C     3.5493040    0.8194630   -0.2589850  
C     2.1758850    0.7197150   -0.1273590  
C     1.6432050    2.0390120   -0.0783700  
C     2.7460720    2.9287290   -0.2044540  
N     3.8983720    2.1722680   -0.2579660  
C     2.6086630    4.3178060   -0.2683310  
C     1.3194530    4.8197420   -0.2185430  
O     1.1040380    6.1558230   -0.2908140  
C     0.1901030    3.9583630   -0.0932820  
O    -1.0048530    4.6354460   -0.0242010  
C     0.3195500    2.5700990    0.0156940  
H     1.6331170   -0.2045620   -0.0065290  
H     4.7701890    2.5150740   -0.6365400  
H     3.4525030    4.9927760   -0.3648200  
H     0.1351160    6.2724240   -0.2474300  
H    -1.6414440    4.2012480   -0.6330310  
C    -0.4561720   -0.6835390    2.8827330  
C    -1.7117410   -1.0680200    2.5473840  
C    -2.1078960   -0.1852430    1.4559980  
C    -0.9160760    0.6707340    1.2373130  
N     0.0346670    0.3874500    2.0838030  
C    -0.8647490    1.7093320    0.2037370  
C    -2.0109460    1.8365170   -0.5225550  
O    -2.1568210    2.7553710   -1.5242500  
C    -3.2185210    0.9977130   -0.3403560  
O    -4.1662230    1.2123580   -1.1033060  
C    -3.2623760   -0.0410060    0.7370170  
H    -2.2945650   -1.8704860    2.9754210  
H    -3.0649220    2.6012460   -1.8742710  
H     0.1884940   -1.0938870    3.6500740  
C    -4.9400350   -1.1114930    2.2663810  
C    -4.4959970   -0.7500710    1.0159880  
C    -5.5462970   -1.2661310    0.1100390  
C    -6.5206950   -1.9263790    1.0318600  
N    -6.1547640   -1.8122980    2.2850970  
C    -7.6989700   -2.5925290    0.5564130  
C    -7.9098700   -2.6220380   -0.7824590  
O    -8.9599730   -3.2067110   -1.3680730  
C    -6.9423300   -1.9787880   -1.7431670  
O    -7.1958410   -2.0542740   -2.9417060  
C    -5.7403420   -1.2916950   -1.2219870  
H    -8.3801970   -3.0548660    1.2617300  
H    -8.8386440   -3.0709650   -2.3341100  
H    -5.0878980   -0.8234390   -1.9479900  
H    -4.4663380   -0.8670390    3.2096170  
C     4.5472880   -0.2085560   -0.3278190  
C     4.4384960   -1.5260670   -0.6974750  
C     5.7336250   -2.1347230   -0.5844560  
C     6.6466620   -1.0682690   -0.1066370  
N     5.8924090    0.1003160   -0.0331410  
C     7.9543680   -1.2567830    0.1884210  
C     8.5269340   -2.5892060   -0.0099970  
O     9.6974180   -2.8458010    0.2265080  
C     7.5903570   -3.7236740   -0.5642410  
O     8.0625620   -4.8379530   -0.7459470  
C     6.1929630   -3.3971300   -0.8246840  
H     3.5409430   -2.0020710   -1.0656460  
H     8.6074310   -0.4673220    0.5484690  
H     5.5494060   -4.1926310   -1.1879800  
H     6.1200710    0.8209740    0.6398690  
