62


C     0.0599930    1.0392600   -1.9509650  
C     1.3578350    0.6073100   -1.9075750  
C     1.9391270    1.1268490   -0.7010870  
C     0.9273550    1.8698610   -0.0428420  
N    -0.2199300    1.8112030   -0.8270910  
C     1.1237860    2.4866970    1.1967050  
C     2.3747080    2.3583950    1.7764630  
O     2.6277430    2.9491340    2.9806880  
C     3.4103480    1.6345230    1.1301970  
O     4.6012510    1.6480690    1.8302950  
C     3.2216890    1.0085100   -0.1015870  
H     1.8391390   -0.0163120   -2.6477360  
H     0.3482370    3.0510970    1.7005970  
H     3.5500380    2.7434390    3.2121380  
H     5.2663420    1.1145870    1.3687080  
H    -0.7059600    0.8867740   -2.6981870  
C    -4.0372190   -0.1710280   -0.0697110  
C    -4.7813440    0.9915220    0.1203590  
C    -3.9015600    2.0952960   -0.0312030  
C    -2.6133540    1.5606080   -0.3178760  
N    -2.7191850    0.1981420   -0.3389790  
C    -1.4857190    2.3762950   -0.5264910  
C    -1.6707620    3.7549850   -0.4404680  
O    -0.6242110    4.5951270   -0.6449130  
C    -2.9540330    4.2964620   -0.1358570  
O    -2.9569770    5.6761940   -0.0800380  
C    -4.0586920    3.4968870    0.0611310  
H    -5.8360580    1.0099560    0.3430840  
H    -1.9690130   -0.4618570   -0.4902440  
H    -0.9555820    5.5024720   -0.5221700  
H    -3.8490750    5.9918790    0.1267070  
H    -5.0274130    3.9359420    0.2887430  
C    -7.9754120   -1.9795390    0.7220500  
C    -7.6954110   -3.2979880    0.6342320  
C    -6.2699520   -3.3652150    0.3287010  
C    -5.8361060   -1.9342210    0.2674750  
N    -6.8374090   -1.1381870    0.4973800  
C    -4.4440880   -1.5577090   -0.0200940  
C    -3.5892520   -2.6133430   -0.2288450  
O    -2.2688040   -2.4560310   -0.5094780  
C    -3.9982920   -4.0311110   -0.1739390  
O    -3.1365210   -4.8948270   -0.3795940  
C    -5.4041660   -4.3726290    0.1206300  
H    -8.3652050   -4.1373940    0.7592370  
H    -1.9219610   -3.3735810   -0.5953250  
H    -5.6639040   -5.4265600    0.1530190  
H    -8.9263640   -1.5068470    0.9350840  
C     4.7240320    0.4500160   -2.0653710  
C     4.3154630    0.2809490   -0.7727560  
C     5.1605900   -0.7775630   -0.2204020  
C     6.0919630   -1.1869210   -1.3032850  
N     5.7650610   -0.4090940   -2.3952850  
C     7.0440540   -2.1457500   -1.1785710  
C     7.1707030   -2.8385740    0.1006240  
O     8.0037250   -3.7071420    0.3086100  
C     6.1790680   -2.4427950    1.2549720  
O     6.2542360   -3.0252690    2.3247990  
C     5.1973470   -1.3822800    0.9993620  
H     7.7146110   -2.4291540   -1.9841960  
H     4.5104360   -1.1293240    1.8010100  
H     4.3419070    1.1454990   -2.8007700  
H     6.2303290   -0.4436610   -3.2886870  
