60


C    -1.6854240   -0.3497460    0.0602390  
C    -1.0879260   -1.5978390    0.0323740  
C    -2.1696570   -2.5699040   -0.0282960  
C    -3.3835740   -1.8529890   -0.0306680  
N    -3.0619070   -0.4789720    0.0288190  
C    -4.6306980   -2.4725920   -0.1379510  
C    -4.6449460   -3.8598770   -0.2091620  
O    -5.8319930   -4.5137610   -0.3081090  
C    -3.4334070   -4.5974150   -0.1844040  
O    -3.6103460   -5.9593980   -0.2589790  
C    -2.2018430   -3.9715890   -0.1032510  
H    -5.5653950   -1.9290550   -0.1842190  
H    -5.6397350   -5.4669070   -0.3518620  
H    -2.7483250   -6.4023790   -0.2470480  
H    -1.2712600   -4.5294840   -0.1009760  
H    -1.2379790    0.6274980    0.1619470  
C     0.3233630   -1.8467320    0.0693920  
C     1.3654780   -0.9330200    0.1128850  
C     2.5628040   -1.6968760    0.1320120  
C     2.0848550   -3.1227090    0.0803330  
N     0.7823050   -3.1978020    0.0512250  
C     2.9929060   -4.2291860    0.0480190  
C     4.3166630   -3.9431300    0.0558550  
O     5.2794660   -4.8647090    0.0335450  
C     4.8522190   -2.5195150    0.1309090  
O     6.0725110   -2.4261610    0.2285880  
C     3.9095550   -1.3797300    0.1425390  
H     1.2894260    0.1437580    0.1046790  
H     2.6207180   -5.2469640    0.0153910  
H     6.1218030   -4.3522890    0.0859450  
C     4.4182130   -0.0242800    0.1848330  
C     3.8534950    1.0692090    0.7951810  
C     4.7423290    2.1731490    0.5267190  
C     5.8320330    1.5696970   -0.3071190  
N     5.6484200    0.2975990   -0.4975220  
C     6.9233890    2.3664650   -0.8084690  
C     6.9453260    3.6796210   -0.4808760  
O     7.8992240    4.5387750   -0.8670440  
C     5.8694260    4.3118700    0.3723700  
O     5.9778470    5.5148750    0.6133350  
C     4.7600860    3.4858270    0.8608020  
H     2.9691530    1.0926540    1.4153830  
H     7.6959600    1.9086750   -1.4159760  
H     7.6408310    5.4035030   -0.4754390  
H     4.0022670    3.9765450    1.4639480  
C    -3.9481960    0.5831010    0.0820090  
C    -5.2029440    0.6617620    0.6164070  
C    -5.6764830    2.0061780    0.4014790  
C    -4.5900790    2.7206450   -0.3096150  
N    -3.5276130    1.8218030   -0.4234520  
C    -4.6682110    3.9988610   -0.7435820  
C    -5.8946670    4.7514000   -0.4646260  
O    -6.0503880    5.9094800   -0.8152000  
C    -7.0407310    4.0304720    0.3333860  
O    -8.0625700    4.6505730    0.5855180  
C    -6.8373880    2.6370080    0.7290210  
H    -5.7098450   -0.1121540    1.1715300  
H    -3.8654440    4.5045990   -1.2714440  
H    -7.6426330    2.1421970    1.2631410  
H    -2.8737500    1.8752030   -1.1942000  
