62


C    -0.3070510   -1.7781090    0.1489260  
C    -0.6180880   -3.1337880    0.0714570  
C    -2.0351850   -3.2427360   -0.0256040  
C    -2.5589010   -1.9192810   -0.0172270  
N    -1.4949680   -1.0658890    0.0934800  
C    -3.9464770   -1.6334760   -0.0971330  
C    -4.7877070   -2.7565510   -0.1375020  
O    -6.1460560   -2.6039720   -0.1942490  
C    -4.2741930   -4.0785380   -0.1469860  
O    -5.2594790   -5.0439800   -0.2067040  
C    -2.9199940   -4.3366590   -0.1022810  
H     0.0838860   -3.9516880   -0.0051620  
H    -1.5074990   -0.0552190    0.1324430  
H    -6.5358520   -3.4956190   -0.2444520  
H    -4.8584700   -5.9223470   -0.2818700  
H    -2.5501200   -5.3594800   -0.1135550  
C     3.6556280   -3.1837120    1.4197170  
C     4.3877080   -2.0767510    1.1335090  
C     3.4804220   -1.0719260    0.6278610  
C     2.1468160   -1.6959000    0.6302240  
N     2.3196230   -2.9909070    1.0717060  
C     0.9657520   -1.0912920    0.2543220  
C     1.0793580    0.3446210   -0.0129480  
O     0.1209180    1.0824530   -0.2126700  
C     2.5018000    1.0318110   -0.0035290  
O     2.4965230    2.2493600   -0.1752550  
C     3.7073840    0.2348700    0.2316130  
H     5.4511630   -1.9563150    1.2651660  
H     3.9699220   -4.1284290    1.8426550  
H     1.5514020   -3.5494600    1.4159110  
C     7.3061170   -1.3048620   -1.9640050  
C     6.0458740   -1.1349380   -1.4494920  
C     6.0566740    0.0756310   -0.6753280  
C     7.3714470    0.6057290   -0.7746410  
N     8.1123470   -0.2644600   -1.5488760  
C     7.7541220    1.8171610   -0.1927050  
C     6.7726630    2.5254000    0.4838720  
O     7.0683970    3.7203980    1.0598220  
C     5.4450190    2.0332040    0.5940210  
O     4.6159230    2.8541080    1.3223720  
C     5.0632800    0.7952140    0.0600090  
H     5.2095790   -1.7986400   -1.6111360  
H     9.0697050   -0.1191270   -1.8282890  
H     8.7573290    2.2229670   -0.2743190  
H     6.2264710    4.0445010    1.4350060  
H     3.7608170    2.9037890    0.8364270  
H     7.7000050   -2.0885510   -2.5956360  
C    -4.4534750   -0.2649020   -0.1408890  
C    -3.8233460    0.8926910   -0.5362990  
C    -4.7549670    1.9806980   -0.3944820  
C    -6.0103470    1.3804230    0.1208770  
N    -5.7562610    0.0366040    0.2753190  
C    -7.1484260    2.0785500    0.3699920  
C    -7.1481190    3.5161960    0.1240200  
O    -8.1246030    4.2263930    0.3167310  
C    -5.8238450    4.1762660   -0.4134020  
O    -5.8086590    5.3810870   -0.6208720  
C    -4.6636240    3.3166300   -0.6444690  
H    -2.8314760    0.9832120   -0.9527410  
H    -8.0585400    1.6209180    0.7456040  
H    -3.7560850    3.7820580   -1.0170280  
H    -6.4490550   -0.6768280    0.4471870  
