60


C    -1.7121540    3.3270800    2.1901810  
C    -2.8518000    2.7662090    1.6758790  
C    -2.4365130    1.7376860    0.7647680  
C    -1.0167760    1.7224980    0.7776170  
N    -0.6046920    2.6953810    1.6582310  
C    -0.2597910    0.8058820    0.0240850  
C    -0.9645550   -0.1153540   -0.7506620  
O    -0.2963210   -1.0415050   -1.5007420  
C    -2.3808620   -0.1071220   -0.7932830  
O    -2.9166480   -1.0169650   -1.6781390  
C    -3.1217690    0.8104690   -0.0505350  
H    -3.8652600    3.0415590    1.9292710  
H     0.3562690    2.9514220    1.8297420  
H    -0.9871770   -1.5576900   -1.9594410  
H    -3.7526590   -1.3836060   -1.3310310  
H    -1.5925570    4.1291270    2.9042540  
C     1.9064240   -0.3748120    0.3142380  
C     3.2451860   -0.1622760    0.1775470  
C     3.3977080    1.2522320   -0.1789690  
C     2.0262050    1.8107640   -0.2655620  
N     1.1546590    0.7777150    0.0715860  
C     1.7346270    3.0879900   -0.6279350  
C     2.8382110    3.9912970   -0.9408650  
O     2.6712920    5.1547060   -1.2743590  
C     4.2986940    3.4265040   -0.8406120  
O     5.2372740    4.1609510   -1.1000360  
C     4.4811930    2.0219460   -0.4469260  
H     0.7221870    3.4633690   -0.7274140  
H     5.4961180    1.6508460   -0.3708900  
H     1.3895190   -1.2793620    0.6016090  
C     3.3656620   -4.2119510   -1.4701960  
C     4.5534470   -4.6364610   -0.9685180  
C     5.1064570   -3.5468880   -0.1916960  
C     4.1259090   -2.4387310   -0.2810350  
N     3.0816790   -2.9159040   -1.0494370  
C     4.2747590   -1.2004170    0.2888790  
C     5.5114090   -0.9787850    1.0589860  
O     5.7573700    0.0736170    1.6273550  
C     6.5602360   -2.1485150    1.1708350  
O     7.5855450   -1.9470990    1.8021170  
C     6.2653530   -3.4160310    0.5091120  
H     5.0062350   -5.6054880   -1.1192470  
H     6.9970960   -4.2136400    0.5908750  
H     2.6621880   -4.7344020   -2.1049930  
H     2.3122610   -2.3483090   -1.3764940  
C    -5.3085560    1.9289570   -0.5393160  
C    -6.6221250    1.6144830   -0.6238950  
C    -6.7563210    0.2184360   -0.2590720  
C    -5.3858840   -0.2550660    0.0612470  
N    -4.5396030    0.8228960   -0.1287770  
C    -5.0872770   -1.5235060    0.4667860  
C    -6.1777800   -2.4894990    0.5932520  
O    -6.0077600   -3.6379650    0.9701130  
C    -7.6302690   -2.0138250    0.2296000  
O    -8.5501130   -2.8118920    0.2939060  
C    -7.8246260   -0.6141660   -0.1720180  
H    -7.4230640    2.2772820   -0.9176310  
H    -4.0967480   -1.8262630    0.7946430  
H    -8.8381690   -0.2922320   -0.3916560  
H    -4.8021870    2.8618070   -0.7460370  
