58


C    -0.6245800    0.6542150   -0.0679730  
C    -0.6728480    2.0195080   -0.1969310  
C    -2.0506970    2.4146430   -0.1347940  
C    -2.8455670    1.1673760    0.0340270  
N    -1.9349530    0.1495580    0.0329000  
C    -4.2296360    1.1040940    0.1093570  
C    -4.9073820    2.4027760    0.0334550  
O    -6.1306630    2.5411660    0.0322650  
C    -4.0749590    3.7355370   -0.0821900  
O    -4.6865420    4.7929200   -0.0943300  
C    -2.6304740    3.6442380   -0.1945570  
H     0.1799080    2.6656160   -0.3216780  
H    -2.0607190    4.5611540   -0.3064820  
H    -2.1363510   -0.7630420    0.4210640  
C     3.6468330    1.5578580   -0.3592110  
C     4.2392200    0.3306230   -0.2464450  
C     3.0921170   -0.5995280   -0.1089310  
C     1.8913460    0.2841000   -0.1503270  
N     2.2376880    1.5316810   -0.3088300  
C     0.5266470   -0.2326320   -0.0306350  
C     0.4308530   -1.5917640    0.1432340  
O    -0.7270460   -2.2536630    0.2773420  
C     1.6255320   -2.4912410    0.2151650  
O     1.4164500   -3.6896260    0.4002360  
C     2.9781190   -1.9281430    0.0666550  
H    -0.4814670   -3.1962230    0.4305260  
H     3.8103700   -2.6201050    0.0803630  
H     4.1384200    2.5094560   -0.5170500  
C     7.6748870    2.5319550    1.4901380  
C     6.4300910    2.1006630    1.1496540  
C     6.5847510    0.9017460    0.3580450  
C     8.0444370    0.6616990    0.2706860  
N     8.6461860    1.6962100    0.9594930  
C     8.6329730   -0.3855090   -0.3648970  
C     7.7690150   -1.3665050   -0.9957400  
O     8.1809850   -2.3571200   -1.5786470  
C     6.2107690   -1.1496830   -0.9160690  
O     5.4988440   -1.9907870   -1.4393900  
C     5.6690720    0.0522560   -0.2304240  
H     5.5000650    2.5602490    1.4449890  
H     9.7075120   -0.5304640   -0.4136570  
H     7.9643740    3.3870750    2.0862650  
H     9.6397210    1.7885880    1.1029230  
C    -8.0261690   -0.3548020   -1.7088000  
C    -8.0558040   -1.6132510   -1.2025470  
C    -6.8959600   -1.7546530   -0.3525130  
C    -6.1693770   -0.4551220   -0.4219850  
N    -6.8876450    0.3312610   -1.2969820  
C    -4.9899110   -0.1627480    0.2350470  
C    -4.5099690   -1.2313440    1.1318090  
O    -3.5291020   -1.1085860    1.8578190  
C    -5.2421840   -2.6266600    1.1780260  
O    -4.7443790   -3.5085100    1.8616320  
C    -6.4521740   -2.7995360    0.3952170  
H    -8.8003290   -2.3725770   -1.3923640  
H    -6.9601260   -3.7580450    0.4328600  
H    -8.7318100    0.1369170   -2.3658250  
H    -6.8406880    1.3430960   -1.1966870  
