60


C    -1.8988430   -0.8121170    0.4416580  
C    -2.8499590    0.1725470    0.3140920  
C    -2.1582520    1.4419220    0.4427290  
C    -0.7916260    1.1583440    0.6556590  
N    -0.6469440   -0.2444430    0.6435290  
C     0.1600050    2.1627090    0.8637700  
C    -0.2776260    3.4797210    0.8128560  
O     0.6126840    4.4856590    1.0101780  
C    -1.6402810    3.7822350    0.5574780  
O    -1.9116640    5.1284670    0.5190180  
C    -2.5787740    2.7812900    0.3765100  
H     1.2055270    1.9731770    1.0733340  
H     0.1337680    5.3289020    0.9268220  
H    -2.8514690    5.2767720    0.3348200  
H    -3.6166080    3.0307960    0.1761770  
H    -1.9995120   -1.8865770    0.4129870  
C     0.5017310   -0.9909850    0.8467970  
C     0.6356900   -2.2303650    1.4066200  
C     2.0271070   -2.5916810    1.3168150  
C     2.7110470   -1.4539510    0.6584780  
N     1.7388610   -0.4936880    0.4318760  
C     4.0326960   -1.4241990    0.3188110  
C     4.8523870   -2.5883100    0.7301850  
O     6.0612810   -2.6130370    0.5874920  
C     4.1433740   -3.8005410    1.4292550  
O     4.8126810   -4.7806960    1.7158600  
C     2.7123440   -3.7045900    1.7000170  
H    -0.1448170   -2.8041210    1.8835410  
H     2.2311530   -4.5518960    2.1783860  
H     1.8521690    0.2747710   -0.2140790  
C     4.3724380    3.0166130    0.9136060  
C     4.0624120    1.7119100    1.1234040  
C     4.6399150    0.9976410   -0.0100740  
C     5.2995130    2.0750580   -0.8134480  
N     5.1315750    3.2495880   -0.2719530  
C     6.0307600    1.7842740   -2.0178950  
C     6.0963110    0.4931580   -2.4176170  
O     6.7363280    0.0797790   -3.5209770  
C     5.3918130   -0.6101490   -1.6702600  
O     5.3868480   -1.7216350   -2.1855700  
C     4.6744460   -0.3068290   -0.3894160  
H     3.5398610    1.2783020    1.9640970  
H     6.5082010    2.5856970   -2.5704760  
H     6.5759900   -0.8878490   -3.5752240  
H     4.1167780    3.8655870    1.5364870  
C    -4.2600040   -0.0516010    0.0913190  
C    -5.3411230    0.7311190    0.4029080  
C    -6.5341780    0.0427500   -0.0187190  
C    -6.0771890   -1.2293960   -0.6294570  
N    -4.6978570   -1.2591830   -0.4806300  
C    -6.8981470   -2.1408690   -1.2045490  
C    -8.3373470   -1.8791640   -1.2007810  
O    -9.1510730   -2.6440960   -1.6940810  
C    -8.8485210   -0.5579290   -0.5179170  
O   -10.0490480   -0.3314970   -0.4957190  
C    -7.8577830    0.3537270    0.0538390  
H    -5.3106570    1.6639370    0.9461420  
H    -6.5467620   -3.0641030   -1.6553250  
H    -8.2209750    1.2700640    0.5093550  
H    -4.1024130   -1.8169950   -1.0764560  
