64


C    -2.2458980   -1.1193510   -0.1787760  
C    -1.0361440   -0.5887550    0.2129240  
C    -1.2815990    0.8087550    0.5009500  
C    -2.6558840    1.0528810    0.2588190  
N    -3.2330600   -0.1440700   -0.1536140  
C    -3.2495690    2.3038370    0.4604480  
C    -2.4371200    3.3340080    0.9069180  
O    -2.9623620    4.5788880    1.1073580  
C    -1.0603600    3.1067200    1.1632660  
O    -0.3762170    4.2202800    1.6202600  
C    -0.4797550    1.8663080    0.9751460  
H    -4.2994270    2.4878040    0.2662510  
H    -2.2332250    5.1547410    1.3944510  
H     0.5704990    4.0171390    1.6462660  
H     0.5692550    1.7159170    1.2199450  
H    -2.4794440   -2.1119740   -0.5364310  
C    -6.0729480   -2.7658430    1.8477520  
C    -7.1494430   -2.5113420    1.0382590  
C    -6.7216330   -1.5609700    0.0499110  
C    -5.3582450   -1.2798770    0.3196820  
N    -4.9862670   -2.0269980    1.4149300  
C    -4.6019070   -0.3765900   -0.4496040  
C    -5.2432150    0.2552250   -1.5131430  
O    -4.5579210    1.1290590   -2.3007010  
C    -6.6131170   -0.0085030   -1.7790570  
O    -7.1049750    0.7020570   -2.8581080  
C    -7.3508270   -0.9016000   -1.0252930  
H    -8.1336520   -2.9487910    1.1338260  
H    -4.0748710   -2.0011010    1.8458590  
H    -5.1795550    1.4520900   -2.9763320  
H    -8.0221890    0.4411370   -3.0269850  
H    -8.3983090   -1.0826490   -1.2573130  
H    -5.9832550   -3.4188280    2.7043100  
C     0.2241250   -1.3055200    0.2944820  
C     0.4974890   -2.6344110    0.5445360  
C     1.9176930   -2.8115480    0.4743050  
C     2.4798630   -1.5403050    0.1872340  
N     1.4356370   -0.6401740    0.1080940  
C     3.8621770   -1.3268220    0.0099980  
C     4.6825430   -2.4519590    0.1432540  
O     6.0332800   -2.3151480    0.0337060  
C     4.1376110   -3.7236350    0.4460920  
O     5.0889770   -4.7216800    0.5678090  
C     2.7784840   -3.9168290    0.6152570  
H    -0.2369480   -3.3907130    0.7866030  
H     1.5077790    0.2772420   -0.3053800  
H     6.4150610   -3.2099120    0.0554360  
H     4.6477230   -5.5834300    0.5912300  
H     2.3882580   -4.9056450    0.8482650  
C     3.7908840    2.6002430    2.0944150  
C     3.6136790    1.3008630    1.7427700  
C     4.2704930    1.1051180    0.4613510  
C     4.8521660    2.4179780    0.0955300  
N     4.4948530    3.2905170    1.1084920  
C     5.6065230    2.6577810   -1.0086700  
C     5.8609330    1.5488950   -1.9143580  
O     6.5618240    1.6414220   -2.9113740  
C     5.1887720    0.1618630   -1.5969890  
O     5.2721510   -0.7220780   -2.4281800  
C     4.4333410   -0.0060350   -0.3212480  
H     3.1008800    0.5425660    2.3148020  
H     6.0460380    3.6242900   -1.2353810  
H     3.4761300    3.1178860    2.9916290  
H     4.8683740    4.2214190    1.2105200  
