58


C     3.7484770   -0.8586080   -1.7331430  
C     4.8063940   -1.6555840   -2.0128050  
C     5.9365710   -1.1640860   -1.2594050  
C     5.4476480    0.0142600   -0.5012390  
N     4.1015720    0.1761250   -0.8501700  
C     6.2052280    0.7097830    0.3816350  
C     7.6006230    0.3106490    0.5698240  
O     8.3507900    0.8868390    1.3427010  
C     8.1481610   -0.9058870   -0.2580200  
O     9.3165910   -1.2367390   -0.1245700  
C     7.2194700   -1.5991920   -1.1502340  
H     4.8009230   -2.5151320   -2.6673040  
H     5.8439370    1.5571970    0.9485810  
H     7.5898710   -2.4639500   -1.6923960  
H     2.7276180   -0.9224930   -2.0760290  
C     0.0452330   -0.3212600    0.5923580  
C    -0.2475440    0.9686700    0.9603900  
C     0.9272800    1.7505430    0.6569610  
C     1.8819360    0.7568670    0.0802330  
N     1.3764950   -0.4354850    0.0401470  
C     3.2102670    1.1524950   -0.3729100  
C     3.5173350    2.4802370   -0.2932700  
O     4.6740560    3.0083110   -0.7217660  
C     2.5771240    3.4839580    0.3042290  
O     2.9600830    4.6561910    0.3339110  
C     1.2569150    3.0562110    0.7802820  
H    -1.1307480    1.3394950    1.4624020  
H     4.6037740    3.9688150   -0.5126400  
H     0.6005360    3.8189310    1.1869350  
C    -4.3069400   -0.7425840    0.1837630  
C    -4.3950490   -2.1140830    0.3185620  
C    -3.0652670   -2.6253150    0.5117600  
C    -2.1647960   -1.4520220    0.4973810  
N    -2.9681250   -0.3635060    0.2955010  
C    -0.7938110   -1.5011210    0.6364250  
C    -0.2097690   -2.8457250    0.8764990  
O     0.9524540   -3.0240000    1.1857870  
C    -1.1484680   -4.1031610    0.7965770  
O    -0.6456030   -5.2144880    0.8567700  
C    -2.5866030   -3.8929910    0.6645230  
H    -5.2958740   -2.7052500    0.3894430  
H    -3.2290120   -4.7684820    0.6622450  
H    -2.6858900    0.6077900    0.2509560  
C    -8.4171560   -1.0811880   -1.3602410  
C    -8.8271370    0.1976030   -1.1899180  
C    -7.7072650    0.9381480   -0.6437900  
C    -6.6012490   -0.0361520   -0.4900780  
N    -7.0986560   -1.2389370   -0.9141480  
C    -5.3356280    0.2597440   -0.0204760  
C    -5.0665700    1.6869340    0.2311420  
O    -3.9535810    2.1358040    0.4792470  
C    -6.2563310    2.7112360    0.1740330  
O    -6.0453530    3.8605290    0.5180760  
C    -7.5571860    2.2451380   -0.3051830  
H    -9.8018000    0.6001350   -1.4233100  
H    -8.3595520    2.9719950   -0.3821910  
H    -8.9514820   -1.9342140   -1.7559110  
H    -6.5181660   -2.0428930   -1.1065320  
