58


C    -5.4112220    1.4057320   -1.7332960  
C    -5.2892520    2.7535140   -1.7491460  
C    -4.4160320    3.1284810   -0.6591270  
C    -4.0307910    1.8627970    0.0140960  
N    -4.6409270    0.8313420   -0.7035020  
C    -3.2623430    1.8022740    1.1324490  
C    -2.7386140    3.0504520    1.6886610  
O    -2.0312480    3.0811130    2.6834850  
C    -3.1022640    4.3959410    0.9661780  
O    -2.6582920    5.4440170    1.4062220  
C    -3.9744260    4.3317350   -0.2097780  
H    -5.7648780    3.4283770   -2.4459660  
H    -3.0281400    0.8816880    1.6533780  
H    -4.2533590    5.2692520   -0.6811310  
H    -5.9886920    0.7581340   -2.3749210  
C    -1.2412980   -1.8292310    0.0662460  
C    -1.9656240   -2.9767030    0.3051380  
C    -3.3600750   -2.6653890    0.1522680  
C    -3.4182940   -1.2292110   -0.1973800  
N    -2.1214810   -0.7826460   -0.2284800  
C    -4.5849300   -0.5473600   -0.4257770  
C    -5.8442240   -1.3120640   -0.3768820  
O    -6.9289280   -0.8095740   -0.6194440  
C    -5.7820800   -2.8420660   -0.0131730  
O    -6.8288890   -3.4682840    0.0213580  
C    -4.4781740   -3.4415820    0.2458470  
H    -1.5627380   -3.9567960    0.5050470  
H    -4.4429140   -4.4961280    0.4992940  
H    -1.7961100    0.1186250   -0.5526200  
C     2.2510960   -4.0668950    1.7513010  
C     0.9783670   -3.6567310    1.5245230  
C     1.0925140   -2.4911830    0.6625600  
C     2.5633820   -2.3316740    0.4804110  
N     3.2304420   -3.2621040    1.0996350  
C     3.1348250   -1.2416480   -0.2962650  
C     2.2544780   -0.3647360   -0.8688880  
O     2.6403980    0.6701570   -1.6383010  
C     0.7930340   -0.4805430   -0.6769050  
O     0.0933400    0.4051210   -1.1865630  
C     0.2015080   -1.6489730    0.0576600  
H     0.0745900   -4.0672450    1.9476900  
H     1.8172720    1.1524370   -1.8705410  
H     2.5866130   -4.8974640    2.3597560  
C     5.3900310   -2.2145020   -0.6373870  
C     6.6794550   -1.8117540   -0.7123170  
C     6.7112150   -0.3850940   -0.4860050  
C     5.3050320    0.0323770   -0.2710900  
N     4.5250230   -1.1283480   -0.4038210  
C     4.9362870    1.2927110    0.0605270  
C     5.9770650    2.3232800    0.1503450  
O     5.7241700    3.4831090    0.4305490  
C     7.4643440    1.9098400   -0.1262490  
O     8.3383860    2.7596900   -0.0720060  
C     7.7377380    0.5022700   -0.4245180  
H     7.5333210   -2.4463360   -0.9014430  
H     3.9153740    1.5957660    0.2485960  
H     8.7726650    0.2082090   -0.5702820  
H     4.9697520   -3.2034140   -0.7302490  
