60


C    -0.2873930    1.4138190    0.0946280  
C     1.0887370    1.3203840    0.0891140  
C     1.4401460   -0.0515200   -0.1351440  
C     0.2162560   -0.7569690   -0.2742670  
N    -0.8144320    0.1504470   -0.1527140  
C     0.1605550   -2.1324980   -0.5565310  
C     1.3788600   -2.7796740   -0.7581670  
O     1.4031870   -4.1010850   -1.0710000  
C     2.6114220   -2.0846200   -0.6600380  
O     3.7001800   -2.8927280   -0.8728700  
C     2.6828490   -0.7327020   -0.3060020  
H     1.7672960    2.1560820    0.1752210  
H    -1.7795380   -0.1029570    0.0042940  
H     2.3487280   -4.3178680   -1.1986460  
H     4.3326850   -2.3780600   -1.4297700  
C     4.2117860    1.8041380    3.0011960  
C     3.4875570    0.9577910    2.2211460  
C     4.2261110    0.7553530    0.9962310  
C     5.4623770    1.5672140    1.1303960  
N     5.3761670    2.2000240    2.3552870  
C     6.4442100    1.6540510    0.1970980  
C     6.2903830    0.8598670   -1.0089510  
O     7.0768070    0.8796160   -1.9416910  
C     5.0535660   -0.1089520   -1.1046020  
O     5.0772360   -0.9333370   -2.0178260  
C     3.9666150   -0.0197270   -0.1154170  
H     2.5413460    0.5067740    2.4742250  
H     7.3168670    2.2915870    0.2942710  
H     3.9964870    2.1720510    3.9957620  
H     6.1127480    2.7515370    2.7670640  
C    -1.4426440   -3.6060950   -1.7934170  
C    -2.6804850   -4.1319610   -1.6351140  
C    -3.1720040   -3.7028440   -0.3436080  
C    -2.0941530   -2.8704100    0.2498400  
N    -1.0678750   -2.8271880   -0.6855410  
C    -2.1608670   -2.3044370    1.4855980  
C    -3.3695190   -2.5044440    2.2801400  
O    -3.5134220   -2.0341930    3.3991560  
C    -4.5305800   -3.3632870    1.6600370  
O    -5.5534350   -3.5297150    2.3054490  
C    -4.3305080   -3.9370430    0.3262440  
H    -3.2045340   -4.7596840   -2.3410650  
H    -1.3458700   -1.7421650    1.9278380  
H    -5.1297280   -4.5473430   -0.0833700  
H    -0.7473950   -3.7064200   -2.6140850  
C    -0.9128390    3.6109720    1.1476810  
C    -1.1503040    2.5637510    0.3027600  
C    -2.4210300    2.8518380   -0.3625700  
C    -2.8901590    4.1512350    0.1798860  
N    -1.9165600    4.5650050    1.0697840  
C    -4.0483010    4.7612730   -0.1758000  
C    -4.8962420    4.1151420   -1.1747300  
O    -5.9561990    4.5866940   -1.5547740  
C    -4.4033910    2.7555600   -1.7900490  
O    -5.0828590    2.2079560   -2.6425480  
C    -3.1338010    2.1929930   -1.3127910  
H    -4.3735280    5.7118270    0.2357380  
H    -2.8023300    1.2617300   -1.7606600  
H    -0.0807110    3.7518430    1.8243410  
H    -1.9888430    5.3781920    1.6611750  
