58


C     5.2026850   -1.5960020   -1.7611950  
C     4.8367550   -0.7007720   -0.7874510  
C     6.0830840   -0.2769370   -0.1347290  
C     7.1752110   -1.0129680   -0.8187460  
N     6.5645520   -1.7878300   -1.7923910  
C     8.4929170   -0.9185020   -0.5156950  
C     8.8887310   -0.0393270    0.5816460  
O    10.0487040    0.1139550    0.9290130  
C     7.7522080    0.7279780    1.3453050  
O     8.0504490    1.4501710    2.2817560  
C     6.3607260    0.5491720    0.9046960  
H     9.2669170   -1.4713400   -1.0391230  
H     5.6003220    1.1159000    1.4272410  
H     4.5645770   -2.1020010   -2.4732380  
H     7.0561580   -2.3467110   -2.4733100  
C     1.0082090   -2.9466000   -0.6385270  
C     2.3306660   -2.6573000   -0.6751060  
C     2.4079320   -1.2093670   -0.5415220  
C     0.9868620   -0.7733290   -0.4204100  
N     0.1823230   -1.7981600   -0.4915390  
C     0.5952280    0.6306200   -0.2491830  
C     1.6481570    1.5163590   -0.1573960  
O     1.5326870    2.8263000    0.0628350  
C     3.0859210    1.0921540   -0.2865330  
O     3.9321010    1.9835530   -0.2098620  
C     3.4509570   -0.3334890   -0.5186730  
H     3.1598910   -3.3466840   -0.7404960  
H     2.4560060    3.1697520    0.0567880  
H     0.5343060   -3.9193120   -0.6937760  
C    -0.7994460    1.0176470   -0.1761990  
C    -1.9028150    0.2065590   -0.0812730  
C    -3.0420190    1.0905360   -0.0460800  
C    -2.4473420    2.4597820   -0.1440020  
N    -1.1534870    2.4191840   -0.2219010  
C    -3.2657320    3.6450270   -0.1692350  
C    -4.6051570    3.4780320   -0.0980310  
O    -5.4929130    4.4850140   -0.0992080  
C    -5.2407980    2.1141750    0.0116600  
O    -6.4646700    2.0819260    0.1258700  
C    -4.3895240    0.8957490    0.0025750  
H    -1.9079680   -0.8686030   -0.0349170  
H    -2.8052690    4.6240660   -0.2390410  
H    -6.3713550    4.0508290   -0.0162470  
C    -4.0417020   -2.3704680    2.9389280  
C    -4.9275910   -3.2773260    2.4691450  
C    -5.4825190   -2.6750710    1.2607540  
C    -4.7791810   -1.3536500    1.1565230  
N    -3.9465100   -1.1830590    2.1391140  
C    -5.0566370   -0.4184580    0.0761980  
C    -5.9861070   -0.8135040   -0.8391740  
O    -6.3235040   -0.0894470   -1.9133170  
C    -6.7034200   -2.1352060   -0.7537840  
O    -7.5191300   -2.3930110   -1.6368380  
C    -6.4060630   -3.0549290    0.3576480  
H    -5.1873380   -4.2409600    2.8846570  
H    -7.0148210   -0.6135290   -2.3764640  
H    -6.9509320   -3.9936030    0.3869780  
H    -3.4196070   -2.4399610    3.8231530  
