58


C     5.2186050   -1.6946270   -1.8483360  
C     6.3328910   -2.4636450   -1.8456780  
C     7.1973890   -1.9729200   -0.7932270  
C     6.4870420   -0.8286520   -0.1731180  
N     5.2724800   -0.6977770   -0.8608790  
C     6.9555680   -0.1302300    0.8878360  
C     8.2584690   -0.5008670    1.4444430  
O     8.7511380    0.0691440    2.4045230  
C     9.0419910   -1.6889750    0.7798380  
O    10.1327190   -2.0056270    1.2270810  
C     8.4137280   -2.3817130   -0.3478540  
H     6.5466150   -3.2818640   -2.5183260  
H     6.4299350    0.7016160    1.3416250  
H     8.9472420   -3.2190630   -0.7872990  
H     4.3557640   -1.7341360   -2.4995720  
C     1.0110720   -1.1835270   -0.1299520  
C     2.3373640   -1.3858500   -0.3067610  
C     2.9625280   -0.0911910   -0.4400410  
C     1.8840770    0.9140160   -0.3223560  
N     0.6865350    0.1806580   -0.1409850  
C     2.0866620    2.2532380   -0.3618290  
C     3.4552840    2.7396950   -0.5416670  
O     3.7402330    3.9250380   -0.5372150  
C     4.6107040    1.7009930   -0.7503760  
O     5.7284450    2.0950710   -1.0230490  
C     4.2696560    0.2625160   -0.6358930  
H     2.8352470   -2.3441850   -0.3190080  
H     1.2831630    2.9682950   -0.2591760  
H     0.2294300   -1.9123220    0.0222750  
C    -0.6032920    0.6492480    0.0115290  
C    -1.7529550   -0.0975130    0.1858520  
C    -2.8045530    0.8631790    0.2830360  
C    -2.1134440    2.1810280    0.1415090  
N    -0.8209800    2.0394300   -0.0124830  
C    -2.8152350    3.4309810    0.1602900  
C    -4.1602560    3.3727000    0.2886440  
O    -4.9581420    4.4418380    0.3047770  
C    -4.9083360    2.0553310    0.4252770  
O    -6.1311810    2.1565250    0.5370820  
C    -4.1759600    0.7727930    0.4386580  
H    -1.8580720   -1.1702030    0.2075190  
H    -2.2786370    4.3675290    0.0613290  
H    -5.8698270    4.0864060    0.4179160  
C    -4.3802320   -1.5635140    1.3521400  
C    -4.8778560   -0.4754540    0.6769050  
C    -6.2248240   -0.9246750    0.2423330  
C    -6.3224120   -2.3213770    0.7585270  
N    -5.2428440   -2.6706090    1.4127630  
C    -7.4786480   -3.1431860    0.5375410  
C    -8.4990200   -2.6200480   -0.1854850  
O    -9.6333660   -3.2722220   -0.4742990  
C    -8.4277750   -1.2245880   -0.7387780  
O    -9.3846020   -0.8180530   -1.3939250  
C    -7.2287930   -0.3952410   -0.4818860  
H    -7.5092580   -4.1502860    0.9380530  
H   -10.1711800   -2.6449210   -1.0062680  
H    -7.2387360    0.6127310   -0.8765590  
H    -3.4266110   -1.6227900    1.8620630  
