58


C    -0.8218710   -1.4963110    2.0004730  
C    -2.0696370   -1.5045420    1.4665030  
C    -2.1671830   -0.3605530    0.5840770  
C    -0.8516760    0.3187490    0.6475350  
N    -0.0972140   -0.3971220    1.5532950  
C    -0.5093680    1.4511170   -0.0516620  
C    -1.5157450    1.9513690   -1.0105530  
O    -1.2673640    2.8066810   -1.8414140  
C    -2.9501820    1.3285270   -0.9945840  
O    -3.8378570    1.9052380   -1.5952350  
C    -3.1913240    0.0966350   -0.2042810  
H    -2.8465510   -2.2285030    1.6579960  
H    -0.3630080   -2.1919020    2.6903110  
H     0.9053700   -0.3028840    1.6450650  
C     3.8517850    0.2699170   -0.0395790  
C     2.4795340    0.2108690   -0.1346440  
C     2.0132930    1.5636670    0.0394950  
C     3.2656950    2.3564340    0.2184800  
N     4.3282160    1.6051510    0.1739120  
C     3.2448920    3.7837830    0.4008570  
C     2.0373450    4.3922010    0.4195940  
O     1.8615440    5.7103540    0.5882570  
C     0.7456600    3.6173820    0.3123880  
O    -0.2887020    4.2460210    0.5125080  
C     0.7748730    2.1446590    0.0617580  
H     1.8936490   -0.6687760   -0.3440790  
H     4.1730630    4.3323240    0.5148770  
H     0.8871980    5.8409120    0.6149380  
C     3.1948930   -4.0564020    0.3152870  
C     4.4377160   -4.5520570    0.1278570  
C     5.2830600   -3.3834520   -0.0753190  
C     4.3419480   -2.2166310    0.0192900  
N     3.1297350   -2.6263590    0.2597620  
C     4.7932420   -0.8303260   -0.1267890  
C     6.1459090   -0.6716000   -0.3446590  
O     6.7589430    0.4922340   -0.5381010  
C     7.0995580   -1.8402110   -0.4312240  
O     8.2850880   -1.5825030   -0.6352460  
C     6.6012950   -3.2141030   -0.2823270  
H     4.7579010   -5.5844870    0.1272140  
H     7.7086220    0.2625800   -0.6731160  
H     7.3260790   -4.0197330   -0.3482030  
H     2.2770720   -4.6033580    0.4949920  
C    -6.3724000   -0.8003840    2.8004470  
C    -5.2234630   -0.4076830    2.1910390  
C    -5.3483920   -0.7278260    0.7841000  
C    -6.6896530   -1.3412790    0.6226820  
N    -7.2470510   -1.3772630    1.8872540  
C    -7.2268720   -1.7453680   -0.5571360  
C    -6.4340660   -1.5765800   -1.7668210  
O    -6.8341930   -1.8824560   -2.8792370  
C    -4.9853960   -0.9871710   -1.6241650  
O    -4.2617260   -0.9763830   -2.6027890  
C    -4.5188340   -0.5276930   -0.2878450  
H    -4.3766790    0.0626680    2.6666590  
H    -8.2224250   -2.1690260   -0.6468480  
H    -6.6574350   -0.7209620    3.8412580  
H    -8.1923240   -1.6639990    2.0877580  
