60


C    -3.9773110   -1.3779970   -1.8093420  
C    -4.6243110   -2.4137360   -1.2064630  
C    -3.6475590   -3.1121150   -0.3945300  
C    -2.3715400   -2.3758590   -0.5740800  
N    -2.6250000   -1.3672610   -1.4943890  
C    -1.1936020   -2.6739090    0.0562530  
C    -1.2629010   -3.7750950    1.0523270  
O    -0.3682370   -4.0075750    1.8450370  
C    -2.5626250   -4.6568980    1.1309600  
O    -2.5417300   -5.6628180    1.8237970  
C    -3.7401220   -4.2180080    0.3918760  
H    -5.6568490   -2.7009670   -1.3474240  
H    -4.6540520   -4.7949390    0.4955390  
H    -4.3706600   -0.6307760   -2.4872550  
H    -2.0716900   -0.5115190   -1.4314680  
C    -0.2716470    1.6539220   -0.0548090  
C     1.1070490    1.6240690   -0.0491200  
C     1.4837770    0.2511960   -0.0783460  
C     0.1746730   -0.4965040   -0.0835310  
N    -0.8324520    0.3325980   -0.0903370  
C     0.0784420   -1.9404180   -0.0989200  
C     1.2818900   -2.5820970   -0.2207510  
O     1.4087000   -3.8946370   -0.3547260  
C     2.6267770   -1.8652920   -0.2238310  
O     3.6121360   -2.6046530   -0.2680170  
C     2.6860960   -0.4054960   -0.1602960  
H     1.7820450    2.4648400    0.0027340  
H     2.3844400   -4.0548930   -0.3661730  
C     4.6326030    2.3427980    2.6882150  
C     5.8461080    2.5321560    2.1227480  
C     5.8168520    1.7488990    0.8914360  
C     4.4476460    1.1334500    0.8820780  
N     3.7663800    1.4855720    1.9319360  
C     4.0077460    0.2487200   -0.1878320  
C     4.9055120    0.0303500   -1.1919130  
O     4.6420550   -0.7164750   -2.2724510  
C     6.2804900    0.6398150   -1.2049690  
O     7.0065380    0.3821300   -2.1639450  
C     6.7006420    1.5154080   -0.0966190  
H     6.6741330    3.1225140    2.4897040  
H     5.4685330   -0.7058800   -2.8050460  
H     7.7041440    1.9277490   -0.1400630  
H     4.2585410    2.7516290    3.6193050  
C    -0.8457730    4.1055720   -0.1493080  
C    -1.1837200    2.7568600   -0.0508910  
C    -2.6361450    2.7109190    0.0139960  
C    -3.0995970    4.0433730   -0.0643900  
N    -1.9789490    4.8619770   -0.1575830  
C    -4.4564460    4.3839840   -0.0476600  
C    -5.3714440    3.3441760    0.0447060  
O    -6.7066690    3.6119070    0.0501460  
C    -4.9254310    1.9987350    0.1356500  
O    -5.9409790    1.0710680    0.2238060  
C    -3.5806470    1.6764010    0.1393700  
H    -2.0005190    5.8683290   -0.2311920  
H    -4.8106420    5.4077800   -0.1092300  
H    -7.1706470    2.7592900    0.1217190  
H    -5.5702620    0.1752100    0.1567820  
H    -3.2528050    0.6504700    0.2523080  
H     0.1290220    4.5650930   -0.2289100  
