62


C     0.7423760    1.3479810   -0.6401350  
C     0.7992290    2.7209480   -0.7764950  
C     2.1469410    3.1234660   -0.5361940  
C     2.8943320    1.9484480   -0.2659090  
N     2.0302370    0.8736560   -0.3733260  
C     4.2716790    1.9669520    0.0707590  
C     4.8647750    3.2383420    0.1392200  
O     6.1739450    3.3627290    0.4726310  
C     4.1279880    4.4157890   -0.1580290  
O     4.8843300    5.5642180   -0.0684300  
C     2.7923210    4.3766370   -0.5004000  
H    -0.0297820    3.3588540   -1.0493850  
H     2.2167100   -0.0189250    0.0654360  
H     6.3989910    4.3094340    0.4184680  
H     4.3460750    6.3366720   -0.2964990  
H     2.2475340    5.2930220   -0.7148090  
C    -0.3752190    0.4486200   -0.7557950  
C    -1.7156820    0.6925270   -0.6140200  
C    -2.4285160   -0.5451390   -0.8001000  
C    -1.3966060   -1.5688380   -1.0586390  
N    -0.1674020   -0.9261350   -0.9778860  
C    -1.6345100   -2.8810100   -1.3173080  
C    -3.0108500   -3.3344100   -1.2821900  
O    -3.3498040   -4.4942610   -1.4680080  
C    -4.1366540   -2.2787780   -0.9585100  
O    -5.2854070   -2.6873720   -0.9060470  
C    -3.7747580   -0.8514970   -0.7547980  
H    -2.1500080    1.6349800   -0.3171110  
H    -0.8507230   -3.6051750   -1.5162960  
H     0.6417000   -1.2770320   -1.4714020  
C    -4.7643070    1.4202020   -1.1768390  
C    -4.8158180    0.1600260   -0.5981480  
C    -6.0613920    0.1180360    0.1514580  
C    -6.6859960    1.3795530   -0.0073080  
N    -5.8726750    2.1455710   -0.8255570  
C    -7.8994160    1.7200680    0.6019100  
C    -8.5027680    0.7587020    1.3964320  
O    -9.6915080    1.0245700    2.0089530  
C    -7.8915130   -0.5103750    1.5751260  
O    -8.6095340   -1.3638550    2.3913150  
C    -6.6916040   -0.8365320    0.9739460  
H    -6.1006910    3.0635990   -1.1745150  
H    -8.3732110    2.6876530    0.4714580  
H    -9.9533090    0.2165150    2.4840340  
H    -8.2223990   -2.2510450    2.3465630  
H    -6.2650100   -1.8251640    1.1022470  
H    -4.0332460    1.8257660   -1.8610270  
C     5.0313510    0.7499730    0.3192400  
C     6.1398920    0.5229620    1.0867430  
C     6.4925940   -0.8689970    0.9809860  
C     5.5054600   -1.4725830    0.0575180  
N     4.5840460   -0.4713460   -0.2577080  
C     5.5391610   -2.7576570   -0.3645280  
C     6.5974350   -3.6305610    0.1491310  
O     6.7028270   -4.8018190   -0.1772740  
C     7.6241680   -3.0246640    1.1741710  
O     8.5014610   -3.7465540    1.6242710  
C     7.4907910   -1.6134410    1.5324590  
H     6.6469310    1.2630130    1.6852990  
H     4.8156760   -3.1840520   -1.0532050  
H     8.2199830   -1.1969270    2.2206150  
H     4.1655550   -0.4531440   -1.1803550  
