60


C     1.2268410    0.1057330   -1.0909920  
C     0.3841880    0.7887010   -0.2491720  
C     1.1920970    1.5908600    0.6323740  
C     2.5363410    1.3475780    0.2669520  
N     2.5388900    0.4311550   -0.7861370  
C     3.6153440    1.9713900    0.9043650  
C     3.3241580    2.8515540    1.9344930  
O     4.3341430    3.4883420    2.5851990  
C     1.9762950    3.1012970    2.3188310  
O     1.8569460    3.9954280    3.3587220  
C     0.9141210    2.4852570    1.6850760  
H     4.6468500    1.7928550    0.6229020  
H     3.9330210    4.0622780    3.2610180  
H     0.9216180    4.1761210    3.5359630  
H    -0.1087530    2.6931040    1.9886780  
H     1.0044580   -0.5940430   -1.8833280  
C    -1.7370430   -0.4753420    0.0261370  
C    -3.0922440   -0.3041590   -0.1025250  
C    -3.2868740    1.1009450   -0.4754720  
C    -1.9310490    1.6971520   -0.5481120  
N    -1.0264220    0.6799770   -0.2380040  
C    -1.6622650    2.9872130   -0.8678090  
C    -2.7851250    3.8824020   -1.1342460  
O    -2.6445890    5.0598350   -1.4268160  
C    -4.2337150    3.2893930   -1.0234500  
O    -5.1909200    4.0224230   -1.2126360  
C    -4.3860450    1.8660350   -0.6951580  
H    -0.6547460    3.3843410   -0.9224200  
H    -5.3939770    1.4714840   -0.6645910  
H    -1.1961000   -1.3780050    0.2762000  
C    -3.4445720   -3.5901400    2.8984560  
C    -3.0242620   -2.4661100    2.2666210  
C    -3.9477110   -2.2857060    1.1499530  
C    -4.8915170   -3.4275470    1.2837470  
N    -4.5910200   -4.1905250    2.2993970  
C    -5.9979470   -3.6142940    0.3793550  
C    -6.1646850   -2.7034990   -0.6050820  
O    -7.1609410   -2.7422120   -1.5080770  
C    -5.2244690   -1.5445770   -0.7817970  
O    -5.4425530   -0.7894520   -1.7268470  
C    -4.0641670   -1.3626370    0.1508810  
H    -2.2073570   -1.8167720    2.5469990  
H    -6.6684730   -4.4566480    0.5080020  
H    -7.0120960   -1.9726170   -2.0987800  
H    -3.0231430   -4.0524170    3.7831970  
C     4.0722220    0.1872360   -2.7102260  
C     3.6783290   -0.0861060   -1.4342450  
C     4.6270970   -1.0379410   -0.8744690  
C     5.6134770   -1.2947210   -1.9501320  
N     5.2093020   -0.5307560   -3.0347460  
C     6.6762820   -2.1275410   -1.8295650  
C     6.8642650   -2.8313610   -0.5604400  
O     7.7900180   -3.6004730   -0.3601820  
C     5.8190180   -2.5814640    0.5886810  
O     5.9533270   -3.1688020    1.6490090  
C     4.7159090   -1.6461230    0.3356530  
H     7.3939150   -2.3025870   -2.6251820  
H     4.0044120   -1.4688750    1.1357910  
H     3.6137770    0.8526050   -3.4297610  
H     5.6941310   -0.4813810   -3.9173380  
