60


C     3.7745000   -1.3981250   -1.9569290  
C     4.9535700   -2.0643720   -1.9069220  
C     5.6175000   -1.6768390   -0.6812100  
C     4.7156590   -0.7088790   -0.0105920  
N     3.5961490   -0.5713150   -0.8390200  
C     4.9683630   -0.1481460    1.1964250  
C     6.2171950   -0.4932740    1.8766330  
O     6.5187070   -0.0444280    2.9713510  
C     7.2004750   -1.4928080    1.1678190  
O     8.2504560   -1.7844540    1.7185270  
C     6.8018240   -2.0474170   -0.1277710  
H     5.3358740   -2.7458270   -2.6532790  
H     4.3047750    0.5581390    1.6807940  
H     7.4733340   -2.7567550   -0.6020150  
H     3.0099160   -1.4074700   -2.7220270  
C    -0.6982890   -1.5283340   -0.7487160  
C     0.6798730   -1.5854980   -0.8254760  
C     1.1881530   -0.2618490   -0.6533200  
C     0.0152600    0.6199040   -0.4693470  
N    -1.0831220   -0.2070860   -0.5168040  
C     0.0293630    1.9851940   -0.2993800  
C     1.3554100    2.5951670   -0.3836100  
O     1.5491010    3.8100610   -0.4005810  
C     2.6419300    1.6926750   -0.4813270  
O     3.7286910    2.2445970   -0.4951610  
C     2.4678500    0.2433470   -0.6195150  
H     1.2641910   -2.4884210   -0.9207170  
H    -2.0301450    0.1417730   -0.5206790  
C    -1.5012690   -3.7906010   -1.5046110  
C    -1.6599880   -2.5880280   -0.8595400  
C    -3.0317930   -2.6514800   -0.3154460  
C    -3.5309930   -3.9853220   -0.7632220  
N    -2.6205580   -4.6337570   -1.4498510  
C    -4.8434830   -4.4556080   -0.4305080  
C    -5.6277430   -3.6548350    0.3347450  
O    -6.8703930   -3.9682860    0.7194380  
C    -5.1409430   -2.3209510    0.8344550  
O    -5.8994120   -1.6598500    1.5389960  
C    -3.7824770   -1.8567300    0.4717070  
H    -5.1761460   -5.4266040   -0.7796530  
H    -7.1817440   -3.2148240    1.2676770  
H    -3.4708180   -0.9021320    0.8893650  
H    -0.6268540   -4.1196400   -2.0540900  
C    -3.4554810    1.4507140    2.5082340  
C    -2.2431000    1.3385250    1.8700830  
C    -2.1918460    2.3651180    0.8607910  
C    -3.4151620    3.0817000    0.9538970  
N    -4.1662590    2.4917200    1.9510460  
C    -3.7091870    4.2008770    0.1686780  
C    -2.7250690    4.6222730   -0.7104840  
O    -2.9260040    5.7172460   -1.4879490  
C    -1.4884580    3.9287960   -0.8303470  
O    -0.6448520    4.4696790   -1.7698610  
C    -1.2076880    2.7752050   -0.0908810  
H    -1.4614660    0.6388770    2.1292630  
H    -5.0762560    2.8031530    2.2531930  
H    -4.6404150    4.7521480    0.2479570  
H    -2.0941810    5.8436130   -1.9847820  
H     0.2604470    4.4706340   -1.3788940  
H    -3.8680580    0.8775040    3.3263410  
