58


C     1.5912740    2.7758320   -0.1566880  
C     2.5556850    3.1091530   -1.0621150  
C     3.3217800    1.9148140   -1.3298760  
C     2.7236760    0.8458030   -0.5010760  
N     1.6351570    1.4156690    0.1596990  
C     3.1880430   -0.4295940   -0.3961200  
C     4.3384850   -0.7812260   -1.2683680  
O     4.7578510   -1.9189410   -1.3633450  
C     4.9889830    0.3420690   -2.1543190  
O     5.9694670    0.0605440   -2.8260090  
C     4.3941610    1.6751780   -2.1330060  
H     2.6751330    4.0677920   -1.5455650  
H     4.8538290    2.4451130   -2.7447170  
H     1.2985010    1.0509940    1.0415790  
C     0.8294210    4.9390850    0.7685310  
C    -0.2925310    5.4893770    1.2856710  
C    -1.3213060    4.4684260    1.2949840  
C    -0.6986420    3.2498900    0.7276520  
N     0.6326910    3.5839280    0.4413550  
C    -1.3556200    2.0862840    0.5047940  
C    -2.7675140    2.0095420    0.8654050  
O    -3.4468670    1.0110120    0.6642900  
C    -3.4345170    3.2637810    1.5332930  
O    -4.5984660    3.1964850    1.8919460  
C    -2.6217950    4.4766370    1.6856580  
H    -0.3989910    6.5050980    1.6382390  
H    -0.9007870    1.2314660    0.0243930  
H    -3.1033600    5.3549860    2.1040680  
H     1.8078070    5.3720710    0.6129210  
C    -0.8849840   -2.1770920    0.0280910  
C    -0.6218570   -3.0027570    1.1043550  
C     0.7623980   -2.8671720    1.4502350  
C     1.3281060   -1.8723560    0.5070320  
N     0.2933670   -1.5000590   -0.3168180  
C     2.6280940   -1.4437540    0.5146620  
C     3.5107940   -2.0117220    1.5577270  
O     4.6481730   -1.6129370    1.7392990  
C     2.9415010   -3.1181090    2.5155850  
O     3.6951250   -3.6354800    3.3272280  
C     1.5291890   -3.4628070    2.4091740  
H    -1.3375830   -3.5935750    1.6517150  
H     1.1342710   -4.2030370    3.0984230  
H     0.3266130   -0.8578140   -1.0986870  
C    -4.8431850   -4.2518170   -0.0617270  
C    -3.5206320   -3.9530640    0.1124040  
C    -3.2684120   -2.6952030   -0.5339250  
C    -4.5634410   -2.2835500   -1.1244750  
N    -5.4794730   -3.2625250   -0.7770260  
C    -4.7775820   -1.1603770   -1.8521940  
C    -3.6334590   -0.3052990   -2.1260840  
O    -3.6994810    0.7214020   -2.7795400  
C    -2.2331160   -0.7483460   -1.5775020  
O    -1.2643540   -0.0996440   -1.9600390  
C    -2.1305410   -1.9094820   -0.6657060  
H    -2.8021890   -4.5883900    0.6026710  
H    -5.7478450   -0.8711710   -2.2426250  
H    -5.3936120   -5.1211950    0.2729490  
H    -6.4503020   -3.2638310   -1.0489170  
