60


C    -2.3488000   -1.7541710   -2.0497000  
C    -1.5836670   -2.1411690   -0.9879580  
C    -2.4081200   -3.0699370   -0.2099370  
C    -3.7090800   -3.1694200   -0.9148370  
N    -3.6145520   -2.3306880   -2.0094600  
C    -4.7501410   -3.9422750   -0.5120600  
C    -4.5997890   -4.7215650    0.7117720  
O    -5.4816380   -5.4380610    1.1612580  
C    -3.2366070   -4.6141340    1.4892150  
O    -3.1002210   -5.2354980    2.5302670  
C    -2.1784020   -3.7580480    0.9356880  
H    -5.6911360   -4.0043960   -1.0502970  
H    -1.2318300   -3.7211200    1.4633120  
H    -2.0800030   -1.1062880   -2.8746840  
H    -4.2919100   -2.2863190   -2.7549270  
C     0.0905430    1.8906590   -0.5168530  
C     1.4125720    1.5533350   -0.3631970  
C     1.5202540    0.1236520   -0.3623330  
C     0.1438670   -0.3887670   -0.5611210  
N    -0.6764540    0.7191200   -0.6010720  
C    -0.2113230   -1.7019450   -0.6942500  
C     0.8715360   -2.6862150   -0.5546780  
O     0.6851320   -3.8895180   -0.6422860  
C     2.3319580   -2.1768860   -0.2740570  
O     3.1934020   -3.0188350   -0.0803150  
C     2.5935460   -0.7259840   -0.2351970  
H     2.2165700    2.2454010   -0.1688450  
H    -1.6300040    0.6939810   -0.9266250  
C     4.4399740    1.7657790    2.9108890  
C     5.7498740    1.7232080    2.5781660  
C     5.8054510    0.9179950    1.3623980  
C     4.3732210    0.5493370    1.1004640  
N     3.5868220    1.0491080    2.0091370  
C     3.9838660   -0.2780330   -0.0324550  
C     4.9977180   -0.6823610   -0.8526930  
O     4.8047820   -1.4044860   -1.9640940  
C     6.4371970   -0.3233180   -0.6125410  
O     7.2699160   -0.7322050   -1.4206160  
C     6.7983020    0.5007130    0.5555240  
H     6.5890450    2.1716930    3.0915100  
H     5.7021240   -1.5703640   -2.3288100  
H     7.8502610    0.7281110    0.6992650  
H     3.9830470    2.2636640    3.7580390  
C     0.0439090    4.3380160   -1.0673730  
C    -0.5499040    3.1807410   -0.5927520  
C    -1.9086210    3.5348150   -0.2289940  
C    -2.0652040    4.9121840   -0.5187160  
N    -0.8575490    5.3668140   -1.0237380  
C    -3.2534210    5.6113500   -0.2808990  
C    -4.3101850    4.9045950    0.2717580  
O    -5.4892900    5.5349780    0.5249530  
C    -4.1678500    3.5271240    0.5915380  
O    -5.2979390    2.9693590    1.1499850  
C    -2.9901680    2.8414910    0.3525140  
H    -0.6784360    6.3069010   -1.3426370  
H    -3.3695730    6.6680380   -0.4981300  
H    -6.0814490    4.8881710    0.9469780  
H    -5.1001650    2.0811160    1.4829740  
H    -2.9015240    1.7978870    0.6445190  
H     1.0389200    4.4825850   -1.4628720  
