58


C    -6.0584840    1.2159960   -1.7318420  
C    -7.3964200    1.0482650   -1.6185590  
C    -7.6332520    0.0981490   -0.5552470  
C    -6.2970720   -0.2928730   -0.0440710  
N    -5.3598660    0.4040250   -0.8190540  
C    -6.1050950   -1.1184500    1.0129280  
C    -7.2801200   -1.7011130    1.6654810  
O    -7.1923260   -2.4538540    2.6224090  
C    -8.7009850   -1.3358120    1.1083610  
O    -9.6884310   -1.8276330    1.6309610  
C    -8.7760020   -0.3997710   -0.0152700  
H    -8.1520570    1.5420180   -2.2124110  
H    -5.1313890   -1.3875650    1.3998570  
H    -9.7616800   -0.1183200   -0.3731330  
H    -5.4966330    1.8564150   -2.3938330  
C    -2.5535460    3.6825910   -0.7604880  
C    -1.3791680    3.0398400   -0.5645030  
C    -1.7224790    1.6236050   -0.5004180  
C    -3.2054540    1.6047990   -0.6914290  
N    -3.6812640    2.8041850   -0.8438720  
C    -3.9631190    0.3624200   -0.7023720  
C    -3.2492220   -0.7976940   -0.5891700  
O    -3.8070640   -2.0181140   -0.6276550  
C    -1.7756790   -0.8037940   -0.3728450  
O    -1.2296140   -1.8927060   -0.2074610  
C    -1.0101870    0.4809530   -0.3574290  
H    -0.3917800    3.4674460   -0.4687330  
H    -3.0680280   -2.6510110   -0.4860610  
H    -2.7246770    4.7470490   -0.8625310  
C     1.9217380    2.0723310    2.6132110  
C     0.7659950    1.8120630    1.9617870  
C     1.1496150    1.0017800    0.8138690  
C     2.6375000    0.8593420    0.9418040  
N     3.0704170    1.4876430    1.9924610  
C     3.4342500    0.0863080   -0.0164820  
C     2.7147220   -0.4959820   -1.0298790  
O     3.2647430   -1.2311240   -2.0176000  
C     1.2384640   -0.3562410   -1.1864150  
O     0.7286770   -0.8629820   -2.1859070  
C     0.4513840    0.4088430   -0.1842910  
H    -0.2342320    2.1251700    2.2229330  
H     2.5115260   -1.4860750   -2.6007250  
H     2.0661180    2.6460720    3.5201890  
C     4.8749440   -0.0331800    0.1186780  
C     5.7051240    0.5070940    1.0757380  
C     7.0499440    0.1012320    0.7725490  
C     6.9693010   -0.7326320   -0.4519050  
N     5.6383170   -0.7757970   -0.7940160  
C     8.0401750   -1.3066710   -1.0592780  
C     9.3625880   -1.0971030   -0.4802200  
O    10.3838490   -1.5709460   -0.9552240  
C     9.4721390   -0.2163270    0.8190230  
O    10.5706830   -0.0284140    1.3188340  
C     8.2429820    0.3493670    1.3823100  
H     5.3804520    1.1211830    1.8993970  
H     7.9630520   -1.9145170   -1.9554270  
H     8.3291650    0.9555550    2.2790120  
H     5.2453050   -1.2616290   -1.5857760  
