60


C    -0.6540370   -1.2766880    0.7653800  
C    -2.0195890   -1.2251140    0.6994630  
C    -2.3661270   -0.0392080   -0.0299610  
C    -1.1522610    0.5896110   -0.3976620  
N    -0.1060310   -0.1790940    0.1083640  
C    -1.0980050    1.7503690   -1.1767530  
C    -2.3019710    2.3036830   -1.5838210  
O    -2.3032140    3.4419660   -2.3288050  
C    -3.5373230    1.7048180   -1.2281600  
O    -4.6301400    2.3986360   -1.6874080  
C    -3.5992580    0.5351900   -0.4537450  
H    -2.6959520   -1.9568580    1.1154230  
H    -0.1664400    2.2260870   -1.4613810  
H    -3.2320640    3.6964150   -2.4704440  
H    -5.4460510    2.0147730   -1.3118630  
H    -0.0011070   -1.9925960    1.2436870  
C     2.1752540   -0.7325640   -0.6453290  
C     1.2673170    0.0801810   -0.0402200  
C     1.9912310    1.2235690    0.4960410  
C     3.4090170    1.0064940    0.1297310  
N     3.4706130   -0.2219720   -0.5375730  
C     4.4047170    1.8870040    0.3968860  
C     4.0757830    3.1047730    1.1414720  
O     4.9098750    3.9477110    1.4279090  
C     2.5855320    3.3215070    1.5889110  
O     2.2981740    4.3137230    2.2365790  
C     1.5910460    2.3146270    1.1965550  
H     5.4333310    1.7402750    0.0870320  
H     0.5561470    2.4856330    1.4744490  
H     2.0163580   -1.6799060   -1.1423060  
C     4.7474440   -1.2789270   -2.3843610  
C     4.6074850   -0.8094990   -1.1161230  
C     5.8528900   -1.1813860   -0.4233910  
C     6.6453920   -1.8655840   -1.4894140  
N     5.9911670   -1.9207000   -2.6181490  
C     7.9623990   -2.3806060   -1.2301220  
C     8.4520530   -2.2678830    0.0288420  
O     9.6565680   -2.7153460    0.4087470  
C     7.6583600   -1.6193320    1.1315980  
O     8.1635970   -1.5609480    2.2484650  
C     6.3146020   -1.0698740    0.8351700  
H     8.5235930   -2.8556530   -2.0269800  
H     9.7372310   -2.4974950    1.3629940  
H     5.7840540   -0.5907950    1.6519490  
H     4.0277870   -1.2145520   -3.1921730  
C    -4.8794320   -0.0428180   -0.0735440  
C    -5.2646820   -0.6711180    1.0777170  
C    -6.6537700   -1.0362440    0.9676800  
C    -7.0889200   -0.5806680   -0.3704330  
N    -6.0010550    0.0962790   -0.9472770  
C    -8.3159290   -0.7988060   -0.8918620  
C    -9.3047860   -1.5034230   -0.0679610  
O   -10.4353090   -1.7418300   -0.4590170  
C    -8.8818840   -1.9467580    1.3791740  
O    -9.7014490   -2.5198740    2.0813550  
C    -7.5148060   -1.6660610    1.8140670  
H    -4.6455580   -0.8052560    1.9528750  
H    -8.6177720   -0.4655020   -1.8803330  
H    -7.2240850   -1.9968740    2.8064430  
H    -5.8436140   -0.0171800   -1.9444790  
