60


C     1.9851750   -0.4103400    0.6735500  
C     3.2509810    0.1016550    0.4710950  
C     3.0997700    1.5382760    0.3444240  
C     1.7215680    1.8215260    0.4796450  
N     1.0543750    0.6088680    0.6791430  
C     1.2044770    3.1209550    0.4523350  
C     2.1036800    4.1613310    0.2748620  
O     1.6541530    5.4443980    0.2374980  
C     3.4947140    3.8995500    0.1468360  
O     4.2589530    5.0349060   -0.0043880  
C     3.9989980    2.6118360    0.1850240  
H     0.1484100    3.3365560    0.5665410  
H     2.4263850    6.0236450    0.1149960  
H     5.1979950    4.8003260   -0.0485380  
H     5.0710640    2.4422590    0.1245280  
H     1.6631950   -1.4379250    0.7603560  
C    -0.9522680   -0.0550530    1.9584190  
C    -0.3329770    0.4410840    0.8501060  
C    -1.3601500    0.7213330   -0.1425410  
C    -2.6392890    0.3510390    0.4962680  
N    -2.3241870   -0.0855170    1.7761820  
C    -3.8702670    0.4244360   -0.0952460  
C    -3.8913600    0.9150850   -1.4926350  
O    -4.9225970    1.0424250   -2.1290590  
C    -2.5325470    1.3055870   -2.1869160  
O    -2.5629010    1.6834250   -3.3459720  
C    -1.2952080    1.1879410   -1.4172960  
H    -0.3628260    1.4662020   -1.8968580  
H    -0.5103010   -0.3834320    2.8895940  
H    -2.9770070   -0.5809370    2.3657850  
C    -5.4789440    0.5496510    1.8448540  
C    -5.1177440    0.0991750    0.6041300  
C    -6.2172380   -0.7588700    0.1463630  
C    -7.2247530   -0.7597240    1.2340400  
N    -6.7070820    0.0440050    2.2357250  
C    -8.4003340   -1.4356450    1.2037540  
C    -8.7037220   -2.2427990    0.0251970  
O    -9.7322870   -2.8895420   -0.0941810  
C    -7.6397520   -2.2804550   -1.1302700  
O    -7.8556240   -2.9701730   -2.1123810  
C    -6.4119700   -1.4843880   -0.9824150  
H    -9.1233070   -1.4137930    2.0134130  
H    -5.7090600   -1.4936240   -1.8072070  
H    -4.9495260    1.2382780    2.4912190  
H    -7.2102540    0.3222360    3.0641810  
C     4.4603540   -0.6831660    0.3855560  
C     4.7799070   -1.8860980    0.9621230  
C     6.0973590   -2.2626180    0.5268690  
C     6.5531250   -1.1777020   -0.3773680  
N     5.5489070   -0.2189520   -0.3760760  
C     7.7315190   -1.1817470   -1.0454980  
C     8.6421810   -2.3081710   -0.8412000  
O     9.7272860   -2.3897100   -1.3958710  
C     8.2002210   -3.4485330    0.1476920  
O     8.9586130   -4.3896350    0.3351120  
C     6.8945180   -3.3366760    0.7908810  
H     4.1683550   -2.4245570    1.6721200  
H     8.0445250   -0.3848720   -1.7136270  
H     6.5915800   -4.1395190    1.4562720  
H     5.4217790    0.4307390   -1.1394810  
