60


C     2.3860860   -1.3657320    0.6822110  
C     1.1890490   -0.7064730    0.6223450  
C     1.4346380    0.5691780    0.0146890  
C     2.8242530    0.6302230   -0.2656230  
N     3.3983590   -0.5662360    0.1650000  
C     3.4228790    1.7264540   -0.8969620  
C     2.6121000    2.8063840   -1.2210410  
O     3.1539830    3.8888300   -1.8446280  
C     1.2292620    2.7917850   -0.9264030  
O     0.5731160    3.9313810   -1.3309840  
C     0.6117670    1.6839600   -0.3169310  
H     0.2470040   -1.0972330    0.9770170  
H     4.4695050    1.7473580   -1.1782520  
H     2.4229090    4.4954420   -2.0580010  
H    -0.3909830    3.7819220   -1.3093820  
H     2.6186850   -2.3531180    1.0490240  
C    -0.8220320    1.6674300   -0.0773790  
C    -1.7140440    0.6282370   -0.1030120  
C    -3.0268700    1.1329220    0.1903680  
C    -2.8668020    2.5869410    0.3944790  
N    -1.5183180    2.8890430    0.1507940  
C    -3.8619580    3.4371980    0.7308350  
C    -5.2143590    2.8949790    0.8708770  
O    -6.1791130    3.5889770    1.1431320  
C    -5.4218250    1.3565330    0.6505320  
O    -6.5270830    0.8831760    0.8542350  
C    -4.2575750    0.5284980    0.2691760  
H    -1.4759580   -0.3903410   -0.3668970  
H    -3.7196180    4.5047650    0.8686190  
H    -1.0737150    3.6038310    0.7184370  
C    -2.6637210   -3.2737980    2.0469430  
C    -2.8610180   -1.9548860    1.8018570  
C    -3.8455520   -1.9122370    0.7250440  
C    -4.1398330   -3.3532380    0.4520360  
N    -3.4443520   -4.1411360    1.2240270  
C    -5.1041110   -3.7578630   -0.5371520  
C    -5.7454750   -2.7849080   -1.2241540  
O    -6.6611820   -3.0144460   -2.1777910  
C    -5.4479850   -1.3246030   -1.0034730  
O    -5.9905820   -0.5218630   -1.7544740  
C    -4.4725210   -0.9112700    0.0554960  
H    -2.4153990   -1.1079290    2.3033630  
H    -5.2971390   -4.8109160   -0.7086180  
H    -6.9177340   -2.1280710   -2.5149510  
H    -2.0080750   -3.7206450    2.7853630  
C     6.9874110    1.5194290    1.5055280  
C     7.9177270    0.6266860    1.0835230  
C     7.2107380   -0.4818240    0.4751390  
C     5.7693880   -0.1455780    0.5743200  
N     5.6991070    1.0665490    1.2252720  
C     4.7603950   -0.9315620    0.0916120  
C     5.1288090   -2.2265700   -0.5075950  
O     4.3029140   -3.0277210   -0.9098730  
C     6.6575970   -2.5920050   -0.6090370  
O     6.9600860   -3.6594540   -1.1160750  
C     7.6383790   -1.6455780   -0.0837940  
H     8.9888850    0.7152130    1.1898850  
H     8.6882050   -1.9102770   -0.1589130  
H     7.1219140    2.4676540    2.0086690  
H     4.8520440    1.6015120    1.3439110  
