58


C    -3.4103590    0.5909870   -1.8098060  
C    -4.7183850    0.9466550   -1.8213410  
C    -5.3537150    0.2919620   -0.6981720  
C    -4.2917710   -0.4937040   -0.0237540  
N    -3.1142540   -0.2707880   -0.7456010  
C    -4.4856820   -1.2204540    1.1029620  
C    -5.8269060   -1.2529160    1.6874730  
O    -6.0873420   -1.8660710    2.7107000  
C    -6.9718350   -0.4488080    0.9721100  
O    -8.0974630   -0.4692520    1.4451440  
C    -6.6298660    0.3113030   -0.2318880  
H    -5.2034130    1.5818830   -2.5486490  
H    -3.7047440   -1.7937170    1.5882040  
H    -7.4198910    0.8823440   -0.7102790  
H    -2.6179050    0.8531820   -2.4978940  
C     0.8007290    1.6505640   -0.2415800  
C    -0.5558030    1.3810750   -0.3563300  
C    -0.7236760   -0.0367550   -0.3824730  
C     0.6285580   -0.6202180   -0.2718570  
N     1.4968900    0.4474680   -0.2088610  
C     0.9150860   -1.9570730   -0.2514880  
C    -0.2407330   -2.8762500   -0.2923440  
O    -0.1391380   -4.0750960   -0.1092170  
C    -1.6818480   -2.2913160   -0.5170090  
O    -2.6064650   -3.0622600   -0.7080840  
C    -1.8442830   -0.8289860   -0.4986100  
H    -1.3549930    2.1032160   -0.3278160  
H     2.4922050    0.4129420   -0.0247020  
C     4.3023110   -1.4772270    2.6220320  
C     3.0980350   -1.4032690    1.9954010  
C     3.1778520   -2.2253410    0.8065370  
C     4.5440620   -2.8048450    0.8024150  
N     5.1743980   -2.3002010    1.9242790  
C     5.0207790   -3.6716530   -0.1272240  
C     4.1370890   -4.0659870   -1.2157520  
O     4.4557020   -4.8652620   -2.0821270  
C     2.7108170   -3.4113590   -1.2844000  
O     2.0250300   -3.6115630   -2.2702950  
C     2.2727710   -2.5159130   -0.1810740  
H     2.2394410   -0.8441240    2.3341770  
H     6.0185580   -4.0978880   -0.0915470  
H     4.6272680   -1.0010070    3.5374810  
H     6.1155020   -2.5259480    2.2056590  
C    -0.3584010    5.8593710   -1.1920650  
C    -0.3141940    4.4964140   -1.1054060  
C     0.9175530    4.1401910   -0.4567190  
C     1.6075360    5.4205440   -0.1775010  
N     0.7661360    6.4225710   -0.6268100  
C     2.8229740    5.5490590    0.4139980  
C     3.5320520    4.3330180    0.7754440  
O     4.6148410    4.3238280    1.3377450  
C     2.8734430    2.9555460    0.4109370  
O     3.5612480    1.9551490    0.5744460  
C     1.4866020    2.9207630   -0.1107230  
H    -1.0574240    3.8247230   -1.5017250  
H     3.2869480    6.5055860    0.6322870  
H    -1.1214920    6.4899480   -1.6287010  
H     0.9817020    7.4074370   -0.6048000  
