62


C    -0.7035970   -1.9254890   -0.8249500  
C     0.6596730   -1.7979340   -0.9312850  
C     0.9833910   -0.4490320   -0.5557630  
C    -0.2317310    0.1888480   -0.2061510  
N    -1.2485130   -0.7365090   -0.3679110  
C    -0.3215600    1.5227830    0.2359780  
C     0.8900420    2.2142220    0.3081500  
O     0.9004830    3.5110030    0.7286800  
C     2.1180370    1.5991810   -0.0416490  
O     3.1945720    2.4549390    0.0680960  
C     2.2017990    0.2726540   -0.4666450  
H     1.3458550   -2.5913960   -1.1888080  
H    -2.2315300   -0.5089160   -0.4032260  
H     1.8272800    3.8095420    0.7178440  
H     4.0232620    1.9795700   -0.0993500  
C    -1.3964900   -3.8284780   -2.2446680  
C    -2.3583170   -4.7976720   -2.2317890  
C    -3.1502510   -4.5982680   -1.0491650  
C    -2.6086350   -3.4797550   -0.3676270  
N    -1.5305230   -3.0106320   -1.1217510  
C    -3.1195410   -3.0237140    0.8545720  
C    -4.2142390   -3.6920530    1.3816920  
O    -4.7531150   -3.2790610    2.5667320  
C    -4.7810570   -4.8022830    0.7036200  
O    -5.8673270   -5.3564830    1.3523750  
C    -4.2608660   -5.2616130   -0.4926700  
H    -2.4980580   -5.5608150   -2.9851200  
H    -2.6835300   -2.1975650    1.4040580  
H    -5.4830470   -3.8867880    2.7774100  
H    -6.1750320   -6.1348160    0.8648170  
H    -4.7028630   -6.1222640   -0.9907560  
H    -0.6234620   -3.6101630   -2.9666750  
C    -2.5208600    1.6229400    1.4859720  
C    -1.6099030    2.1342140    0.6066060  
C    -2.1928590    3.3741810    0.0925690  
C    -3.5109550    3.5269370    0.7561920  
N    -3.6490260    2.4285350    1.5814490  
C    -4.3665930    4.5599770    0.5457010  
C    -3.9807950    5.5950830   -0.4070370  
O    -4.6823250    6.5615560   -0.6657960  
C    -2.5951120    5.4447330   -1.1363290  
O    -2.2589460    6.2927470   -1.9477340  
C    -1.7565670    4.2844120   -0.8140410  
H    -5.3259800    4.6519720    1.0456510  
H    -0.7945420    4.2033000   -1.3069080  
H    -2.4473070    0.7278120    2.0901610  
H    -4.4267410    2.2657710    2.2016710  
C     3.7656210   -1.0002060   -2.0055520  
C     3.4904010   -0.3371120   -0.8425940  
C     4.7218500   -0.3794140   -0.0546080  
C     5.7234400   -1.1102820   -0.8721540  
N     5.0719650   -1.4663590   -2.0370570  
C     7.0015050   -1.3525270   -0.4880690  
C     7.4373730   -0.8735140    0.8221100  
O     8.5701810   -1.0363000    1.2467730  
C     6.3882370   -0.1209340    1.7187740  
O     6.7244430    0.2667660    2.8255960  
C     5.0361120    0.0869230    1.1858200  
H     7.7178820   -1.8902360   -1.1016830  
H     4.3178540    0.5922750    1.8241530  
H     3.1079230   -1.1755520   -2.8465620  
H     5.4956600   -1.9591600   -2.8076160  
