60


C    -1.1435370    0.1284080    0.7884860  
C    -2.3422300   -0.4049510    0.3721230  
C    -3.0717310    0.6888360   -0.2548090  
C    -2.2406290    1.8346620   -0.2111210  
N    -1.0534250    1.4698650    0.4478470  
C    -2.6155820    3.0539600   -0.7801070  
C    -3.8791120    3.1457360   -1.3460690  
O    -4.2862620    4.3220360   -1.8995040  
C    -4.7544500    2.0334970   -1.3315210  
O    -5.9906640    2.2788940   -1.8933380  
C    -4.3663900    0.8150790   -0.7979500  
H    -1.9857450    3.9328270   -0.7613620  
H    -5.2106090    4.2075430   -2.1802270  
H    -6.5996040    1.5587300   -1.6715880  
H    -5.0679810   -0.0141200   -0.7773560  
H    -0.3526060   -0.3396790    1.3488480  
C     3.2832080    0.6831780   -0.0231500  
C     1.9183890    0.5224110   -0.0469070  
C     1.3678190    1.7536750    0.4620170  
C     2.5646100    2.5828400    0.7793120  
N     3.6733090    1.9706550    0.4835100  
C     2.4528550    3.9087250    1.3345190  
C     1.2115630    4.3924520    1.5576460  
O     0.9552840    5.6102710    2.0641090  
C    -0.0273150    3.5881110    1.2662570  
O    -1.1061200    4.0853860    1.5821510  
C     0.1041960    2.2368720    0.6561110  
H     1.3663800   -0.3170900   -0.4418750  
H     3.3468790    4.4823850    1.5504160  
H    -0.0213090    5.6576630    2.1558440  
C     3.6097390   -3.7208530    0.4519630  
C     3.1845560   -2.4271550    0.4739470  
C     4.1958200   -1.6262810   -0.1726050  
C     5.2682930   -2.5683150   -0.5660830  
N     4.8360590   -3.8251750   -0.1854360  
C     6.4447650   -2.2183900   -1.1489160  
C     6.6857290   -0.8068560   -1.4125030  
O     7.7354910   -0.3820750   -1.8695740  
C     5.5269420    0.2104500   -1.1137140  
O     5.6417690    1.3447680   -1.5354330  
C     4.3066330   -0.2698880   -0.4040420  
H     2.2691560   -2.0713890    0.9195880  
H     7.2246410   -2.9320730   -1.3965930  
H     3.1288760   -4.6048610    0.8493930  
H     5.3879510   -4.6659660   -0.2545320  
C    -4.5276210   -3.1994820   -2.2569390  
C    -4.5902790   -4.2786040   -1.4326460  
C    -3.9089450   -3.9246380   -0.2069780  
C    -3.4604060   -2.5234050   -0.3733590  
N    -3.8739390   -2.1431590   -1.6397810  
C    -2.7486530   -1.7963660    0.5485510  
C    -2.3005190   -2.5623910    1.7373410  
O    -1.4923960   -2.1265550    2.5417900  
C    -2.8533180   -4.0195810    1.9756140  
O    -2.5688080   -4.5738340    3.0275830  
C    -3.6434740   -4.6376600    0.9247370  
H    -5.0469600   -5.2319750   -1.6548780  
H    -3.9813810   -5.6589230    1.0693900  
H    -4.9038960   -3.0823760   -3.2648890  
H    -3.6397440   -1.2615870   -2.0706700  
