58


C    -4.0343550   -0.0494380    0.0200600  
C    -4.5695630   -1.0821120    0.7558140  
C    -5.9276130   -1.2727810    0.3259430  
C    -6.1744430   -0.2669750   -0.7376120  
N    -5.0024260    0.4365790   -0.8733980  
C    -7.3520060   -0.1280080   -1.4015630  
C    -8.4539890   -1.0175070   -1.0560920  
O    -9.5492590   -0.9687240   -1.5972730  
C    -8.2154070   -2.0913040    0.0697680  
O    -9.1283460   -2.8452300    0.3728560  
C    -6.9011980   -2.1442940    0.7129900  
H    -4.0426290   -1.6334080    1.5169510  
H    -7.5147990    0.6135270   -2.1776380  
H    -6.7468630   -2.8889100    1.4880860  
H    -4.8331520    1.1893020   -1.5230740  
C    -0.5785270   -1.0579140    2.5513220  
C     0.3529530   -0.1799450    2.1232160  
C    -0.3024510    0.5977640    1.0775280  
C    -1.6847560    0.0211080    1.0053820  
N    -1.8351430   -0.9299810    1.8753920  
C    -2.7020010    0.5258450    0.0767280  
C    -2.2867400    1.5596070   -0.7203020  
O    -3.0567180    2.1484080   -1.6594190  
C    -0.9136390    2.1472910   -0.6703650  
O    -0.6590630    3.0181200   -1.5026510  
C     0.0796380    1.6605970    0.3263440  
H     1.3825540   -0.0960150    2.4328100  
H    -2.4702940    2.8219810   -2.0792540  
H    -0.4837120   -1.8193760    3.3152070  
C     4.2105160    0.1121320    0.0050100  
C     4.9329820    1.2699510    0.0382840  
C     3.9635100    2.3317270    0.2159080  
C     2.6437230    1.6214410    0.2451430  
N     2.7907480    0.3385180    0.1259710  
C     1.3868200    2.3426230    0.3796360  
C     1.4864580    3.6936140    0.5440110  
O     0.4393680    4.4927630    0.7559440  
C     2.8083350    4.4261710    0.5394210  
O     2.7695680    5.6453030    0.6902120  
C     4.0534580    3.6717910    0.3547580  
H     6.0077400    1.3791820    0.0063570  
H     0.8095120    5.4031390    0.8201080  
H     4.9827700    4.2325600    0.3409760  
C     7.3463860   -1.8566930   -2.4857580  
C     6.5399940   -0.9072380   -1.9452260  
C     5.7133020   -1.6156790   -0.9837560  
C     6.1705650   -3.0417060   -1.0974010  
N     7.1264830   -3.1705570   -1.9729660  
C     5.5734980   -4.0925340   -0.3212570  
C     4.5733200   -3.7580500    0.5276740  
O     3.9391790   -4.6343160    1.3181800  
C     4.1058300   -2.3334570    0.6971460  
O     3.2728120   -2.1243140    1.5723540  
C     4.7051890   -1.2500000   -0.1420220  
H     6.4990520    0.1448820   -2.1849420  
H     5.9265920   -5.1125210   -0.4240170  
H     3.3000600   -4.1050400    1.8441640  
H     8.1064780   -1.7234340   -3.2467220  
