62


C    -0.8805480    0.3335300   -0.2435470  
C    -2.2471100    0.5923620   -0.1575460  
C    -2.9249070   -0.6435380   -0.2884490  
C    -1.9229530   -1.6534230   -0.4453570  
N    -0.7064220   -1.0318850   -0.4201740  
C    -2.2298800   -3.0115200   -0.5863880  
C    -3.5683810   -3.3611310   -0.5676990  
O    -3.9310020   -4.6630050   -0.7189740  
C    -4.5851170   -2.3770280   -0.3924270  
O    -5.8551110   -2.9133150   -0.4044560  
C    -4.3015950   -1.0220150   -0.2496270  
H    -2.6890730    1.5710360   -0.0447990  
H     0.2122970   -1.4477420   -0.4779230  
H    -1.4729950   -3.7775020   -0.7162750  
H    -4.9039390   -4.6941750   -0.7229440  
H    -6.5060310   -2.1931720   -0.4202740  
C     0.2636770    1.1836260   -0.1770100  
C     0.3741950    2.5344630    0.0345140  
C     1.7794080    2.8161330    0.0179070  
C     2.4350410    1.4848690   -0.2330230  
N     1.5451110    0.5423530   -0.3401520  
C     3.8869570    1.3259500   -0.3239790  
C     4.5964470    2.4842650   -0.1657950  
O     5.9395730    2.5599880   -0.2513260  
C     3.9684910    3.8229730    0.0999100  
O     4.7407770    4.7845000    0.2170570  
C     2.5204060    3.9407280    0.1858100  
H    -0.4232970    3.2466200    0.1932600  
H     6.1296130    3.5186990   -0.1120060  
H     2.1024250    4.9243480    0.3743400  
C     3.9070660   -0.9572460   -1.3894910  
C     4.4785350    0.0111660   -0.5832070  
C     5.7154450   -0.5623500   -0.0829010  
C     5.8220480   -1.8656440   -0.6315330  
N     4.7097050   -2.0693140   -1.4278750  
C     6.8810000   -2.7350150   -0.3466790  
C     7.8609380   -2.2835410    0.5229890  
O     8.9210590   -3.0857840    0.8366490  
C     7.7684390   -0.9887290    1.0939170  
O     8.8136780   -0.6784760    1.9468430  
C     6.7189980   -0.1350200    0.8095810  
H     4.5191590   -2.9046720   -1.9586500  
H     6.9560080   -3.7303410   -0.7730040  
H     9.4901550   -2.5795300    1.4417500  
H     8.7231740    0.2404900    2.2391050  
H     6.6856960    0.8563430    1.2484760  
H     2.9805500   -0.9192380   -1.9398180  
C    -7.5612850   -0.6810690    2.7567800  
C    -6.4778100   -1.0715270    2.0357820  
C    -6.3149300   -0.1235820    0.9510330  
C    -7.4081080    0.8679110    1.1095470  
N    -8.1364520    0.4599580    2.2105950  
C    -7.5986200    1.9524960    0.3153240  
C    -6.6626780    2.1694300   -0.7765460  
O    -6.7195510    3.1287640   -1.5301250  
C    -5.5131940    1.1144140   -0.9980120  
O    -4.7730350    1.2699020   -1.9523350  
C    -5.3846820   -0.0330320   -0.0579230  
H    -5.8466480   -1.9227360    2.2390610  
H    -8.3992530    2.6706240    0.4628460  
H    -7.9907210   -1.1280770    3.6436480  
H    -8.9135760    0.9672260    2.6040580  
