60


C    -0.8509560    1.9486150   -0.1174980  
C    -1.5862690    0.7832260    0.0933500  
C    -2.9586930    1.1363770    0.1117570  
C    -3.0284820    2.5469180   -0.1018890  
N    -1.7476190    3.0083090   -0.2346330  
C    -4.2342100    3.2519500   -0.1638720  
C    -5.3989230    2.5172560   -0.0088310  
O    -6.6064340    3.1429860   -0.0373390  
C    -5.3529740    1.1096200    0.1829300  
O    -6.6139720    0.5207260    0.2821040  
C    -4.1656310    0.3873940    0.2458600  
H    -1.1497540   -0.1904190    0.2345970  
H    -1.4597070    3.9658460   -0.3747260  
H    -4.2856400    4.3253460   -0.3113110  
H    -7.2792190    2.4672710    0.1615940  
H    -6.5561690   -0.2295050    0.8979940  
C     2.4180160   -0.9460860    0.0491980  
C     3.5349960   -0.1593540   -0.0478260  
C     2.9926250    1.2113570   -0.1545850  
C     1.5148840    1.0269080   -0.1102020  
N     1.2051940   -0.2361760    0.0117340  
C     0.5772200    2.1517610   -0.2044730  
C     1.1660870    3.3825450   -0.3824040  
O     0.4605730    4.5391990   -0.5012650  
C     2.6200530    3.5878770   -0.4566890  
O     3.0419270    4.7407170   -0.6218910  
C     3.5309170    2.4305120   -0.3317800  
H     1.1496390    5.2345290   -0.6122580  
H     4.5939600    2.6330450   -0.3726910  
H     2.3887690   -2.0195080    0.1895600  
C     5.5750610   -3.7472100   -1.7352790  
C     4.6306820   -2.8099980   -1.4724670  
C     5.3010150   -1.8112170   -0.6473910  
C     6.6917640   -2.3272810   -0.5262230  
N     6.8466240   -3.4601890   -1.1547310  
C     7.7103500   -1.6146940    0.2018150  
C     7.3692320   -0.4347860    0.7661490  
O     8.2211850    0.3440560    1.4571540  
C     5.9781880    0.1220860    0.6616580  
O     5.7724540    1.2059510    1.2053150  
C     4.9075080   -0.6403550   -0.0624570  
H     3.6079580   -2.7841380   -1.8189270  
H     8.7129280   -2.0215130    0.2730550  
H     7.6939260    1.1192050    1.7473540  
H     5.4697870   -4.6496650   -2.3255790  
C    -6.2507240   -2.8180380   -1.9592700  
C    -5.7446690   -3.9065330   -1.3255940  
C    -4.8491100   -3.4252030   -0.2951460  
C    -4.8753250   -1.9429300   -0.3855590  
N    -5.7189620   -1.6420080   -1.4382460  
C    -4.1637420   -1.0839930    0.4141040  
C    -3.3526760   -1.7181960    1.4800460  
O    -2.7540830   -1.0779830    2.3268050  
C    -3.2694750   -3.2897790    1.5487140  
O    -2.5347750   -3.7952280    2.3828540  
C    -4.0751400   -4.0718420    0.6169620  
H    -5.9579360   -4.9411480   -1.5512990  
H    -4.0222750   -5.1542640    0.6821950  
H    -6.9558640   -2.7672220   -2.7786100  
H    -6.1116530   -0.7222510   -1.5783480  
