60


C     1.8365360    0.0285700   -0.4212460  
C     1.0971080    1.1468010   -0.0738290  
C     2.0494220    2.2426010    0.0208680  
C     3.3282670    1.7087010   -0.2601010  
N     3.1724560    0.3475950   -0.5447480  
C     4.5040870    2.4646110   -0.2078620  
C     4.3858470    3.8039760    0.1280400  
O     5.4949840    4.5921550    0.1836250  
C     3.1118760    4.3624760    0.4104110  
O     3.1504710    5.7056870    0.7219630  
C     1.9576750    3.6043410    0.3685980  
H     5.4830280    2.0441020   -0.4076410  
H     5.1995910    5.4891220    0.4190810  
H     2.2468530    6.0477650    0.7962340  
H     0.9950960    4.0622580    0.5662510  
H     1.4963420   -0.9670620   -0.6651110  
C    -1.6149230   -1.8446590    1.7725400  
C    -0.5347000   -1.1355210    1.3616140  
C    -1.0151830    0.0654650    0.7057220  
C    -2.4872410   -0.0062910    0.7806360  
N    -2.7908840   -1.1729010    1.4370490  
C    -3.3508770    0.9408100    0.2810570  
C    -2.7640880    2.1462080   -0.2779560  
O    -3.4181680    3.1088090   -0.6562000  
C    -1.1914580    2.2427580   -0.3678700  
O    -0.7376070    3.2612240   -0.8584070  
C    -0.3469030    1.1256990    0.1278690  
H     0.4973030   -1.3970430    1.5331010  
H    -1.6650270   -2.7827120    2.3080330  
H    -3.7226310   -1.5521860    1.5205240  
C    -5.6232370    1.8263860    0.8018280  
C    -6.9177440    1.4345720    0.7425940  
C    -6.9432690    0.0983930    0.1898920  
C    -5.5274570   -0.2614610   -0.0814710  
N    -4.7573770    0.8175640    0.3389460  
C    -5.1387920   -1.4335150   -0.6552230  
C    -6.1637720   -2.4157560   -1.0024990  
O    -5.9020600   -3.4895640   -1.5232760  
C    -7.6622260   -2.0684750   -0.6842560  
O    -8.5282140   -2.8906350   -0.9382310  
C    -7.9571800   -0.7589490   -0.0967600  
H    -7.7764590    2.0168870    1.0436330  
H    -4.1111370   -1.6619580   -0.9145750  
H    -8.9990550   -0.5124400    0.0845180  
H    -5.1984580    2.7611500    1.1343650  
C     5.0606800   -0.3903670   -1.9656010  
C     4.1821900   -0.5483860   -0.9344400  
C     4.4888020   -1.8149790   -0.2874020  
C     5.6274610   -2.3869400   -1.0457080  
N     5.9300870   -1.4684120   -2.0352620  
C     6.2100980   -3.5786080   -0.7628250  
C     5.6960000   -4.3536180    0.3657830  
O     6.1545140   -5.4365570    0.6918660  
C     4.4994080   -3.7544920    1.1924670  
O     4.0584660   -4.3828850    2.1408260  
C     3.9545410   -2.4552340    0.7838310  
H     7.0425430   -3.9862100   -1.3280230  
H     3.1362930   -2.0433510    1.3657350  
H     5.1370350    0.4270360   -2.6694490  
H     6.6739340   -1.5688500   -2.7081090  
