58


C    -1.1243880   -1.1212370    2.3511550  
C    -2.3208420   -1.3971840    1.7733010  
C    -2.5282660   -0.4209190    0.7227090  
C    -1.3309430    0.4493560    0.7293400  
N    -0.5318250   -0.0155510    1.7492420  
C    -1.1132910    1.5146580   -0.1118010  
C    -2.1374790    1.7461430   -1.1496750  
O    -1.9855830    2.5358090   -2.0640900  
C    -3.4572000    0.9064600   -1.1059240  
O    -4.3857310    1.2525070   -1.8111820  
C    -3.5570360   -0.2394260   -0.1646970  
H    -2.9951680   -2.1951920    2.0429950  
H    -0.6186890   -1.6240130    3.1646590  
H     0.3972840    0.3286210    1.9425100  
C     3.3701150    0.9353460   -0.0149640  
C     2.0152470    0.6804730   -0.0815830  
C     1.3698770    1.9656520   -0.0183480  
C     2.5050930    2.9320830    0.0766770  
N     3.6605530    2.3306730    0.0907040  
C     2.2912030    4.3550370    0.1162740  
C     1.0147110    4.7993210    0.0673740  
O     0.6685060    6.0938890    0.0988560  
C    -0.1614140    3.8560750    0.0304170  
O    -1.2757710    4.3547370    0.1466010  
C     0.0646190    2.3793620   -0.0578030  
H     1.5347020   -0.2796930   -0.2070940  
H     3.1380230    5.0292600    0.1765700  
H    -0.3142250    6.1038480    0.1003630  
C     4.4405720   -0.0274030   -0.0608220  
C     4.3435560   -1.3749830   -0.3160270  
C     5.6906450   -1.8844260   -0.2512260  
C     6.5217670   -0.6776420    0.0680170  
N     5.7976660    0.3948950    0.1765650  
C     7.9520940   -0.7714710    0.2242770  
C     8.5245430   -1.9878710    0.0676620  
O     9.8395180   -2.2238490    0.1821660  
C     7.7125670   -3.2199530   -0.2570460  
O     8.3221210   -4.2826250   -0.3775340  
C     6.2559330   -3.1047060   -0.4099230  
H     3.4534480   -1.9443930   -0.5455530  
H     8.5314280    0.1152780    0.4556660  
H     9.9459460   -3.1870140    0.0150200  
H     5.7065990   -4.0119240   -0.6424440  
C    -6.7629680   -1.2323210    2.7881810  
C    -5.6461340   -0.7455160    2.1852770  
C    -5.6267400   -1.2583440    0.8319640  
C    -6.8481960   -2.0898960    0.6933060  
N    -7.4788150   -2.0492020    1.9231720  
C    -7.2374870   -2.7218700   -0.4431720  
C    -6.3987330   -2.5874750   -1.6270280  
O    -6.6728140   -3.0941260   -2.7031740  
C    -5.0691290   -1.7625820   -1.5002760  
O    -4.2919880   -1.7601030   -2.4372440  
C    -4.7672200   -1.0699790   -0.2189620  
H    -4.9143860   -0.0901690    2.6320560  
H    -8.1499080   -3.3050320   -0.5206810  
H    -7.1256540   -1.0654050    3.7939000  
H    -8.3789800   -2.4583760    2.1191580  
