58


C     3.9887020    0.2438280    0.0557450  
C     4.6049910    1.4724880    0.1893580  
C     3.5873240    2.4590730    0.4065760  
C     2.2975130    1.7328970    0.4024480  
N     2.6101140    0.4136870    0.1953240  
C     1.0565100    2.3098860    0.5597570  
C     1.0538590    3.7748650    0.7509860  
O     0.0326050    4.4257270    0.9104640  
C     2.4206560    4.5588260    0.7698980  
O     2.3860950    5.7709520    0.9236070  
C     3.6538110    3.8101070    0.5932000  
H     5.6666230    1.6609460    0.2056150  
H     4.5909810    4.3577530    0.6034450  
H     1.9710140   -0.3695770    0.1687350  
C    -0.3507990    0.2762040    1.1061020  
C    -0.1768770    1.5283740    0.5858940  
C    -1.5032700    1.8561230    0.0085210  
C    -2.3318110    0.6356590    0.2466980  
N    -1.6452100   -0.2537230    0.9205100  
C    -3.7092100    0.5074420   -0.2034390  
C    -4.2491140    1.6499630   -0.7403460  
O    -5.5315390    1.7677130   -1.0928260  
C    -3.4491710    2.8925460   -0.9804080  
O    -4.0209480    3.8496350   -1.5003800  
C    -2.0282700    2.9439860   -0.5813080  
H    -5.6172500    2.6649700   -1.4862790  
H    -1.5000540    3.8766240   -0.7309370  
H     0.3674560   -0.3177450    1.6587780  
C    -4.1647120   -2.7633950    2.8033390  
C    -5.1465710   -3.4798860    2.1964950  
C    -5.4282350   -2.8320330    0.9353830  
C    -4.5327210   -1.6454280    0.8789590  
N    -3.8197980   -1.6392840    2.0617310  
C    -4.4916810   -0.7424000   -0.1534940  
C    -5.2664970   -1.1316270   -1.3618750  
O    -5.0968990   -0.6135510   -2.4512660  
C    -6.3121000   -2.2990940   -1.2608810  
O    -7.0796020   -2.4737000   -2.1956370  
C    -6.3017490   -3.1289910   -0.0646510  
H    -5.6260790   -4.3708880    2.5751190  
H    -6.9954830   -3.9626070   -0.0128780  
H    -3.6675100   -2.9502360    3.7465950  
H    -2.8981120   -1.1961040    2.0691960  
C     7.9045690   -1.1555710   -1.5556070  
C     6.8226150   -0.3996670   -1.2057670  
C     5.8345610   -1.2848740   -0.6510270  
C     6.4286980   -2.6413600   -0.7158480  
N     7.6953580   -2.4849900   -1.2497270  
C     5.8221640   -3.7860210   -0.3120360  
C     4.4615350   -3.6894200    0.1936020  
O     3.8286910   -4.6434600    0.6130160  
C     3.7660560   -2.2810350    0.1864980  
O     2.5708580   -2.2527750    0.4510670  
C     4.5610980   -1.0748780   -0.1443380  
H     6.7223760    0.6607410   -1.3691940  
H     6.2963920   -4.7617340   -0.3428750  
H     8.8325290   -0.8442730   -2.0167860  
H     8.3285280   -3.2415590   -1.4583420  
