58


C    -3.1590480   -1.5239320   -0.1819000  
C    -4.0829940   -0.5160480   -0.1877550  
C    -3.3155120    0.7334780   -0.2395960  
C    -1.8879530    0.3485280   -0.2678470  
N    -1.8685940   -1.0290320   -0.2643460  
C    -0.8118660    1.2089390   -0.2686170  
C    -1.1469610    2.6447320   -0.2034350  
O    -0.3059860    3.5291660   -0.1645190  
C    -2.6601170    3.0744420   -0.1834410  
O    -2.9188500    4.2647730   -0.1225230  
C    -3.6908390    2.0384950   -0.2162630  
H    -4.7258000    2.3569590   -0.2251630  
H    -3.3260720   -2.5925170   -0.1655520  
H    -1.0241510   -1.5750250   -0.1730760  
C     1.0349130   -0.3430470   -1.0485640  
C     0.5663160    0.7419530   -0.3556830  
C     1.7789600    1.2687130    0.3245800  
C     2.8637520    0.3370680   -0.0905020  
N     2.4165040   -0.5891920   -0.8948640  
C     4.2321000    0.4778880    0.3743570  
C     4.4788220    1.5125190    1.2274620  
O     5.6908030    1.7972610    1.7191900  
C     3.4022490    2.4574350    1.6716460  
O     3.7198030    3.3550070    2.4494440  
C     2.0231090    2.2880320    1.1683700  
H     5.5598890    2.5770050    2.3040840  
H     1.2857700    3.0162940    1.4814640  
H     0.4768130   -0.9786890   -1.7268390  
C     6.0474440   -0.8774140   -3.4990880  
C     5.2478200   -0.2438010   -2.6113640  
C     5.6592350   -0.7431900   -1.3028690  
C     6.7636870   -1.7054230   -1.6167630  
N     6.9880150   -1.7772830   -2.8964430  
C     7.4690990   -2.4172560   -0.5823480  
C     7.0995590   -2.1900870    0.6978930  
O     7.6579360   -2.7892790    1.7633470  
C     5.9857380   -1.2397840    1.0500060  
O     5.6786640   -1.1531900    2.2356590  
C     5.2865630   -0.4753760   -0.0273080  
H     4.4586530    0.4660410   -2.8081410  
H     8.2640590   -3.1071990   -0.8425810  
H     7.1694700   -2.4413330    2.5414100  
H     6.0528560   -0.7795360   -4.5781700  
C    -6.6743180   -3.1122760    2.3138890  
C    -5.6233670   -2.4369690    1.7778980  
C    -6.1416630   -1.5872300    0.7263990  
C    -7.6053880   -1.8240770    0.6992650  
N    -7.8574380   -2.7718780    1.6726120  
C    -8.4845600   -1.2003000   -0.1271890  
C    -7.9608500   -0.2151710   -1.0584870  
O    -8.6599120    0.4274690   -1.8261460  
C    -6.4073590    0.0404130   -1.0770480  
O    -5.9669300    0.8338490   -1.8913980  
C    -5.5356320   -0.6974900   -0.1283980  
H    -4.5961630   -2.5024720    2.1019070  
H    -9.5530680   -1.3910470   -0.1198010  
H    -6.6876990   -3.8266950    3.1263070  
H    -8.7738190   -3.1131260    1.9172160  
