60


C     1.1962220    1.6004770   -0.0180940  
C     1.8380850    2.8019260   -0.3444830  
C     3.2186620    2.5352600   -0.4743480  
C     3.3998390    1.1401360   -0.2263940  
N     2.1702310    0.6082590    0.0421410  
C     4.6622310    0.5090780   -0.2525660  
C     5.7469950    1.3347780   -0.5496720  
O     6.9855910    0.8019970   -0.6461560  
C     5.5806910    2.7329950   -0.8028270  
O     6.7670120    3.3733760   -1.0841680  
C     4.3466670    3.3371680   -0.7709540  
H     1.3487880    3.7478910   -0.5180120  
H     1.9441490   -0.3626490    0.2106840  
H     7.6148500    1.5324540   -0.7835640  
H     6.6167710    4.3273160   -1.1625660  
H     4.2409880    4.4016360   -0.9665950  
C    -2.4388770    4.0948560    0.7574550  
C    -1.1398450    3.7147060    0.6456790  
C    -1.1757300    2.2825840    0.4140120  
C    -2.6162150    1.9483630    0.4248400  
N    -3.3462740    3.0197550    0.6095940  
C    -3.1287950    0.5815570    0.2472670  
C    -2.1576310   -0.3930500    0.1623310  
O    -2.3871160   -1.7085610    0.0953350  
C    -0.6938030   -0.0740810    0.1670440  
O     0.0692070   -1.0506350    0.1383650  
C    -0.2022730    1.3356250    0.1923050  
H    -0.2635580    4.3326070    0.7691070  
H    -1.4925990   -2.1182320    0.0719220  
H    -2.8317070    5.0853540    0.9528770  
C    -4.5498940    0.3106470    0.1915860  
C    -5.5890790    1.1837370    0.4044350  
C    -6.7949570    0.4150760    0.2148330  
C    -6.3088820   -0.9585030   -0.1292510  
N    -5.0139880   -1.0208710   -0.1444430  
C    -7.2285560   -2.0358340   -0.4040860  
C    -8.5521630   -1.7639450   -0.3354820  
O    -9.5233880   -2.6625670   -0.5622440  
C    -9.0714070   -0.3879590    0.0115730  
O   -10.2947760   -0.2429520    0.0467000  
C    -8.1188270    0.6935810    0.2833990  
H    -5.5045680    2.2286530    0.6547140  
H    -6.8525140   -3.0222070   -0.6519110  
H   -10.3629110   -2.1649560   -0.4367520  
H    -8.5274510    1.6700170    0.5250010  
C     3.0320940   -3.2203180   -2.0515960  
C     3.3479460   -1.9278170   -1.7782790  
C     4.2307730   -1.9322870   -0.6287350  
C     4.4117250   -3.3583140   -0.2579600  
N     3.6489000   -4.0831270   -1.1534410  
C     5.1992670   -3.8058940    0.7531250  
C     5.9217190   -2.8207930    1.5448040  
O     6.6859750   -3.1174770    2.4502710  
C     5.6979490   -1.2975690    1.2217930  
O     6.2035550   -0.4704000    1.9581660  
C     4.8491690   -0.9233280    0.0597670  
H     3.0108890   -1.0588220   -2.3223890  
H     5.3307060   -4.8572480    0.9896160  
H     2.4017580   -3.6204540   -2.8347440  
H     3.5872620   -5.0888620   -1.1736150  
