62


C    -0.8068980    1.3611710   -0.0482320  
C    -1.9026620    0.5860210   -0.3717780  
C    -3.0549580    1.2109280    0.1995510  
C    -2.6111800    2.3862800    0.8643670  
N    -1.2459020    2.4638400    0.6780800  
C    -3.4737090    3.2579980    1.5363910  
C    -4.8239410    2.9387060    1.5545100  
O    -5.7050460    3.7433880    2.2122920  
C    -5.2989650    1.7746230    0.9006210  
O    -6.6599560    1.5757920    0.9817510  
C    -4.4373730    0.9209280    0.2179160  
H    -1.8800630   -0.3071450   -0.9789970  
H    -0.6335150    3.1049270    1.1593030  
H    -3.1287070    4.1543810    2.0410060  
H    -6.5829890    3.3290610    2.1466890  
H    -6.8532280    0.6447450    0.7834630  
C     1.2348200   -0.0574540   -0.4113250  
C     0.6008400    1.1523130   -0.3378870  
C     1.6173650    2.1623780   -0.6100030  
C     2.8814850    1.4238580   -0.8496430  
N     2.5839360    0.0702250   -0.7237410  
C     4.0686120    2.0104610   -1.1468180  
C     4.1229620    3.4681690   -1.2276870  
O     5.1498620    4.0844320   -1.4683560  
C     2.7926360    4.2716870   -0.9943990  
O     2.8130850    5.4903320   -1.0687750  
C     1.5713400    3.5189430   -0.6942640  
H     4.9762950    1.4456730   -1.3286110  
H     0.6551670    4.0879970   -0.5717920  
H     0.8293860   -1.0452390   -0.2373740  
C     3.4024350   -2.0021380   -1.8078020  
C     3.4939610   -1.0030990   -0.8654950  
C     4.6409710   -1.2793560   -0.0398740  
C     5.2091760   -2.4761440   -0.5422970  
N     4.4310130   -2.8927600   -1.6070080  
C     6.3530090   -3.0595890    0.0174760  
C     6.9301080   -2.4200200    1.1021940  
O     8.0465880   -2.9409970    1.6817940  
C     6.3689400   -1.2189390    1.6201550  
O     7.0564940   -0.7107590    2.7017880  
C     5.2393270   -0.6463500    1.0683380  
H     4.5927570   -3.7230050   -2.1556130  
H     6.7941900   -3.9746460   -0.3637380  
H     8.3018730   -2.3465230    2.4085850  
H     6.6749080    0.1402460    2.9640100  
H     4.8272180    0.2716760    1.4797030  
H     2.6843520   -2.1375180   -2.6035360  
C    -5.7761920   -0.1505190   -1.6123350  
C    -6.0332120   -1.3843920   -2.1117720  
C    -5.3593800   -2.3434050   -1.2616330  
C    -4.6800400   -1.5517200   -0.2055820  
N    -4.9860170   -0.2134340   -0.4525300  
C    -3.9252420   -2.0868970    0.7871220  
C    -3.7581420   -3.5382320    0.8237930  
O    -3.0843500   -4.1086160    1.6683990  
C    -4.4774150   -4.3981330   -0.2799100  
O    -4.3493270   -5.6124930   -0.2608370  
C    -5.2708030   -3.6995160   -1.2940720  
H    -6.6258570   -1.6111980   -2.9863320  
H    -3.4316250   -1.4883830    1.5446880  
H    -5.7628360   -4.3013750   -2.0522420  
H    -6.0846020    0.8212530   -1.9750510  
