62


C     1.6392050   -1.0567590   -1.3158680  
C     0.8084480   -0.3259250   -0.4896040  
C     1.6636560    0.6050050    0.2201290  
C     2.9869880    0.3775670   -0.2329660  
N     2.9391860   -0.6304760   -1.1729270  
C     4.0885190    1.1044680    0.2582500  
C     3.8353830    2.0774090    1.2247360  
O     4.8644060    2.8167420    1.7241410  
C     2.5141780    2.3079210    1.6841290  
O     2.4367700    3.2978440    2.6411380  
C     1.4368970    1.5858190    1.2053450  
H     3.7427400   -1.0433320   -1.6219110  
H     4.4898130    3.4103260    2.3991730  
H     1.5309270    3.3609910    2.9788720  
H     0.4373700    1.7751200    1.5873560  
H     1.3864670   -1.8337890   -2.0228880  
C    -1.3410810   -1.6702400   -0.3655990  
C    -0.6296350   -0.5098880   -0.3728380  
C    -1.6712180    0.5429590   -0.3360130  
C    -2.9584210   -0.2035490   -0.2653650  
N    -2.7504290   -1.4876550   -0.3076900  
C    -4.2561880    0.4757310   -0.2248520  
C    -4.1907680    1.8346880   -0.3531030  
O    -5.2975350    2.6377140   -0.3642660  
C    -2.9318810    2.6011950   -0.4717010  
O    -3.0020630    3.8333140   -0.5515900  
C    -1.6428340    1.8802600   -0.4676450  
H    -4.9362530    3.5506330   -0.4500660  
H    -0.7386760    2.4702250   -0.5808390  
H    -0.9511880   -2.6808080   -0.3830070  
C    -5.6882140   -2.7517670    2.5858650  
C    -4.9422460   -1.7894800    1.9585490  
C    -5.7211230   -1.2891180    0.8615660  
C    -6.9551780   -1.9926070    0.8869240  
N    -6.9024220   -2.8830790    1.9384310  
C    -7.9979390   -1.7495840   -0.0131730  
C    -7.8002840   -0.7481600   -0.9491740  
O    -8.7777910   -0.4464290   -1.8485300  
C    -6.5886910   -0.0104940   -0.9919840  
O    -6.5455290    0.9275560   -2.0040500  
C    -5.5213990   -0.2769100   -0.1222370  
H    -3.9431030   -1.4905730    2.2358690  
H    -7.6482960   -3.5027690    2.2118600  
H    -8.9365660   -2.2941370    0.0092450  
H    -8.4191200    0.2868330   -2.3839720  
H    -6.2387290    1.7759230   -1.6190690  
H    -5.4529970   -3.3668380    3.4429560  
C     6.2378780    1.8807600   -0.7585410  
C     7.4403370    1.3790670   -1.1289590  
C     7.4371380   -0.0318640   -0.8093650  
C     6.1092340   -0.3140760   -0.2055410  
N     5.4076820    0.8871780   -0.2170980  
C     5.7261260   -1.5335260    0.2583860  
C     6.6641600   -2.6483970    0.1423210  
O     6.4036720   -3.7771660    0.5302570  
C     8.0653530   -2.3750960   -0.5155600  
O     8.8534570   -3.2998760   -0.6364260  
C     8.3675820   -1.0112260   -0.9566160  
H     8.2545880    1.9307360   -1.5759220  
H     4.7705680   -1.7168830    0.7373310  
H     9.3464760   -0.8274620   -1.3892000  
H     5.8608610    2.8913650   -0.8231720  
