62


C     0.3209170    1.8968500    0.3971810  
C     1.5537400    1.3133650    0.2185490  
C     1.3223860   -0.0675590   -0.1172100  
C    -0.0833120   -0.2509260   -0.1522670  
N    -0.6683580    0.9604210    0.1682950  
C    -0.7172780   -1.4715680   -0.4734860  
C     0.1593950   -2.5132550   -0.8013170  
O    -0.3280760   -3.7301510   -1.1662110  
C     1.5689740   -2.3557560   -0.7917180  
O     2.2441770   -3.5005140   -1.1347180  
C     2.1902280   -1.1587450   -0.4195820  
H     2.4975000    1.8378510    0.2383810  
H    -1.6487760    1.0922580    0.3714420  
H     0.4593490   -4.2592650   -1.4073330  
H     2.9931680   -3.2296930   -1.7216100  
C     0.6340110    3.9131550    1.7915940  
C     0.0871460    5.1591820    1.8992710  
C    -0.9472720    5.2596480    0.9062840  
C    -0.9798190    4.0264800    0.2092560  
N    -0.0037160    3.2003790    0.7740480  
C    -1.8472870    3.7902980   -0.8647800  
C    -2.7174450    4.8100330   -1.2213850  
O    -3.5815890    4.6279770   -2.2597560  
C    -2.7137290    6.0443240   -0.5198280  
O    -3.6392960    6.9549930   -0.9893900  
C    -1.8414130    6.2792910    0.5269780  
H     0.3789600    5.9193230    2.6110160  
H    -1.8478890    2.8678740   -1.4341510  
H    -4.0957840    5.4479210   -2.3572250  
H    -3.5700760    7.7788000   -0.4847420  
H    -1.8444050    7.2380190    1.0418030  
H     1.4169240    3.4336830    2.3604690  
C     4.6554380    0.4765090    2.8237770  
C     5.8904820    0.3782250    2.2707620  
C     5.7266080   -0.2253210    0.9645790  
C     4.2704150   -0.4639110    0.7974000  
N     3.6857990   -0.0345570    1.9649210  
C     3.6612890   -1.0219620   -0.3061920  
C     4.5842410   -1.5059470   -1.3330410  
O     4.2407690   -2.2024910   -2.2902380  
C     6.1187100   -1.1674800   -1.2340230  
O     6.8331490   -1.4552930   -2.1798790  
C     6.6165460   -0.5517100   -0.0093330  
H     6.8255660    0.6759840    2.7218830  
H     7.6816040   -0.3592950    0.0698380  
H     4.3628220    0.8641420    3.7906290  
H     2.6868790    0.0402680    2.0926650  
C    -3.0969330   -0.6989180   -0.9378830  
C    -2.1752900   -1.6051290   -0.4951660  
C    -3.0034000   -2.7170790    0.0302140  
C    -4.4063660   -2.2700330   -0.1988120  
N    -4.4495220   -1.0968680   -0.7679470  
C    -5.5338670   -3.0787750    0.1859120  
C    -5.2855410   -4.2649460    0.7902200  
O    -6.2370200   -5.1168150    1.2088930  
C    -3.8826850   -4.7333170    1.0527060  
O    -3.7359460   -5.8192260    1.6121530  
C    -2.7411900   -3.8897990    0.6358070  
H    -6.5415890   -2.7261410   -0.0039660  
H    -5.7507510   -5.8760100    1.5992880  
H    -1.7452930   -4.2780720    0.8125410  
H    -2.9031520    0.2475350   -1.4297620  
