58


C     4.8578820   -0.6247790    2.0374900  
C     3.5634490   -0.7791300    1.6594920  
C     3.5518650   -1.6369480    0.4955290  
C     4.9742640   -1.9770810    0.2251210  
N     5.7114140   -1.3331460    1.1968700  
C     5.4100670   -2.7846580   -0.7754360  
C     4.4195220   -3.3598100   -1.6707700  
O     4.6999330   -4.1167250   -2.5876280  
C     2.9107750   -2.9819760   -1.4467880  
O     2.0953740   -3.3612160   -2.2686510  
C     2.5387380   -2.1465690   -0.2744310  
H     2.7095770   -0.2982560    2.1074570  
H     6.4553700   -3.0336080   -0.9306400  
H     5.2670710   -0.0470350    2.8555720  
H     6.7140540   -1.3811200    1.2839860  
C     0.2404180    1.6173730    0.0879490  
C    -1.0417270    1.1453800    0.1345220  
C    -0.9274110   -0.2959290    0.0983640  
C     0.5483750   -0.5475320    0.0149470  
N     1.2177560    0.5670830    0.0091950  
C     1.1036660   -1.8882790   -0.0538550  
C     0.1986660   -2.9079810    0.0340920  
O     0.5484440   -4.1972750    0.0535500  
C    -1.2850060   -2.6901830    0.1189180  
O    -2.0039690   -3.6855030    0.1131010  
C    -1.8326710   -1.3066220    0.1591560  
H    -1.9520150    1.7170420    0.2382630  
H    -0.2927230   -4.7053120    0.0601830  
C    -4.9342250    0.7280720   -2.3505890  
C    -3.7356540    0.2762300   -1.9078410  
C    -4.0341940   -0.4343220   -0.6700310  
C    -5.5221420   -0.3059750   -0.5289720  
N    -6.0378310    0.3770700   -1.5101540  
C    -6.2339350   -0.9014670    0.5703700  
C    -5.5162790   -1.5935860    1.4856390  
O    -6.0479450   -2.1899590    2.5626270  
C    -4.0195340   -1.7261660    1.3903960  
O    -3.4416340   -2.2933390    2.3114690  
C    -3.2920550   -1.1280120    0.2299390  
H    -2.7657800    0.3897100   -2.3701310  
H    -7.3097410   -0.7890590    0.6448160  
H    -5.2922270   -2.5845400    3.0501230  
H    -5.1366030    1.2990890   -3.2490940  
C    -1.2489450    5.3944150   -1.7605060  
C    -1.1458230    4.0880430   -1.4064900  
C     0.0272270    4.0184610   -0.5502610  
C     0.5289280    5.4309500   -0.5142770  
N    -0.2224510    6.2271020   -1.2206930  
C     1.7132770    5.7969210    0.2133400  
C     2.3699240    4.8183040    0.8777370  
O     3.4772200    5.0195590    1.6081630  
C     1.8810850    3.3912260    0.8965790  
O     2.4873030    2.6113090    1.6239600  
C     0.6728100    3.0080840    0.1007960  
H    -1.7859730    3.2690620   -1.6992080  
H     2.0499480    6.8275950    0.2209540  
H     3.6907220    4.1453060    2.0026120  
H    -1.9997180    5.8508320   -2.3949180  
