62


C    -0.4974840   -1.1246630    0.7488870  
C    -0.7930160   -2.3668150    1.2470000  
C    -2.1764510   -2.6049170    0.9454680  
C    -2.6680340   -1.4504320    0.2828280  
N    -1.6271560   -0.5378830    0.2007720  
C    -4.0117880   -1.3059620   -0.1364910  
C    -4.8269640   -2.4302350    0.0767350  
O    -6.1200990   -2.4368230   -0.3618510  
C    -4.3432910   -3.5874440    0.7366700  
O    -5.2962280   -4.5807300    0.8802970  
C    -3.0426480   -3.6846040    1.1901890  
H    -0.1217990   -3.0088320    1.7997940  
H    -1.5888040    0.1130420   -0.5783190  
H    -6.4720960   -3.3269310   -0.1819430  
H    -4.8657590   -5.4070260    1.1450350  
H    -2.6999770   -4.5772760    1.7086670  
C     1.9346830   -1.0562330    0.4161610  
C     2.9633300   -0.1380630    0.5006930  
C     2.3590980    1.1228320    0.8856170  
C     0.9699420    0.8932560    1.0165440  
N     0.7325580   -0.4547420    0.7159610  
C     0.0723460    1.8839940    1.4289470  
C     0.5903250    3.1409040    1.7020650  
O    -0.2407190    4.1430020    2.1027150  
C     1.9826080    3.3906440    1.5817150  
O     2.3462300    4.6810200    1.9018100  
C     2.8663840    2.4019760    1.1866130  
H    -0.9887400    1.7000690    1.5460930  
H     0.3077640    4.9312580    2.2587940  
H     3.3092910    4.7741810    1.8521350  
H     3.9331290    2.6073930    1.1448230  
H     1.9555580   -2.0891100    0.1018250  
C     4.3484250   -0.4176510    0.2148730  
C     5.0594320   -1.5878410    0.3182790  
C     6.4010710   -1.3461750   -0.1328760  
C     6.4461020    0.0831530   -0.5303330  
N     5.1963270    0.6109860   -0.2385190  
C     7.5286720    0.6943930   -1.0690460  
C     8.7538290   -0.0853470   -1.2400720  
O     9.7781650    0.3876470   -1.7092200  
C     8.7443470   -1.5905060   -0.7838080  
O     9.7682660   -2.2484860   -0.9131410  
C     7.5080030   -2.1371360   -0.2370490  
H     4.6848880   -2.5147230    0.7289240  
H     7.5405220    1.7389270   -1.3662290  
H     7.5069470   -3.1827050    0.0560630  
H     4.8304590    1.4249180   -0.7125840  
C    -7.6138400    1.1222190    0.7771880  
C    -6.6012660    0.2177500    0.7973220  
C    -5.7322480    0.5095900   -0.3192200  
C    -6.3322560    1.6861030   -1.0006820  
N    -7.4795660    1.9930880   -0.2989250  
C    -5.8235930    2.2950800   -2.1020880  
C    -4.5779320    1.7769110   -2.6363200  
O    -4.0358510    2.2113040   -3.6404880  
C    -3.8636830    0.6063080   -1.8587960  
O    -2.7180180    0.3391470   -2.2042140  
C    -4.5637820   -0.0765390   -0.7524930  
H    -6.4703960   -0.5769360    1.5134600  
H    -6.3027140    3.1281920   -2.6063360  
H    -8.4510240    1.2296060    1.4541540  
H    -8.0782600    2.7798770   -0.4937660  
