60


C    -0.8853940   -0.8814990   -1.9060050  
C    -2.2432680   -0.9520940   -1.7604340  
C    -2.5274560   -0.7224190   -0.3717730  
C    -1.2895080   -0.5137600    0.2860380  
N    -0.2867040   -0.6094810   -0.6747650  
C    -1.1935980   -0.2043950    1.6465060  
C    -2.3762030   -0.1201670    2.3652240  
O    -2.3461450    0.1786650    3.6909280  
C    -3.6330970   -0.3569810    1.7457440  
O    -4.7106100   -0.3152470    2.6031150  
C    -3.7147470   -0.6611170    0.3893500  
H    -2.9554950   -1.1504820   -2.5490590  
H    -0.2471140   -0.0411730    2.1472260  
H    -3.2707430    0.1941650    3.9981960  
H    -5.4964880    0.0378060    2.1481980  
H    -0.2661120   -1.0371600   -2.7781420  
C     2.4629100    2.1607660   -2.5118940  
C     3.6242320    1.7258400   -1.9630690  
C     3.3019160    0.6398990   -1.0611280  
C     1.8317780    0.4767230   -1.1423130  
N     1.3831610    1.4140650   -2.0416830  
C     1.1026750   -0.4601200   -0.4648530  
C     1.8292590   -1.3785400    0.4145970  
O     1.2953860   -2.2886940    1.0245510  
C     3.3811000   -1.1688860    0.5765160  
O     3.9517080   -1.8307240    1.4232350  
C     4.0757640   -0.1602060   -0.2634950  
H     4.6070540    2.1326070   -2.1374680  
H     2.2931940    2.9611300   -3.2194810  
H     0.4109040    1.5713730   -2.2594350  
C     6.6769260    3.2303430    0.8604160  
C     7.9010820    2.6568060    0.8764320  
C     7.6758380    1.2698210    0.4824100  
C     6.1934100    1.1892100    0.2590650  
N     5.6216000    2.3361950    0.4808730  
C     5.5404940   -0.0497510   -0.1383870  
C     6.3587390   -1.1276310   -0.3166440  
O     5.9246840   -2.3236190   -0.7290980  
C     7.8480560   -1.0680980   -0.1030990  
O     8.4895670   -2.0982640   -0.2986190  
C     8.4732940    0.1978430    0.3180230  
H     8.8508340    3.1068920    1.1295530  
H     6.7183000   -2.9040810   -0.7404180  
H     9.5481320    0.1966070    0.4712960  
H     6.4166700    4.2550160    1.0975570  
C    -5.3252790   -2.1495710   -0.8199920  
C    -6.6168400   -2.1500010   -1.2295570  
C    -7.1797750   -0.8634950   -0.8759960  
C    -6.0827540   -0.1021020   -0.2243840  
N    -4.9751120   -0.9305510   -0.2161330  
C    -6.2095090    1.1699050    0.2520660  
C    -7.5004160    1.8400720    0.1114590  
O    -7.6992360    2.9871390    0.4804430  
C    -8.6790000    1.0418710   -0.5556460  
O    -9.7728360    1.5734140   -0.6570230  
C    -8.4126890   -0.3178940   -1.0386400  
H    -7.1351510   -2.9613240   -1.7196390  
H    -5.3769430    1.7388780    0.6556410  
H    -9.2301200   -0.8492350   -1.5169190  
H    -4.5753230   -2.9262040   -0.8846150  
