60


C    -2.4857440   -1.1323120    0.8922860  
C    -3.4104920   -0.4022730    0.1622390  
C    -2.6437480    0.5954990   -0.5648230  
C    -1.2841540    0.4080340   -0.2197420  
N    -1.2205540   -0.6614540    0.6542290  
C    -0.2319940    1.2211540   -0.6910130  
C    -0.6016380    2.2690170   -1.5339220  
O     0.3539870    3.0921460   -2.0525370  
C    -1.9599740    2.4769470   -1.8857810  
O    -2.1491550    3.5481830   -2.7370900  
C    -2.9740200    1.6633260   -1.4213370  
H    -0.3770000   -0.9860540    1.1022460  
H    -0.1042160    3.7403380   -2.6165150  
H    -3.0717380    3.5667390   -3.0327700  
H    -3.9985650    1.8273480   -1.7363840  
H    -2.6431620   -1.9936070    1.5251010  
C     1.8534970   -0.1983560   -0.5116190  
C     1.1715110    0.9640410   -0.3202380  
C     2.0900950    1.8679650    0.3682350  
C     3.3527220    1.1209570    0.5662910  
N     3.1543780   -0.1464610    0.0083950  
C     4.4638940    1.6427780    1.1395970  
C     4.4124160    3.0205700    1.6268050  
O     5.3669930    3.5749290    2.1491950  
C     3.0684170    3.8165520    1.4600050  
O     3.0014550    4.9624070    1.8756200  
C     1.9454420    3.1464240    0.7965210  
H     5.3861630    1.0900570    1.2745230  
H     1.0314350    3.7104420    0.6473290  
H     1.5193620   -1.1078810   -0.9936400  
C     4.6530810   -2.4791740   -3.3814420  
C     4.0326230   -1.5457070   -2.6103170  
C     4.4033450   -1.8123410   -1.2395300  
C     5.2988000   -2.9922200   -1.2702870  
N     5.3976370   -3.3527400   -2.6010140  
C     5.8951110   -3.5502080   -0.1845550  
C     5.6303480   -2.9643740    1.1212100  
O     6.1481140   -3.3547790    2.1553280  
C     4.6171170   -1.7625980    1.2080150  
O     4.2754590   -1.3549110    2.3031860  
C     4.0843840   -1.2009620   -0.0553940  
H     3.4007290   -0.7442950   -2.9623340  
H     6.5637950   -4.4030770   -0.2414830  
H     4.6333200   -2.6001930   -4.4563840  
H     5.9758190   -4.1003970   -2.9515440  
C    -6.1978380   -1.4877990    3.4434900  
C    -5.1190590   -1.0949860    2.7194610  
C    -5.5328350   -0.9970030    1.3326640  
C    -6.9677190   -1.3590940    1.3133500  
N    -7.3010570   -1.6738590    2.6144860  
C    -7.7684420   -1.3579270    0.2116220  
C    -7.1802920   -0.9557340   -1.0470030  
O    -7.7991400   -0.8794330   -2.0998360  
C    -5.6478040   -0.5795100   -1.0671650  
O    -5.1653450   -0.2491610   -2.1378150  
C    -4.8513710   -0.6449570    0.1889480  
H    -4.1406680   -0.8642940    3.1110430  
H    -8.8192010   -1.6290350    0.2356930  
H    -6.2893770   -1.6544880    4.5084210  
H    -8.2325650   -1.8994330    2.9262120  
