60


C     3.9033910    0.0983740   -0.2193140  
C     4.5306640    1.3344710   -0.3803970  
C     3.5467790    2.3441630   -0.2177110  
C     2.3122050    1.6830990    0.0493930  
N     2.5572890    0.3372870    0.0369390  
C     1.0976560    2.3814110    0.2355610  
C     1.1701330    3.7753730    0.1769660  
O     0.0580700    4.5150210    0.4157620  
C     2.4003810    4.4448560   -0.0756930  
O     2.2800470    5.8193170   -0.0882640  
C     3.5759480    3.7547440   -0.2763790  
H     5.5865380    1.4953940   -0.5346350  
H     1.9266370   -0.4164150    0.2842460  
H     0.2937010    5.4504730    0.2850680  
H     3.1375660    6.2214560   -0.2910880  
H     4.5044010    4.2872040   -0.4714200  
C    -0.4763040   -0.5217750    3.2469970  
C     0.3470310    0.3142020    2.5755640  
C    -0.4450640    0.8141100    1.4568140  
C    -1.7738080    0.1511800    1.6220670  
N    -1.7788040   -0.6220860    2.6685100  
C    -2.8979660    0.3809020    0.7050350  
C    -2.6330870    1.2737480   -0.2989590  
O    -3.5386660    1.6529790   -1.2264200  
C    -1.3090620    1.9325510   -0.5004510  
O    -1.1881680    2.6475140   -1.4953580  
C    -0.1893400    1.6982000    0.4620150  
H     1.3719340    0.5697110    2.8021010  
H    -3.0439480    2.2707370   -1.8131490  
H    -0.2651350   -1.0975060    4.1396400  
C    -4.6467040   -0.7754870    2.1115190  
C    -4.1714460   -0.2943280    0.9176500  
C    -5.2242530   -0.6719360   -0.0572520  
C    -6.2608110   -1.3511150    0.7776570  
N    -5.9150950   -1.3942040    2.0356590  
C    -7.4701430   -1.8905520    0.2159170  
C    -7.6408400   -1.8018580   -1.1241460  
O    -8.7099200   -2.2694830   -1.7888970  
C    -6.6024900   -1.1606200   -1.9995620  
O    -6.8201390   -1.1260580   -3.2103640  
C    -5.3771980   -0.5988460   -1.3941900  
H    -8.1994420   -2.3630460    0.8645300  
H    -8.5357600   -2.0615400   -2.7336290  
H    -4.6714520   -0.1272210   -2.0647750  
H    -4.1433500   -0.7299360    3.0654400  
C     7.6620080   -1.6575680   -1.8718420  
C     6.6223790   -0.8286830   -1.5837380  
C     5.6656960   -1.5797400   -0.8027320  
C     6.2324010   -2.9361910   -0.6678330  
N     7.4543300   -2.9094340   -1.3094630  
C     5.6465080   -3.9856840   -0.0240320  
C     4.3388070   -3.7748810    0.5504920  
O     3.7095370   -4.6213460    1.1695780  
C     3.6666030   -2.3634660    0.3557970  
O     2.4977780   -2.2555970    0.7038970  
C     4.4444660   -1.2437370   -0.2425830  
H     6.5168750    0.1871230   -1.9281310  
H     6.1135980   -4.9596830    0.0796260  
H     8.5559100   -1.4644330   -2.4494910  
H     8.0523330   -3.7115460   -1.4311130  
