62


C     1.4342120   -0.5200930   -2.0737500  
C     0.7619020   -0.4331230   -0.8765150  
C     1.7097470   -0.0202630    0.1262820  
C     2.9500910    0.1339260   -0.5366740  
N     2.7516840   -0.1741020   -1.8693420  
C     4.1393930    0.5141890    0.1218290  
C     4.0309390    0.7308280    1.4961950  
O     5.1265590    1.1196160    2.2062250  
C     2.7909350    0.5755210    2.1739660  
O     2.8722760    0.8328160    3.5264980  
C     1.6350920    0.2088210    1.5138130  
H     3.4899690   -0.2431870   -2.5527830  
H     4.8447890    1.2394160    3.1305300  
H     1.9850500    0.8315160    3.9157700  
H     0.6961910    0.1014310    2.0504350  
H     1.0671210   -0.7902980   -3.0532640  
C    -1.1941640   -1.9852620   -0.9115930  
C    -2.5238990   -1.9552380   -0.6489910  
C    -2.8533320   -0.6140810   -0.2084140  
C    -1.5881460    0.1479030   -0.2600440  
N    -0.6010150   -0.7392700   -0.6728330  
C    -1.4541990    1.4740390    0.0249020  
C    -2.6425950    2.2031230    0.4070540  
O    -2.6612430    3.4025690    0.6532270  
C    -4.0050050    1.4138190    0.5043800  
O    -4.9925040    2.0403180    0.8510910  
C    -4.0422460   -0.0411160    0.1876410  
H    -3.2153680   -2.7741430   -0.7724250  
H    -0.5093040    2.0012930   -0.0398650  
H    -0.5713560   -2.7983370   -1.2593190  
C    -5.3236530   -2.0903380    0.8763580  
C    -5.2761110   -0.8035760    0.3610970  
C    -6.6514730   -0.4496040    0.0484000  
C    -7.4553710   -1.5676050    0.3819370  
N    -6.6164240   -2.5454780    0.8886690  
C    -8.8413690   -1.6043250    0.1881110  
C    -9.4362890   -0.4792530   -0.3592010  
O   -10.7844630   -0.4480560   -0.5632450  
C    -8.6494540    0.6502010   -0.7068620  
O    -9.3804160    1.6958350   -1.2397970  
C    -7.2817230    0.6766760   -0.5165110  
H    -6.9177640   -3.4284070    1.2709670  
H    -9.4502860   -2.4634200    0.4506240  
H   -10.9972820    0.4325260   -0.9186600  
H    -8.8149500    2.4799240   -1.3055460  
H    -6.7117950    1.5658530   -0.7628020  
H    -4.5228350   -2.6917300    1.2813970  
C     5.6176010    1.4801950   -1.6951760  
C     5.4098560    0.6847570   -0.6058590  
C     6.6870840    0.0246710   -0.3340050  
C     7.6410420    0.5137240   -1.3587510  
N     6.9233140    1.3779240   -2.1635750  
C     8.9442790    0.1423730   -1.4393370  
C     9.4522080   -0.8163360   -0.4633220  
O    10.6076350   -1.2131480   -0.4548890  
C     8.4521000   -1.3649640    0.6200240  
O     8.8530670   -2.1784090    1.4369400  
C     7.0682690   -0.8758570    0.6061460  
H     9.6268160    0.5167610   -2.1961970  
H     6.3932090   -1.2446160    1.3702980  
H     4.9208050    2.1495000   -2.1836960  
H     7.3224770    1.9476970   -2.8930740  
