58


C     5.5242370   -2.7863300   -0.2870770  
C     6.8754560   -2.8200830   -0.2008870  
C     7.3159720   -1.5090720    0.2267340  
C     6.0867790   -0.6950160    0.3937370  
N     5.0147830   -1.5204170    0.0439790  
C     6.0756360    0.5852540    0.8413460  
C     7.3557270    1.2294070    1.1398270  
O     7.4380070    2.3788350    1.5420230  
C     8.6718540    0.3969140    0.9319680  
O     9.7486890    0.9229000    1.1617070  
C     8.5465120   -0.9912500    0.4772600  
H     7.5098510   -3.6657900   -0.4235570  
H     5.1688570    1.1584310    0.9991090  
H     9.4589130   -1.5691160    0.3655120  
H     4.8289190   -3.5596870   -0.5847380  
C     2.6509210   -1.9219700    0.6726660  
C     3.6509740   -1.2031230    0.0990010  
C     2.9785910   -0.0935190   -0.6025110  
C     1.5350250   -0.3137260   -0.2924590  
N     1.3604050   -1.3791300    0.4389180  
C     0.5015860    0.5742450   -0.7918120  
C     0.9154610    1.5952410   -1.5968840  
O     0.0867540    2.5094100   -2.1125900  
C     2.3578350    1.8070060   -1.9586650  
O     2.6312790    2.7516140   -2.6941150  
C     3.3879810    0.8968770   -1.4140370  
H     0.6481740    3.1072550   -2.6541330  
H     4.4206120    1.0921240   -1.6846000  
H     2.7417680   -2.8297480    1.2569950  
C    -1.9950790    0.2519660    2.9179410  
C    -0.9332710    0.4215470    2.0984790  
C    -1.4696880    0.2902850    0.7484200  
C    -2.9349630    0.0562600    0.9639900  
N    -3.2308210    0.0232120    2.2281930  
C    -3.8608530   -0.1187390   -0.1399690  
C    -3.3205390   -0.1082150   -1.3866960  
O    -4.0357590   -0.2723360   -2.5095460  
C    -1.8525890    0.1021810   -1.6346240  
O    -1.4702750    0.0487940   -2.8006920  
C    -0.9262530    0.3427130   -0.4908760  
H     0.0990660    0.5894180    2.3660810  
H    -3.3812660   -0.2295430   -3.2414260  
H    -2.0098450    0.2688190    4.0012090  
C    -6.8488310    2.5762240    1.6119150  
C    -7.9663250    1.8148460    1.6153870  
C    -7.5611080    0.5465750    1.0162780  
C    -6.1024540    0.7328960    0.7230230  
N    -5.6986660    1.9212130    1.0577140  
C    -5.3050230   -0.3139690    0.1053620  
C    -5.9606450   -1.4549950   -0.2381200  
O    -5.3704940   -2.5098400   -0.8190810  
C    -7.4272040   -1.6591700    0.0352060  
O    -7.9210520   -2.7342430   -0.3017310  
C    -8.2035610   -0.5902030    0.6876580  
H    -8.9552270    2.0735960    1.9673230  
H    -6.0863440   -3.1740020   -0.9338930  
H    -9.2594210   -0.7764650    0.8591760  
H    -6.7341170    3.5931440    1.9680340  
