60


C    -0.2313340    1.2452400    0.2235320  
C    -1.3906340    0.4945540    0.4649650  
C    -2.5057210    1.3434760    0.2908650  
C    -1.9942320    2.6262540   -0.0772080  
N    -0.6316330    2.5364100   -0.1027540  
C    -2.8231370    3.7157060   -0.3659250  
C    -4.1884130    3.5044190   -0.2808110  
O    -5.0445960    4.5202460   -0.5442140  
C    -4.7252620    2.2327850    0.0972980  
O    -6.0987240    2.2423780    0.1710970  
C    -3.9169100    1.1424350    0.3857720  
H    -1.4162410   -0.5629180    0.6742370  
H     0.0294330    3.2432570   -0.3968250  
H    -2.4429250    4.6898170   -0.6528720  
H    -5.9504620    4.1771030   -0.4403920  
H    -6.4392630    1.3482400    0.3349620  
C     2.0527640   -2.3118930    1.7553550  
C     1.0422670   -1.4283000    1.5410800  
C     1.6331440   -0.3354450    0.7826700  
C     3.0451190   -0.7363770    0.6396300  
N     3.2868560   -1.8948340    1.2000060  
C     4.0369060    0.0955130   -0.0267500  
C     3.5980610    1.2889410   -0.5100700  
O     4.3906180    2.1573170   -1.1646580  
C     2.1840060    1.7373920   -0.3692900  
O     1.9284890    2.8707730   -0.7949730  
C     1.1489450    0.8389450    0.2493890  
H     0.0292280   -1.4963780    1.9071670  
H     3.8300420    2.9391870   -1.3541860  
H     2.0152540   -3.2507170    2.2947400  
C     6.2492590   -3.3857620   -1.7854730  
C     5.2402710   -2.5824390   -1.3786230  
C     5.8911420   -1.4641590   -0.7036600  
C     7.3515360   -1.7814480   -0.8099720  
N     7.5546400   -2.8986100   -1.4455910  
C     8.3611550   -0.9053460   -0.2745720  
C     7.9472610    0.2270910    0.3365570  
O     8.7717980    1.1285400    0.8962090  
C     6.4879870    0.5759910    0.4683340  
O     6.2119180    1.5905950    1.1017070  
C     5.4497280   -0.3169520   -0.1308640  
H     4.1772100   -2.7303770   -1.4924320  
H     9.4099330   -1.1654890   -0.3644070  
H     8.1821800    1.8161370    1.2768810  
H     6.1777380   -4.3249320   -2.3211660  
C    -4.1135430   -0.8810360    1.9010190  
C    -4.4813620   -0.1529050    0.8031190  
C    -5.5335270   -0.9231870    0.1423630  
C    -5.7436880   -2.1422580    0.9637620  
N    -4.8422160   -2.0539980    2.0083900  
C    -6.6481050   -3.1125190    0.6836400  
C    -7.4812920   -2.9645650   -0.5093190  
O    -8.3304840   -3.7794140   -0.8312760  
C    -7.2592910   -1.6972270   -1.4115710  
O    -7.9266320   -1.5652910   -2.4239470  
C    -6.2500210   -0.7142100   -0.9974220  
H    -6.7835610   -3.9983290    1.2966360  
H    -6.0912170    0.1420790   -1.6459310  
H    -3.3695760   -0.6354710    2.6474280  
H    -4.7488840   -2.7313840    2.7493090  
