58


C    -0.7801560    2.3208630    0.2670300  
C    -1.2083500    3.6127720    0.3733420  
C    -2.6455370    3.5938760    0.2988890  
C    -3.0371410    2.1763050    0.1536190  
N    -1.8693940    1.4389220    0.1915410  
C    -4.3219010    1.7150730   -0.0175820  
C    -5.3631970    2.7631150   -0.1189280  
O    -6.5231490    2.5292950   -0.4305230  
C    -4.9814390    4.2569680    0.1782680  
O    -5.8813420    5.0799190    0.2269200  
C    -3.5747280    4.5894790    0.3467760  
H    -0.5891640    4.4830760    0.5322010  
H    -3.3119490    5.6331040    0.4859740  
H    -1.8079830    0.5220970   -0.2363260  
C     1.5833060    2.5542300   -0.3630380  
C     2.7303090    1.8390210   -0.3093130  
C     2.4452700    0.5743490    0.3295720  
C     1.0066030    0.6081590    0.6698700  
N     0.5108430    1.8346150    0.1968490  
C     0.3437650   -0.3482090    1.3685520  
C     1.0808420   -1.5432390    1.7541500  
O     0.5780950   -2.4548190    2.3885090  
C     2.5857320   -1.6640140    1.3309700  
O     3.1498520   -2.7072610    1.6015650  
C     3.2475800   -0.5153140    0.6373250  
H     3.6977660    2.1282430   -0.6835770  
H    -0.6875290   -0.2614330    1.6885900  
H     1.3922430    3.5282190   -0.7902360  
C    -4.6587780    0.3060830   -0.1437920  
C    -3.9390400   -0.8187910    0.2138120  
C    -4.7337350   -1.9743100   -0.1082910  
C    -5.9939470   -1.4539260   -0.6935960  
N    -5.8763990   -0.0811540   -0.6992230  
C    -7.0189160   -2.2347490   -1.1203870  
C    -6.8819790   -3.6838880   -1.0048050  
O    -7.7487300   -4.4661380   -1.3645400  
C    -5.5520660   -4.2575350   -0.3897560  
O    -5.4202610   -5.4680450   -0.2894860  
C    -4.5198150   -3.3117770    0.0382510  
H    -3.0031660   -0.8492220    0.7508710  
H    -7.9351550   -1.8360980   -1.5443630  
H    -3.6084790   -3.7189100    0.4661720  
H    -6.6010600    0.5979110   -0.8985890  
C     4.6566050   -0.5872250    0.3307430  
C     5.5442900   -1.6067710    0.5873970  
C     6.8167910   -1.1630250    0.0760170  
C     6.5419860    0.1969310   -0.4848640  
N     5.2945490    0.5278130   -0.3371390  
C     7.5791120    0.9849690   -1.0977790  
C     8.8223260    0.4500520   -1.1507190  
O     9.8822800    1.0628540   -1.6883060  
C     9.1318080   -0.9232340   -0.5922220  
O    10.2924860   -1.3176780   -0.6899660  
C     8.0562460   -1.7065420    0.0276360  
H     5.3316760   -2.5468940    1.0680570  
H     7.3582180    1.9682290   -1.4978350  
H    10.6316460    0.4341210   -1.5792260  
H     8.3108130   -2.6869940    0.4178070  
