60


C    -2.3313840   -0.5568300    0.0830060  
C    -3.6035440   -0.0257440    0.0288180  
C    -3.4357550    1.4197130   -0.0053440  
C    -2.0481070    1.6841450    0.0624330  
N    -1.3806500    0.4471340    0.1137650  
C    -1.5199780    2.9772470    0.0199800  
C    -2.4173290    4.0328690   -0.0591120  
O    -1.9535100    5.3146710   -0.1052120  
C    -3.8109180    3.7893400   -0.0999850  
O    -4.5816050    4.9327180   -0.1777480  
C    -4.3250860    2.5056280   -0.0733170  
H    -0.4591980    3.1840770    0.0558240  
H    -2.7294510    5.8952840   -0.1925550  
H    -5.5013930    4.6871650   -0.3587490  
H    -5.3935520    2.3416900   -0.1555450  
H    -2.0199640   -1.5875190    0.0418130  
C     0.9876000   -2.2400750   -2.2999810  
C     2.2433630   -1.9577190   -1.8744460  
C     2.0793430   -0.9632520   -0.8250370  
C     0.6027150   -0.7440440   -0.7696250  
N    -0.0259970   -1.4980160   -1.6246620  
C     0.0065880    0.2290550    0.1319810  
C     0.8579680    0.8922150    0.9699100  
O     0.4477130    1.7597390    1.9103830  
C     2.3342360    0.6762720    0.9514170  
O     2.9899970    1.2550410    1.8150360  
C     2.9446010   -0.2792010   -0.0269650  
H     3.1767570   -2.3561340   -2.2433450  
H     1.2710730    2.0478070    2.3660590  
H     0.6857350   -2.9338310   -3.0753010  
C     4.3917220   -0.4481350   -0.0461970  
C     5.0902660   -1.6149110   -0.1808370  
C     6.4903270   -1.2363240   -0.1374390  
C     6.4606380    0.2527930    0.0182900  
N     5.2446600    0.7076620    0.0762100  
C     7.6747830    1.0265630    0.0836520  
C     8.8515160    0.3605100    0.0164710  
O    10.0548690    0.9489670    0.0716290  
C     8.9116850   -1.1404620   -0.1284150  
O    10.0229420   -1.6632260   -0.1826640  
C     7.6573420   -1.9116400   -0.2042490  
H     4.6940750   -2.6183000   -0.2463580  
H     7.6260550    2.1041980    0.1919110  
H    10.7091390    0.2192720   -0.0003990  
H     7.7425530   -2.9881820   -0.3171010  
C    -4.6998730   -3.7266110    2.2147350  
C    -4.0892980   -2.5938030    1.7831440  
C    -4.9455090   -1.9867510    0.7822560  
C    -6.1295280   -2.8673440    0.6773320  
N    -5.9065570   -3.9156150    1.5457950  
C    -7.2112360   -2.6464780   -0.1205180  
C    -7.2204890   -1.4438650   -0.9232960  
O    -8.1473570   -1.1122770   -1.6501740  
C    -5.9661010   -0.4886560   -0.8505780  
O    -5.9878140    0.5153320   -1.5420840  
C    -4.8167040   -0.8389580    0.0303410  
H    -3.1509320   -2.2006820    2.1416050  
H    -8.0641640   -3.3160150   -0.1703950  
H    -4.3810190   -4.4392160    2.9635460  
H    -6.5709170   -4.6487800    1.7373440  
