60


C    -1.3607510   -2.0336390   -0.1266740  
C    -2.6920270   -1.7449040   -0.0077630  
C    -2.8476760   -0.3405760   -0.2601830  
C    -1.5591910    0.1742550   -0.5423590  
N    -0.6490560   -0.8786920   -0.4384180  
C    -1.3390410    1.5028650   -0.9220030  
C    -2.4396030    2.3439600   -0.9837840  
O    -2.2703230    3.6497870   -1.3269130  
C    -3.7406570    1.8657070   -0.6882760  
O    -4.7087230    2.8359420   -0.7659840  
C    -3.9735160    0.5284330   -0.3276540  
H    -3.4698520   -2.4559100    0.2275350  
H    -0.3579780    1.8921140   -1.1679930  
H    -3.1428060    4.0788800   -1.2797430  
H    -5.5623610    2.4756730   -0.4558310  
H    -0.8287070   -2.9634300    0.0128100  
C     1.4783520   -1.6679940   -1.4341270  
C     0.7312640   -0.8312500   -0.6706900  
C     1.7004950    0.0618070   -0.0116740  
C     3.0175070   -0.3940090   -0.5377650  
N     2.8720280   -1.4018950   -1.3535290  
C     4.2772560    0.2371930   -0.1440150  
C     4.1597620    1.2730560    0.7459450  
O     5.2039600    2.0138170    1.1683920  
C     2.8592680    1.7081710    1.3225210  
O     2.8602790    2.6489410    2.1188380  
C     1.6066150    1.0396240    0.9036670  
H     4.8197680    2.6686160    1.7934480  
H     0.6779970    1.3967120    1.3374820  
H     1.1300690   -2.4797580   -2.0605810  
C     5.6781030   -0.7920960   -1.9506850  
C     5.5391610   -0.2501340   -0.6962570  
C     6.8624590   -0.3329940   -0.0694540  
C     7.7635030   -0.9352770   -1.0849050  
N     6.9779180   -1.1727950   -2.1981820  
C     9.0816600   -1.1981280   -0.9067310  
C     9.6804140   -0.8900650    0.3884030  
O    10.8579750   -1.0875160    0.6444850  
C     8.7445910   -0.2903720    1.4963280  
O     9.2132040   -0.0436020    2.5962830  
C     7.3337280   -0.0453410    1.1720770  
H     9.7096570   -1.6411860   -1.6737040  
H     6.7169310    0.3864180    1.9487600  
H     4.9125870   -0.9448500   -2.6959360  
H     7.3007730   -1.6100990   -3.0476270  
C    -5.3152510    0.0649760   -0.0059350  
C    -5.7442030   -0.8392380    0.9245810  
C    -7.1814500   -0.9225590    0.8662920  
C    -7.5997890    0.0130600   -0.1998560  
N    -6.4389710    0.6614510   -0.6563260  
C    -8.8738450    0.1776910   -0.6173910  
C    -9.9283770   -0.5931620    0.0515330  
O   -11.1042380   -0.5052110   -0.2601870  
C    -9.5132550   -1.5519870    1.2253170  
O   -10.3835790   -2.1871800    1.8013920  
C    -8.0945910   -1.6520900    1.5647400  
H    -5.1118140   -1.3520460    1.6348270  
H    -9.1643670    0.8627280   -1.4083250  
H    -7.8142500   -2.3344960    2.3612820  
H    -6.3629950    0.8544340   -1.6510060  
