64


C     2.0651980   -0.4731810   -0.8771500  
C     1.0769650    0.1817040   -0.1908260  
C     1.6715540    1.3269840    0.4595480  
C     3.0459740    1.3219820    0.1313730  
N     3.2655590    0.2085310   -0.6776490  
C     3.9449680    2.2888430    0.5898420  
C     3.4342890    3.2886080    1.4042810  
O     4.2579900    4.2630200    1.8764140  
C     2.0550900    3.3089360    1.7519050  
O     1.7074370    4.3614310    2.5713120  
C     1.1752300    2.3456510    1.2962410  
H     4.9991610    2.2805190    0.3367740  
H     3.7170680    4.8656660    2.4161250  
H     0.7487990    4.3647660    2.7122080  
H     0.1237400    2.3779860    1.5683350  
H     2.0317160   -1.3604510   -1.4911900  
C    -0.6830390   -1.5021530    0.2977880  
C    -2.0472720   -1.5818780    0.2390200  
C    -2.5333420   -0.3032990   -0.2134440  
C    -1.3923770    0.5115860   -0.4310340  
N    -0.2647990   -0.2353900   -0.0977440  
C    -1.4696400    1.8097190   -0.9501490  
C    -2.7353230    2.2851020   -1.2507110  
O    -2.8932790    3.5331880   -1.7724590  
C    -3.8980820    1.4986450   -1.0258140  
O    -5.0733710    2.1428240   -1.3511040  
C    -3.8329650    0.2116760   -0.4875080  
H    -2.6380890   -2.4560740    0.4714490  
H    -0.5956880    2.4206920   -1.1437230  
H    -3.8531790    3.6269890   -1.9270980  
H    -5.6338080    1.5059980   -1.8464740  
H     0.0518030   -2.2333330    0.6030230  
C    -5.0357950   -1.8673730    3.2262540  
C    -6.2490860   -2.3435070    2.8015150  
C    -6.4150690   -1.9144420    1.4425100  
C    -5.2510260   -1.1773760    1.0925740  
N    -4.4389590   -1.1531780    2.2072970  
C    -5.0560690   -0.5704740   -0.1712610  
C    -6.1139820   -0.7343280   -1.0648160  
O    -6.0458010   -0.1595210   -2.3230030  
C    -7.2821300   -1.4629830   -0.7395360  
O    -8.2099080   -1.5081370   -1.7668050  
C    -7.4467570   -2.0582860    0.4950990  
H    -6.9483660   -2.9224220    3.3889070  
H    -3.5037200   -0.7752240    2.2187420  
H    -6.8651300   -0.4052520   -2.7902550  
H    -8.9653570   -2.0508090   -1.4975010  
H    -8.3545610   -2.6103720    0.7291250  
H    -4.5415720   -1.9725960    4.1819130  
C     4.9526540    0.2716370   -2.4605440  
C     6.1546610   -0.2938350   -2.7212800  
C     6.4935640   -1.1480550   -1.5974370  
C     5.3739950   -1.0389460   -0.6325510  
N     4.4676310   -0.1543980   -1.2139260  
C     5.2980690   -1.6908060    0.5514770  
C     6.4051700   -2.5744750    0.9176190  
O     6.4316350   -3.2103550    1.9590020  
C     7.6116240   -2.7060560   -0.0842780  
O     8.5444980   -3.4373640    0.2058980  
C     7.5644860   -1.9416260   -1.3357100  
H     6.7567110   -0.1381080   -3.6048110  
H     4.4634430   -1.5866450    1.2363460  
H     8.4016830   -2.0424060   -2.0197820  
H     4.3564850    0.9634730   -3.0399950  
