58


C     0.1327640    2.2239760   -0.0238490  
C     1.2218950    1.4005430    0.2042370  
C     0.7806700    0.0414010    0.1485710  
C    -0.6633250    0.0943750   -0.1479360  
N    -0.9883620    1.4268330   -0.2396640  
C    -1.5029950   -0.9903530   -0.2951580  
C    -0.8532300   -2.3035220   -0.1484210  
O    -1.4416700   -3.3650280   -0.2799010  
C     0.6863600   -2.3868570    0.1793710  
O     1.1622190   -3.5012830    0.3312160  
C     1.4672280   -1.1492880    0.3211400  
H     2.2258460    1.7235890    0.4217960  
H    -1.9232770    1.8186510   -0.2522470  
C     3.1502160    5.4606130   -0.6177210  
C     2.5114340    4.2549360   -0.5621160  
C     1.1378490    4.5052030   -0.2156160  
C     1.0189660    5.9746770   -0.0819600  
N     2.2836270    6.4891900   -0.3076120  
C    -0.1220000    6.6500780    0.2115980  
C    -1.3438740    5.8790680    0.3719740  
O    -2.4211960    6.3724400    0.6612090  
C    -1.2737880    4.3264810    0.1467360  
O    -2.3371970    3.7209230    0.1197310  
C     0.0443940    3.6706560   -0.0320380  
H     2.9568490    3.3021010   -0.7974380  
H    -0.1685340    7.7276760    0.3319810  
H     4.1810150    5.6753600   -0.8666980  
H     2.5042630    7.4724300   -0.3454200  
C     3.4481840   -0.4318710    1.6905980  
C     2.8699960   -1.2111700    0.7237070  
C     3.9436210   -2.0716690    0.2055800  
C     5.1711730   -1.7047230    0.9537120  
N     4.7992240   -0.7005660    1.8288280  
C     6.3928790   -2.2674320    0.7744380  
C     6.5356390   -3.2996150   -0.2464210  
O     7.5933380   -3.8611330   -0.4873800  
C     5.2594840   -3.6839430   -1.0778520  
O     5.3586630   -4.5195200   -1.9608860  
C     3.9865850   -3.0162770   -0.7663860  
H     7.2713820   -1.9798900    1.3441070  
H     3.1110110   -3.3295470   -1.3218410  
H     2.9763130    0.3015770    2.3306470  
H     5.3923650   -0.3246810    2.5525860  
C    -3.5051580    0.0970570   -1.4100080  
C    -2.9128100   -0.8698020   -0.6373520  
C    -4.0574500   -1.7146530   -0.2038720  
C    -5.2432030   -1.0657780   -0.8285880  
N    -4.9040010   -0.0215940   -1.5389700  
C    -6.5776160   -1.5696230   -0.6464950  
C    -6.7413150   -2.6601640    0.1401110  
O    -7.9263550   -3.2329540    0.4070140  
C    -5.5704910   -3.3286130    0.7993670  
O    -5.7945630   -4.3065390    1.5108410  
C    -4.2045750   -2.8019870    0.5763400  
H    -7.4122840   -1.0697980   -1.1253110  
H    -7.7203420   -3.9904270    0.9981040  
H    -3.3875020   -3.3446260    1.0346390  
H    -3.0114690    0.8949530   -1.9518660  
