60


C    -1.0117140   -1.6841610    0.0216320  
C     0.2328530   -1.2582690   -0.3964580  
C     1.2116860   -1.8055220    0.4932800  
C     0.4996660   -2.5895990    1.4413800  
N    -0.8405070   -2.5103280    1.1263990  
C     1.1179310   -3.3070630    2.4684510  
C     2.5014700   -3.2561590    2.5251730  
O     3.1702260   -3.9338500    3.4943850  
C     3.2493980   -2.5075680    1.5782920  
O     4.6102030   -2.5380130    1.8011200  
C     2.6364100   -1.7531860    0.5671600  
H     0.4137960   -0.6466750   -1.2670930  
H    -1.5913860   -2.8559000    1.7043970  
H     0.5658830   -3.8987660    3.1913190  
H     4.1175980   -3.7651890    3.3296650  
H     5.0565520   -2.7555610    0.9562230  
C     2.2469590    2.4631430   -0.7108290  
C     3.3210630    2.6047400   -1.5421950  
C     3.9726030    1.3132970   -1.5478690  
C     3.1360110    0.4602630   -0.6403180  
N     2.1486370    1.1431110   -0.1500350  
C     3.4502000   -0.9444010   -0.3633750  
C     4.5801250   -1.3959150   -0.9812580  
O     5.0488440   -2.6640240   -0.8383280  
C     5.4332360   -0.5767050   -1.8914680  
O     6.4151230   -1.1255790   -2.3987360  
C     5.0749420    0.8235310   -2.1547350  
H     3.6319790    3.4831360   -2.0902670  
H     5.8516880   -2.7011920   -1.4111470  
H     5.7193050    1.3915910   -2.8182490  
C     1.2057940    3.3870270   -0.3436820  
C     0.9904810    4.7021250   -0.6826810  
C    -0.2284100    5.1208270   -0.0445980  
C    -0.7292450    3.9416830    0.7129800  
N     0.1771580    2.9323010    0.4834280  
C    -1.8686550    3.9363930    1.4523620  
C    -2.6685230    5.1556860    1.5076350  
O    -3.7163730    5.2387700    2.1304980  
C    -2.1568830    6.4156070    0.7164020  
O    -2.8128430    7.4454460    0.7522480  
C    -0.9089110    6.3019660   -0.0420680  
H     1.6200120    5.3089460   -1.3174380  
H    -2.2166630    3.0682290    2.0035250  
H    -0.5669220    7.1778600   -0.5851070  
H     0.1807180    2.0006660    0.8766590  
C    -2.7323880   -0.1782710   -1.0279790  
C    -2.3318770   -1.3742390   -0.5007970  
C    -3.4868920   -2.2670700   -0.5858200  
C    -4.5822560   -1.4759690   -1.2013120  
N    -4.0469200   -0.2307470   -1.4694610  
C    -5.8338190   -1.9455780   -1.4332560  
C    -6.1359410   -3.3283240   -1.0721990  
O    -7.2338590   -3.8362660   -1.2373600  
C    -4.9822340   -4.1964770   -0.4508010  
O    -5.2063130   -5.3590830   -0.1556390  
C    -3.6711960   -3.5694550   -0.2452210  
H    -6.6214760   -1.3487170   -1.8827340  
H    -2.8812970   -4.1905800    0.1651640  
H    -2.1659440    0.7390370   -1.1193920  
H    -4.5737780    0.5594020   -1.8083170  
