60


C    -0.5678480   -3.1864640    0.0944870  
C    -1.4977530   -4.2181330    0.1494060  
C    -2.7899830   -3.6239210    0.0982260  
C    -2.6037040   -2.2108990    0.0309050  
N    -1.2586550   -1.9823540    0.0264030  
C    -3.6775700   -1.2812720   -0.0080230  
C    -4.9615020   -1.8401580   -0.0615240  
O    -6.0502450   -1.0371370   -0.1291610  
C    -5.1576760   -3.2507940   -0.0111170  
O    -6.4882530   -3.6072100   -0.0469190  
C    -4.1064860   -4.1373610    0.0842110  
H    -1.2712210   -5.2733800    0.2122980  
H    -0.7653380   -1.1215710   -0.1756380  
H    -6.8381480   -1.6109040   -0.1148490  
H    -6.5768530   -4.5707720    0.0006450  
H    -4.2895980   -5.2081900    0.1341900  
C     0.8631110   -3.1005890    0.1179480  
C     1.8541900   -4.0320500    0.2902520  
C     3.0886050   -3.2890200    0.2762230  
C     2.6687380   -1.8663160    0.0479970  
N     1.3770450   -1.7617610   -0.0291230  
C     3.6103400   -0.7681980   -0.0434220  
C     4.9152370   -1.0911170    0.1526840  
O     5.9191110   -0.2086730    0.1138100  
C     5.3748630   -2.5134390    0.4151300  
O     6.5863740   -2.6766280    0.5739080  
C     4.3978550   -3.5987590    0.4546320  
H     1.7455630   -5.0970950    0.4398400  
H     6.7320910   -0.7427750    0.2717720  
H     4.7716790   -4.6015530    0.6349900  
C     2.5782660    2.9140300    2.2753480  
C     3.0654370    1.6998750    1.8998070  
C     2.8775500    1.5883990    0.4701700  
C     2.2475450    2.8667960    0.0476520  
N     2.1209490    3.6463220    1.1856960  
C     1.8525270    3.1529400   -1.2190660  
C     2.0665080    2.1467400   -2.2496480  
O     1.7509210    2.3042800   -3.4196440  
C     2.7220740    0.7802740   -1.8297800  
O     2.8865150   -0.0757970   -2.6837910  
C     3.1064870    0.5754560   -0.4166360  
H     3.5214270    0.9617850    2.5427610  
H     1.3786080    4.0898130   -1.4935780  
H     2.5311580    3.3505610    3.2650780  
H     1.4090330    4.3763460    1.2547020  
C    -3.4465920    0.1542560    0.0483530  
C    -4.1641680    1.2252580   -0.4153710  
C    -3.4223290    2.4268380   -0.1255400  
C    -2.1988010    1.9919950    0.5895820  
N    -2.2413900    0.6178090    0.6336610  
C    -1.2356890    2.8220120    1.0701020  
C    -1.3532560    4.2367920    0.7860270  
O    -0.4720880    5.0586320    1.0421870  
C    -2.6613790    4.7421430    0.0726450  
O    -2.8147470    5.9439230   -0.0814720  
C    -3.6384250    3.7482180   -0.3766060  
H    -5.0991160    1.1661890   -0.9496910  
H    -0.3522360    2.4526810    1.5800330  
H    -4.5234790    4.1137320   -0.8877670  
H    -1.7369430    0.0827270    1.3270870  
