58


C    -4.5797160    2.3330640   -1.5285580  
C    -5.8186120    1.8335690   -1.2923320  
C    -5.6430780    0.5653160   -0.6220780  
C    -4.1769290    0.3585110   -0.4852880  
N    -3.5993490    1.4674230   -1.0558770  
C    -3.5816020   -0.7502890    0.0966480  
C    -4.5168550   -1.7547180    0.6415020  
O    -4.1531430   -2.7506220    1.2488740  
C    -6.0695660   -1.5563860    0.4743240  
O    -6.8082580   -2.4357940    0.8885480  
C    -6.5486390   -0.3416610   -0.1654070  
H    -6.7626860    2.2923810   -1.5465740  
H    -7.6205180   -0.2041030   -0.2673710  
H    -4.2757450    3.2615850   -1.9923270  
H    -2.6127550    1.6769440   -1.1359010  
C    -1.2339330    0.1339240    0.2432250  
C    -2.1346760   -0.8935560    0.2151660  
C    -1.2686970   -2.1089490    0.2504620  
C     0.1306570   -1.5856690    0.1996110  
N     0.1074820   -0.2761990    0.2234610  
C     1.3180730   -2.4375510    0.1819460  
C     1.0599520   -3.7560950    0.4871100  
O     2.0092220   -4.6627580    0.7305020  
C    -0.3216330   -4.3142250    0.5610700  
O    -0.4417910   -5.5215640    0.7719440  
C    -1.4923100   -3.4263030    0.4083150  
H     1.5349610   -5.5176310    0.8423350  
H    -2.4729830   -3.8694150    0.5141300  
H    -1.4350570    1.1915470    0.3306420  
C     3.6306490    1.4441700    0.4162780  
C     4.8566810    0.9585600    0.0395920  
C     4.6997430   -0.4426250   -0.2484780  
C     3.2721650   -0.7645480    0.0310650  
N     2.7057780    0.4078350    0.4716400  
C     2.6912860   -2.0033530   -0.1417440  
C     3.5461360   -2.9420450   -0.9332260  
O     3.0839100   -3.8508780   -1.5976140  
C     5.0919590   -2.7065670   -1.0081860  
O     5.8069200   -3.6360340   -1.3541180  
C     5.5849530   -1.3754680   -0.7012010  
H     5.7526270    1.5406240   -0.1225910  
H     6.6410500   -1.1671190   -0.8423420  
H     1.6818870    0.4740660    0.5586850  
C     3.9519580    3.7943060    1.2837750  
C     3.2146510    2.8133750    0.6770620  
C     1.9465530    3.4279700    0.2983860  
C     2.0144750    4.8394780    0.7512680  
N     3.2634240    4.9926370    1.3269530  
C     1.0203240    5.7461890    0.5834710  
C    -0.2065380    5.3128730   -0.0852070  
O    -1.1516550    6.0547280   -0.2959900  
C    -0.3026350    3.8144860   -0.5478260  
O    -1.3622480    3.4158000   -1.0254800  
C     0.8563120    2.9518840   -0.3635430  
H     1.0904340    6.7811010    0.9028800  
H     0.7920820    1.9348390   -0.7311360  
H     4.9418070    3.7204980    1.7144800  
H     3.5932590    5.8337780    1.7753080  
