64


C     2.0432240   -0.4456910   -0.2936010  
C     0.8101330   -0.8069240    0.2073500  
C     0.3691860   -1.9829970   -0.4943710  
C     1.4089470   -2.3176220   -1.4071580  
N     2.4173100   -1.3914410   -1.2428510  
C     1.3527070   -3.4144390   -2.2702840  
C     0.2184640   -4.2067170   -2.2012290  
O     0.0910300   -5.2992570   -3.0070040  
C    -0.8340330   -3.9070210   -1.2985520  
O    -1.9049610   -4.7795870   -1.3872310  
C    -0.7976140   -2.7993450   -0.4427980  
H     0.3071330   -0.2982790    1.0162680  
H     3.1988600   -1.2691930   -1.8690400  
H     2.1502880   -3.6621350   -2.9634450  
H    -0.7698430   -5.6924010   -2.7662410  
H    -2.1225590   -5.0691180   -0.4764380  
C     2.5353730    2.0211780   -0.0281800  
C     2.9081700    0.6932170   -0.0071260  
C     4.3208680    0.6656260    0.3050380  
C     4.7372310    2.0115070    0.4705990  
N     3.6259890    2.8077800    0.2699340  
C     6.0546550    2.3592830    0.7939120  
C     6.9689670    1.3291780    0.9539860  
O     8.2692590    1.6134680    1.2672960  
C     6.5674040   -0.0233160    0.8007340  
O     7.5892260   -0.9370370    0.9974450  
C     5.2650880   -0.3643370    0.4831640  
H     3.6192910    3.8159090    0.2656990  
H     6.3775260    3.3873660    0.9239290  
H     8.7329360    0.7628430    1.3528390  
H     7.2279640   -1.8344290    0.9514050  
H     4.9764550   -1.4087660    0.3811910  
H     1.5851070    2.4655830   -0.2904600  
C    -3.0280070    0.9979820    0.2129780  
C    -3.9763230    0.4905290    1.1009160  
C    -3.6785780   -0.8842330    1.3038240  
C    -2.5387780   -1.1896080    0.5029280  
N    -2.1856440   -0.0367410   -0.1556990  
C    -1.9507160   -2.4781250    0.4391430  
C    -2.5715740   -3.4324880    1.2465500  
O    -2.0887480   -4.7250610    1.2787150  
C    -3.7048230   -3.1473290    2.0530380  
O    -4.1607410   -4.2406890    2.7667230  
C    -4.2693280   -1.8927160    2.0934890  
H    -4.7239320    1.0646860    1.6305430  
H    -1.3389650    0.1129670   -0.6926960  
H    -2.6260800   -5.2139720    1.9288030  
H    -4.8635530   -3.9643590    3.3730510  
H    -5.1413820   -1.6900790    2.7110650  
C    -5.7617430    4.4320790   -0.1230420  
C    -4.8585100    5.3964710   -0.4455150  
C    -3.5619220    4.7639850   -0.5329050  
C    -3.7845460    3.3394350   -0.2224780  
N    -5.1324860    3.2070060    0.0617160  
C    -2.8166490    2.3628970   -0.2262360  
C    -1.4918110    2.8115790   -0.6983670  
O    -0.5951900    2.0339070   -0.9996650  
C    -1.1938300    4.3492800   -0.8323730  
O    -0.0231890    4.6890190   -0.9617510  
C    -2.3166740    5.2625640   -0.8037420  
H    -5.0678190    6.4440300   -0.6064450  
H    -2.1292980    6.3188780   -0.9665090  
H    -6.8321560    4.5116500    0.0138250  
H    -5.5994070    2.3111850    0.0765540  
