60


C     0.6547740   -1.2067660   -0.2911650  
C     0.8335170   -2.5734200   -0.0989620  
C     2.2266630   -2.8339990   -0.1683800  
C     2.8709360   -1.5802010   -0.4073460  
N     1.9014160   -0.6233870   -0.4803280  
C     4.2693390   -1.4722240   -0.5400490  
C     5.0149040   -2.6449800   -0.4396820  
O     6.3663620   -2.5971440   -0.5683370  
C     4.3757800   -3.8991990   -0.2178460  
O     5.2647820   -4.9512740   -0.1570150  
C     3.0096270   -4.0072590   -0.0777780  
H     0.0448270   -3.2934730    0.0688430  
H     2.0084430    0.3746570   -0.6047580  
H     6.7009250   -3.5033050   -0.4428950  
H     4.7976410   -5.7638350    0.0882440  
H     2.5448090   -4.9759970    0.0893850  
C    -0.5089950   -0.3775820   -0.3249520  
C    -1.8371600   -0.6882010   -0.1718170  
C    -2.5429250    0.5522400   -0.2980100  
C    -1.4629540    1.5714380   -0.5420840  
N    -0.2828080    1.0237940   -0.5608620  
C    -1.7580860    2.9631150   -0.7414390  
C    -3.0594420    3.3287520   -0.7025810  
O    -3.4940400    4.5832180   -0.8609130  
C    -4.1774560    2.3338080   -0.4548450  
O    -5.3131970    2.8049710   -0.3913040  
C    -3.8662720    0.9030550   -0.2813220  
H    -2.2692100   -1.6551490    0.0352720  
H    -0.9588010    3.6757890   -0.9100430  
H    -4.4726310    4.5262020   -0.7591730  
C    -4.7784670   -1.8854400    3.0140870  
C    -5.9633110   -2.4099390    2.6279680  
C    -6.2563100   -1.7807490    1.3438940  
C    -5.0855610   -0.8715070    1.1070780  
N    -4.2316210   -0.9392670    2.0848200  
C    -4.9891550   -0.0330350   -0.0793730  
C    -6.0166620   -0.1347740   -0.9707080  
O    -6.0599480    0.5325630   -2.1309160  
C    -7.1980330   -1.0420540   -0.7552460  
O    -8.0647240   -1.0603180   -1.6275000  
C    -7.2716520   -1.8657930    0.4641320  
H    -6.5793210   -3.1322030    3.1452930  
H    -6.9112230    0.2745070   -2.5500200  
H    -8.1444010   -2.5002370    0.5852280  
H    -4.2187650   -2.0930170    3.9182630  
C     5.7188020    0.0569440   -1.8892850  
C     6.2182210    1.3151930   -1.8300540  
C     5.7334790    1.9158450   -0.6063910  
C     4.8966060    0.8831610    0.0556760  
N     4.9054310   -0.2288280   -0.7841770  
C     4.2818200    1.0508690    1.2545110  
C     4.4399970    2.3313790    1.9425360  
O     3.9392570    2.5654100    3.0316200  
C     5.2989410    3.4487200    1.2453240  
O     5.4244800    4.5305050    1.7981990  
C     5.9222370    3.1381910   -0.0428920  
H     6.8624020    1.7837280   -2.5599060  
H     3.6950000    0.2780760    1.7387600  
H     6.5312770    3.9084160   -0.5065350  
H     5.8591050   -0.7073050   -2.6407770  
