60


C     0.6458470    1.4934190   -0.6503980  
C    -0.7049730    1.3331520   -0.4404300  
C    -0.9141240   -0.0539640   -0.1416490  
C     0.3522760   -0.6849710   -0.1782960  
N     1.2861840    0.2798990   -0.4972310  
C     0.5638880   -2.0596910    0.0503620  
C    -0.5821540   -2.8122390    0.3194670  
O    -0.4605760   -4.1280220    0.6205210  
C    -1.8679010   -2.2162530    0.3492580  
O    -2.8646660   -3.1057370    0.6662840  
C    -2.0690460   -0.8446530    0.1237550  
H    -1.4449380    2.1180950   -0.4758770  
H     2.2586430    0.1023630   -0.6969720  
H    -1.3565680   -4.4842090    0.7547690  
H    -3.7100020   -2.6298420    0.7796620  
C     0.9759180    3.6265560   -1.8874620  
C     1.8828260    4.6286780   -1.9699250  
C     2.9685220    4.3092660   -1.0647280  
C     2.6041380    3.0226750   -0.4234950  
N     1.3801320    2.6403570   -0.9713190  
C     3.3582000    2.3987020    0.5183550  
C     4.6314620    2.9944220    0.9021470  
O     5.3843990    2.4761050    1.7164410  
C     5.0455070    4.3512470    0.2281490  
O     6.1057920    4.8692700    0.5382820  
C     4.1291060    4.9435030   -0.7544410  
H     1.8170490    5.4990470   -2.6064570  
H     3.0729060    1.4710170    0.9974140  
H     4.4189140    5.8884460   -1.2037310  
H     0.0442400    3.4873650   -2.4186560  
C    -3.3976200   -0.2597720    0.1969790  
C    -3.8100450    0.9589290    0.6608700  
C    -5.2422510    1.0451700    0.5361380  
C    -5.6760060   -0.2365840   -0.0607200  
N    -4.5309340   -1.0427730   -0.1786240  
C    -6.9490060   -0.5274910   -0.4068180  
C    -7.9866440    0.4762280   -0.1427340  
O    -9.1602860    0.2964650   -0.4217670  
C    -7.5567890    1.8233590    0.5425440  
O    -8.4135670    2.6611380    0.7819800  
C    -6.1409670    2.0196520    0.8482960  
H    -3.1726430    1.7019680    1.1180150  
H    -7.2509820   -1.4704260   -0.8527760  
H    -5.8495750    2.9625510    1.3009150  
H    -4.4476620   -1.6374280   -0.9982800  
C     4.4193940   -1.1046170    2.0526730  
C     3.1048740   -1.1807580    1.7058080  
C     2.9777600   -2.2164590    0.7023090  
C     4.3417270   -2.7746390    0.5212180  
N     5.1651580   -2.0465560    1.3608840  
C     4.6554770   -3.8012390   -0.3087990  
C     3.5828960   -4.3979640   -1.0952090  
O     3.7474590   -5.3584890   -1.8304380  
C     2.1500980   -3.7542910   -1.0111480  
O     1.2984170   -4.1366150   -1.7925530  
C     1.9066270   -2.6696330   -0.0254140  
H     2.3024640   -0.5876820    2.1173120  
H     5.6569630   -4.2083710   -0.4073420  
H     4.9067450   -0.4222490    2.7366610  
H     6.1607870   -2.1785070    1.4494080  
