60


C     2.2342330   -2.4132720    1.8771190  
C     3.3862740   -1.7973090    1.4645970  
C     3.0080650   -0.6020690    0.7602580  
C     1.5891450   -0.5516030    0.7978160  
N     1.1454900   -1.6624100    1.4797840  
C     0.8554730    0.5173060    0.2525530  
C     1.5876630    1.5659080   -0.2982690  
O     0.9469940    2.6517750   -0.8091870  
C     3.0053180    1.5424860   -0.3287400  
O     3.5467670    2.6521380   -0.9312560  
C     3.7455600    0.4572160    0.1516320  
H     4.3892250   -2.1499650    1.6516080  
H     0.1780550   -1.9158480    1.6098850  
H     1.6626210    3.2551970   -1.0948230  
H     4.3221550    2.9223650   -0.3823680  
H     2.0931880   -3.3305480    2.4306500  
C    -1.2986640    1.6158250    0.8785760  
C    -2.6332890    1.3864160    0.7952520  
C    -2.8134530    0.1183120    0.1196630  
C    -1.4499060   -0.3770960   -0.1863420  
N    -0.5617200    0.5719040    0.3103550  
C    -1.1770170   -1.5486230   -0.8220160  
C    -2.2944840   -2.3934730   -1.2203090  
O    -2.1510410   -3.4802590   -1.7601980  
C    -3.7510290   -1.8716950   -0.9555600  
O    -4.6870160   -2.4981440   -1.4165610  
C    -3.9346370   -0.5920020   -0.2186510  
H    -3.4144360    2.0200120    1.1876210  
H    -0.1709010   -1.8822980   -1.0489480  
H    -0.7668900    2.4517290    1.3098050  
C    -6.1467770    3.0453040   -1.4003920  
C    -7.3489620    2.7720370   -0.8314620  
C    -7.2280730    1.4934910   -0.1618490  
C    -5.8334410    1.0405560   -0.3881270  
N    -5.2317280    2.0309150   -1.1401600  
C    -5.3088820   -0.1414080    0.0534410  
C    -6.1993360   -0.9979780    0.8670510  
O    -5.8077720   -2.0099620    1.4212040  
C    -7.6914340   -0.5522120    1.0802340  
O    -8.4401710   -1.2919800    1.6990450  
C    -8.1161470    0.7366280    0.5372670  
H    -8.2350360    3.3883590   -0.8735970  
H    -9.1458950    1.0398950    0.6997000  
H    -5.8437960    3.9013900   -1.9887860  
H    -4.2820350    1.9938320   -1.4764460  
C     6.4775830   -2.7003550   -1.3570010  
C     5.3955000   -1.9382940   -1.0442110  
C     5.8806530   -0.7238000   -0.4323480  
C     7.3620370   -0.8414700   -0.4186130  
N     7.6548160   -2.0716100   -0.9724850  
C     8.2141990    0.0939360    0.0723250  
C     7.6330920    1.3206550    0.5883860  
O     8.2830750    2.2208840    1.0944980  
C     6.0764580    1.5152500    0.4580590  
O     5.6491400    2.6469100    0.6866230  
C     5.2225570    0.3881230    0.0521170  
H     4.3630080   -2.1916130   -1.2239510  
H     9.2909060   -0.0328590    0.1178190  
H     6.5164290   -3.6689030   -1.8377390  
H     8.5859160   -2.4139930   -1.1509510  
