58


C     3.4724670   -0.1949320    0.1881040  
C     4.3333130    0.7606730    0.6870320  
C     3.6186330    2.0031230    0.7819310  
C     2.2491250    1.7305220    0.2901600  
N     2.2239890    0.3891870   -0.0367040  
C     1.2484410    2.6572940    0.1947700  
C     1.5605340    4.0121960    0.7148420  
O     0.7066370    4.8664920    0.8653660  
C     3.0290640    4.3351000    1.1689030  
O     3.3043730    5.4805950    1.4938840  
C     3.9977030    3.2454710    1.2001510  
H     5.3434050    0.5923370    1.0275360  
H     5.0037640    3.4681650    1.5422480  
H     1.4483050   -0.1269280   -0.4265070  
C     7.1191970   -2.5906880   -0.7069410  
C     6.2338860   -1.5713760   -0.5063710  
C     4.9409140   -2.1589030   -0.2810440  
C     5.1399190   -3.6244260   -0.3741920  
N     6.4892390   -3.8165920   -0.6083040  
C     4.1650010   -4.5592320   -0.2366230  
C     2.8060390   -4.0932570   -0.0090100  
O     1.8582640   -4.8381370    0.1778120  
C     2.5426240   -2.5445390   -0.0120580  
O     1.3746400   -2.1757330    0.0080990  
C     3.6914030   -1.6120870   -0.0401310  
H     6.4636780   -0.5192120   -0.5563590  
H     4.3469120   -5.6284190   -0.2764690  
H     8.1781730   -2.5413800   -0.9232230  
H     6.9223030   -4.7123750   -0.7721760  
C    -1.7800180   -0.4422800    1.1171050  
C    -2.7685600   -0.0800060    0.2459840  
C    -2.2694700    1.0984910   -0.4688290  
C    -0.9172300    1.3746640    0.0690550  
N    -0.6957890    0.4187450    1.0462790  
C    -0.0959230    2.3914580   -0.3360160  
C    -0.6075740    3.2490050   -1.4317300  
O     0.0868660    4.0724730   -1.9992540  
C    -2.0832200    3.0447410   -1.9206870  
O    -2.5523290    3.8401100   -2.7181990  
C    -2.8346230    1.8969330   -1.4094120  
H    -3.8246420    1.7207950   -1.8131960  
H    -1.7477910   -1.2909690    1.7878850  
H     0.1888450    0.2591440    1.5033810  
C    -5.7803780   -1.2499550    3.2133780  
C    -6.6791360   -1.8657570    2.4035260  
C    -6.1653760   -1.7902950    1.0516960  
C    -4.8711470   -1.0748350    1.1440030  
N    -4.6764820   -0.8093660    2.4884870  
C    -4.0652330   -0.7496070    0.0872010  
C    -4.5419150   -1.1656370   -1.2481140  
O    -3.9155880   -0.9454710   -2.2714530  
C    -5.9083260   -1.9418450   -1.3630190  
O    -6.2930360   -2.2734970   -2.4733530  
C    -6.6577980   -2.2194470   -0.1418470  
H    -7.6069320   -2.3282390    2.7072490  
H    -7.6003590   -2.7500600   -0.2334070  
H    -5.8161210   -1.0913300    4.2832190  
H    -3.9788550   -0.1634070    2.8273860  
