60


C     0.3118900    0.8872590   -0.1319990  
C     1.5359440    0.2361770   -0.3630840  
C     2.5585310    1.2049680   -0.3391410  
C     1.9298590    2.4626310   -0.0720250  
N     0.5892890    2.2396550    0.0392430  
C     2.6512100    3.6541090    0.0593350  
C     4.0256100    3.5721220   -0.0809670  
O     4.7807200    4.6885290    0.0319990  
C     4.6776730    2.3269720   -0.3618110  
O     6.0361970    2.4696090   -0.5132780  
C     3.9782000    1.1374770   -0.4954120  
H     1.6670470   -0.8283730   -0.4697340  
H    -0.1343090    2.8998020    0.2966590  
H     2.1839050    4.6097450    0.2689530  
H     5.7125180    4.4302320   -0.0887120  
H     6.4646920    1.6032270   -0.6051500  
C    -1.6357510   -3.0770890   -1.0177200  
C    -0.7102370   -2.0796680   -0.9698030  
C    -1.3877160   -0.9391060   -0.3752720  
C    -2.7454570   -1.4366750   -0.1357810  
N    -2.8891970   -2.6891100   -0.5013780  
C    -3.8003990   -0.5972770    0.4181220  
C    -3.4681790    0.6888290    0.7385820  
O    -4.3339750    1.5641790    1.2980130  
C    -2.1209850    1.2281990    0.4898570  
O    -1.9490570    2.4242650    0.7810540  
C    -1.0146170    0.3480820   -0.0405810  
H     0.2985100   -2.1166860   -1.3515710  
H    -3.8286890    2.4008260    1.3878430  
H    -1.5159280   -4.0821440   -1.4033380  
C    -5.3535490   -2.4134380    1.0805790  
C    -6.6835420   -2.6601030    1.1309300  
C    -7.3674170   -1.5008860    0.6071660  
C    -6.3096870   -0.5261520    0.2435580  
N    -5.0872480   -1.1243940    0.5838780  
C    -6.5566220    0.6573520   -0.3678570  
C    -7.9483940    1.0292800   -0.6330800  
O    -8.2536350    2.0804030   -1.1745180  
C    -9.0835330    0.0339970   -0.2048450  
O   -10.2488000    0.3406320   -0.4046470  
C    -8.6843610   -1.2349570    0.4034690  
H    -7.1487650   -3.5664600    1.4909180  
H    -5.7857290    1.3586380   -0.6558500  
H    -9.4678790   -1.9424750    0.6573780  
H    -4.5227130   -3.0434910    1.3555560  
C     4.3165990   -0.9997650   -1.8167180  
C     4.6560610   -0.1302660   -0.8165900  
C     5.8152570   -0.7175720   -0.1471590  
C     6.1157080   -1.9855840   -0.8588350  
N     5.1601390   -2.0969600   -1.8525080  
C     7.1317320   -2.8245090   -0.5405730  
C     8.0005620   -2.4716080    0.5823240  
O     8.9467080   -3.1585330    0.9305980  
C     7.6866730   -1.1491060    1.3707180  
O     8.3833100   -0.8475010    2.3252320  
C     6.5585300   -0.3217630    0.9238430  
H     7.3324020   -3.7494130   -1.0725930  
H     6.3389680    0.5743250    1.4964770  
H     3.5166530   -0.9079050   -2.5396670  
H     5.1091270   -2.8484450   -2.5228100  
