62


C     1.5843890    2.1208530   -0.7330660  
C     0.5058230    1.4104510   -0.2323000  
C     0.9946900    0.0762810    0.0554680  
C     2.3641960    0.0484130   -0.2967690  
N     2.6840210    1.3103570   -0.7774300  
C     3.1783660   -1.1007570   -0.1760860  
C     2.5334000   -2.2490080    0.2989060  
O     3.2235220   -3.4229550    0.4083310  
C     1.1700170   -2.2249250    0.6840510  
O     0.6982830   -3.4245260    1.1717450  
C     0.4004260   -1.0829490    0.5847800  
H     3.5983270    1.5904120   -1.1004950  
H     2.6148390   -4.0734450    0.8017740  
H    -0.2528950   -3.3438860    1.3529820  
H    -0.6232150   -1.0973570    0.9463880  
H     1.6299400    3.1390430   -1.0918680  
C    -0.8404300    1.9023900   -0.0831160  
C    -1.3364760    3.1756320    0.0647200  
C    -2.7678320    3.0948870    0.1389530  
C    -3.1066380    1.6530760    0.0278680  
N    -1.9096210    0.9921500   -0.0690340  
C    -4.3700410    1.1101110    0.0048450  
C    -5.4526090    2.0920970   -0.0013430  
O    -6.6283450    1.8093130   -0.2463670  
C    -5.1361940    3.6060800    0.2883200  
O    -6.0804090    4.3633130    0.4614210  
C    -3.7470290    4.0315490    0.2974660  
H    -0.7476020    4.0767820    0.1575260  
H    -3.5385490    5.0879550    0.4325990  
H    -1.8381410    0.0259180   -0.3506230  
C    -2.7619260   -2.3159530    2.4502180  
C    -3.0856940   -1.0707780    1.9720000  
C    -3.9251590   -1.2541590    0.8160010  
C    -4.0830450   -2.6548880    0.6514740  
N    -3.3271140   -3.2816110    1.6286860  
C    -4.9033870   -3.2230810   -0.3294500  
C    -5.6024830   -2.3441540   -1.1391540  
O    -6.4472450   -2.8135110   -2.0932580  
C    -5.4612140   -0.9325280   -1.0058670  
O    -6.2129410   -0.2208200   -1.9045190  
C    -4.5993480   -0.3564130   -0.0694750  
H    -2.7809850   -0.1315680    2.4107490  
H    -3.4240720   -4.2551700    1.8759670  
H    -5.0328950   -4.2939640   -0.4476370  
H    -6.8523160   -2.0200130   -2.4955310  
H    -6.5810360    0.5594600   -1.4178260  
H    -2.1936530   -2.6001160    3.3256280  
C     5.2405920   -2.1032820   -1.2496630  
C     4.6022430   -1.1179290   -0.5480780  
C     5.6226070   -0.1239530   -0.2261080  
C     6.8884220   -0.6088450   -0.8366460  
N     6.5802670   -1.8115050   -1.4416330  
C     8.0785530    0.0372350   -0.7651400  
C     8.1437120    1.2991040   -0.0314570  
O     9.1664280    1.9577070    0.0714520  
C     6.8301860    1.8158270    0.6581390  
O     6.8647220    2.8582500    1.2929550  
C     5.6050070    1.0247310    0.5067780  
H     8.9903670   -0.3412280   -1.2171150  
H     4.7187660    1.3813200    1.0213460  
H     4.8247620   -3.0236080   -1.6340060  
H     7.2446070   -2.4111250   -1.9056590  
