60


C     3.7379850   -0.9848510   -2.0520550  
C     5.0014750   -1.4484330   -2.2117290  
C     5.7385710   -1.1167220   -1.0116750  
C     4.7861120   -0.4051230   -0.1253090  
N     3.5688060   -0.3512490   -0.8131970  
C     5.0908730    0.0328200    1.1198540  
C     6.4487890   -0.1837560    1.6207460  
O     6.8054610    0.1656200    2.7348640  
C     7.4814150   -0.9091360    0.6847380  
O     8.6206080   -1.0906530    1.0847550  
C     7.0217690   -1.3537780   -0.6330010  
H     5.3919030   -1.9562450   -3.0819590  
H     4.3887060    0.5500640    1.7629370  
H     7.7325150   -1.8760080   -1.2663310  
H     2.8997740   -1.0212400   -2.7347670  
C    -0.5339690   -1.9343740   -0.5348840  
C     0.8309580   -1.7852940   -0.6947610  
C     1.1768090   -0.4351050   -0.3761340  
C    -0.0827930    0.2325980   -0.0086870  
N    -1.0760070   -0.7292120   -0.0770960  
C    -0.2133080    1.5413970    0.3534570  
C     1.0170900    2.3507000    0.4027320  
O     1.0426170    3.5016140    0.7959050  
C     2.3677150    1.6857840   -0.0587870  
O     3.3515630    2.3980870   -0.1643800  
C     2.3728340    0.2498090   -0.3743820  
H     1.5212190   -2.5780570   -0.9427210  
H    -2.0518990   -0.4795940   -0.1552780  
C    -1.0716750   -4.2028460   -1.4929280  
C    -1.3584550   -3.0896780   -0.7394330  
C    -2.7030930   -3.3638140   -0.1929980  
C    -3.0480390   -4.7055450   -0.7517370  
N    -2.0801890   -5.1758490   -1.5025350  
C    -4.2896340   -5.3557690   -0.4556310  
C    -5.1569940   -4.7193260    0.3722100  
O    -6.3483240   -5.2104220    0.7307510  
C    -4.8324250   -3.3781390    0.9727240  
O    -5.6613100   -2.8651690    1.7187730  
C    -3.5411420   -2.7293060    0.6496390  
H    -4.5075900   -6.3279040   -0.8831990  
H    -6.7463850   -4.5447600    1.3338830  
H    -3.3492920   -1.7751140    1.1306690  
H    -0.1745720   -4.3766350   -2.0758830  
C    -2.2565410    1.5069800    1.7664760  
C    -3.4119720    2.2258070    1.8856350  
C    -3.3528030    3.2946710    0.9266750  
C    -2.1153120    3.1812110    0.2465890  
N    -1.4480790    2.0707060    0.7706590  
C    -1.7413860    4.0475590   -0.7864250  
C    -2.6276300    5.0588300   -1.1237130  
O    -2.3080840    5.9349560   -2.1177640  
C    -3.8685610    5.1943110   -0.4455430  
O    -4.6398220    6.2465440   -0.8982390  
C    -4.2384580    4.3286880    0.5665240  
H    -4.2052490    2.0342000    2.5957000  
H    -0.7906700    3.9790130   -1.3008990  
H    -3.0295050    6.5850510   -2.1741800  
H    -5.4182740    6.3465060   -0.3306210  
H    -5.1971970    4.4430190    1.0683000  
H    -1.8861110    0.6712830    2.3430880  
