58


C     0.1451030    0.6060170   -1.4215240  
C    -0.1149730    1.6690970   -0.5929850  
C     1.1703000    2.0134340    0.0341410  
C     2.1670900    1.0659480   -0.5122780  
N     1.4804730    0.2636270   -1.4059920  
C     3.4923600    1.0039100   -0.1785420  
C     3.9493720    1.9554350    0.8528390  
O     5.1030430    2.0034580    1.2452820  
C     2.9025200    2.9515830    1.4691550  
O     3.2718880    3.7118530    2.3477290  
C     1.5218710    2.9244510    0.9763530  
H     0.8302110    3.6510080    1.3836540  
H    -0.5395670    0.0841860   -2.0765430  
H     1.8931400   -0.5257620   -1.8801710  
C    -4.1920900   -0.0836990   -0.1568420  
C    -2.8261440    0.1273730   -0.2375210  
C    -2.5919230    1.5363450   -0.3260460  
C    -3.9263430    2.1743080   -0.2751400  
N    -4.8419650    1.1495680   -0.2095590  
C    -4.1508570    3.5148970   -0.2799550  
C    -3.0020570    4.3999360   -0.3285350  
O    -3.0808010    5.6186370   -0.3091240  
C    -1.5669140    3.7575280   -0.4063740  
O    -0.6070510    4.5051760   -0.4854810  
C    -1.4272130    2.2771030   -0.4107490  
H    -2.0694180   -0.6342830   -0.1441650  
H    -5.1426700    3.9529700   -0.2369400  
H    -5.8302820    1.2393730   -0.0154320  
C     4.6343570   -0.0649700   -2.1626600  
C     4.4386990    0.0807630   -0.8174070  
C     5.3576160   -0.8598710   -0.1676410  
C     6.0826360   -1.5554730   -1.2577370  
N     5.5832170   -1.0376100   -2.4404250  
C     7.0326550   -2.5062710   -1.0732940  
C     7.3631170   -2.8975820    0.2939580  
O     8.1983020   -3.7471610    0.5618980  
C     6.5889920   -2.1928780    1.4664300  
O     6.8261850   -2.5242300    2.6159010  
C     5.5962930   -1.1611080    1.1326060  
H     7.5543410   -2.9963020   -1.8896900  
H     5.0997700   -0.6588100    1.9549690  
H     4.1751710    0.4864850   -2.9736120  
H     5.9682430   -1.2241740   -3.3535590  
C    -3.2365150   -4.4299700   -0.7548640  
C    -3.1426210   -3.0735350   -0.8112140  
C    -4.3841270   -2.5787670   -0.2482900  
C    -5.1376970   -3.8240510    0.0903320  
N    -4.4551950   -4.9000000   -0.1948550  
C    -6.4574220   -3.7891400    0.6566590  
C    -7.0319600   -2.5791630    0.8473880  
O    -8.2723950   -2.4096650    1.3338170  
C    -6.3220240   -1.3062430    0.4997750  
O    -6.9642960   -0.2613200    0.6451660  
C    -4.9080990   -1.3337360    0.0052000  
H    -2.3360700   -2.4930270   -1.2314170  
H    -6.9696650   -4.7142240    0.8961750  
H    -8.4344290   -1.4426640    1.3408300  
H    -2.5074910   -5.1578790   -1.0912090  
