62


C    -1.3130280   -1.6168470    0.4888730  
C    -2.6513280   -1.3620270    0.4750240  
C    -2.8238880    0.0087560    0.0785660  
C    -1.5345950    0.5512290   -0.1296060  
N    -0.6010450   -0.4645470    0.1395090  
C    -1.3371610    1.8427760   -0.6260560  
C    -2.4599720    2.6151510   -0.8810340  
O    -2.3077500    3.8872940   -1.3407090  
C    -3.7628770    2.1082500   -0.6603230  
O    -4.7582490    3.0140510   -0.9294150  
C    -3.9735070    0.8053190   -0.1795950  
H    -3.4269350   -2.0718820    0.7210830  
H    -0.3572630    2.2713560   -0.7851010  
H    -3.1955010    4.2796400   -1.4118410  
H    -5.6210980    2.6460980   -0.6570190  
H    -0.7731230   -2.5083010    0.7692230  
C     2.3527750   -3.2152470   -1.6109680  
C     1.1661600   -2.6651640   -1.2555560  
C     1.5129060   -1.4413130   -0.5450030  
C     2.9937190   -1.4096900   -0.5644860  
N     3.4727900   -2.4497640   -1.1909320  
C     3.7667130   -0.3098390    0.0349680  
C     3.0066040    0.6965810    0.5891510  
O     3.5556570    1.7935530    1.1899810  
C     1.5476020    0.7007960    0.6341430  
O     0.9792270    1.6366910    1.2174180  
C     0.7899880   -0.4336050    0.0134640  
H     0.1721500   -3.0265890   -1.4753580  
H     2.7826100    2.3030370    1.5225940  
H     2.5276600   -4.1284160   -2.1663710  
C     5.2052820   -0.3112340    0.0244990  
C     6.1036810   -1.2522720   -0.4898860  
C     7.4118190   -0.7783430   -0.2381490  
C     7.2839150    0.4720330    0.4421530  
N     5.9480620    0.7270850    0.5860730  
C     8.3931870    1.2247390    0.8470850  
C     9.6479600    0.7109440    0.5625420  
O    10.7611790    1.3969830    0.9312420  
C     9.7963580   -0.5380970   -0.1174960  
O    11.1139690   -0.8964640   -0.3177900  
C     8.7071560   -1.2784480   -0.5156400  
H     5.8081770   -2.1626870   -0.9861440  
H     5.5240600    1.5301170    1.0281450  
H     8.3056990    2.1744690    1.3638820  
H    11.5327500    0.8770210    0.6449340  
H    11.1537930   -1.7461200   -0.7814710  
H     8.8384510   -2.2268580   -1.0320340  
C    -5.3186870    0.3081560    0.0666170  
C    -5.7992120   -0.5125710    1.0485520  
C    -7.2183680   -0.6779820    0.8654630  
C    -7.5686180    0.1147020   -0.3330990  
N    -6.3974240    0.7710350   -0.7473970  
C    -8.8010800    0.1654610   -0.8841050  
C    -9.8828110   -0.5837070   -0.2348610  
O   -11.0249420   -0.5922390   -0.6631680  
C    -9.5456550   -1.3876250    1.0727230  
O   -10.4415690   -2.0024360    1.6319320  
C    -8.1650000   -1.3755470    1.5523980  
H    -5.2194730   -0.9099980    1.8691430  
H    -9.0405430    0.7452830   -1.7705320  
H    -7.9362030   -1.9527020    2.4430850  
H    -6.2322640    0.8684110   -1.7450780  
