62


C    -0.8361250   -1.6584860   -0.7496230  
C     0.5417060   -1.7270810   -0.7940110  
C     1.0544200   -0.3944540   -0.6620010  
C    -0.0657360    0.4636030   -0.5197610  
N    -1.1962210   -0.3274090   -0.5582750  
C     0.0356610    1.8601470   -0.3723970  
C     1.3323330    2.3805150   -0.3649300  
O     1.5140810    3.7177200   -0.1923760  
C     2.4649490    1.5415870   -0.4951650  
O     3.6576850    2.2378480   -0.4741380  
C     2.3625220    0.1574580   -0.6405390  
H     1.1167620   -2.6405210   -0.8518160  
H    -2.1317020    0.0259510   -0.6910600  
H     2.4646970    3.8971630   -0.2987550  
H     4.3941010    1.6392590   -0.6723860  
C    -1.7347930   -3.8665620   -1.5784370  
C    -1.8483800   -2.6940580   -0.8607750  
C    -3.1651780   -2.7135360   -0.2572400  
C    -3.7896320   -3.9232710   -0.6540880  
N    -2.8894680   -4.6072790   -1.4478900  
C    -5.0828740   -4.2778340   -0.2508460  
C    -5.7625850   -3.3940370    0.5728180  
O    -7.0289880   -3.6870130    0.9879980  
C    -5.1477030   -2.1861810    0.9945050  
O    -5.9362800   -1.4134750    1.8278480  
C    -3.8683940   -1.8420720    0.5991940  
H    -3.0687930   -5.4870450   -1.9057830  
H    -5.5621750   -5.2023310   -0.5563460  
H    -7.3282000   -2.9482460    1.5453250  
H    -5.4819310   -0.5768070    2.0062120  
H    -3.4155190   -0.9253410    0.9701850  
H    -0.9181290   -4.2171470   -2.1928990  
C     3.7515250   -1.6267890   -1.7825030  
C     3.5574740   -0.6903690   -0.8062650  
C     4.7489980   -0.7423130    0.0426400  
C     5.6394470   -1.7789630   -0.5396290  
N     4.9684320   -2.2791730   -1.6376890  
C     6.8533250   -2.1220600   -0.0396840  
C     7.3278440   -1.4415350    1.1620990  
O     8.4080000   -1.6789280    1.6800950  
C     6.3925000   -0.3584120    1.8132970  
O     6.7608800    0.2069840    2.8301690  
C     5.1058610   -0.0675140    1.1696410  
H     7.4882250   -2.8829470   -0.4834190  
H     4.4701040    0.6804620    1.6321260  
H     3.0920730   -1.8844520   -2.6004870  
H     5.3277270   -2.9855610   -2.2605040  
C    -3.2452700    2.1239810    2.6163780  
C    -2.1393010    1.7671800    1.9134750  
C    -2.0641770    2.6382620    0.7533640  
C    -3.2361660    3.5412590    0.8434000  
N    -3.9323270    3.1531530    1.9751150  
C    -3.5099530    4.5523420   -0.0210920  
C    -2.5938700    4.7688940   -1.1307140  
O    -2.7252260    5.6710350   -1.9442260  
C    -1.3794010    3.7821390   -1.2949270  
O    -0.6931960    3.8723810   -2.2953130  
C    -1.1417940    2.7435560   -0.2522640  
H    -1.4284840    0.9988210    2.1776610  
H    -4.3614220    5.2174480    0.0852080  
H    -3.6184100    1.7316500    3.5538680  
H    -4.6908680    3.6798250    2.3800660  
