60


C     2.7558980    2.7743060    0.2196160  
C     4.0356610    2.7665010   -0.2765760  
C     4.3245490    1.4082890   -0.6477200  
C     3.1680600    0.6406910   -0.3695880  
N     2.2180430    1.4985380    0.1554000  
C     3.0585500   -0.7435400   -0.6248360  
C     4.1930890   -1.3465320   -1.1760990  
O     4.1748040   -2.6715770   -1.4871370  
C     5.3652830   -0.5933600   -1.4531180  
O     6.3802880   -1.3501830   -1.9999300  
C     5.4452580    0.7642080   -1.2070210  
H     4.6723380    3.6302240   -0.4074870  
H     1.3902520    1.2015390    0.6515460  
H     5.0415480   -2.8935730   -1.8715580  
H     7.1400620   -0.7857870   -2.2059070  
H     6.3530170    1.3157340   -1.4407120  
C     0.5610950   -1.0046730   -0.6792300  
C     1.8017900   -1.4619750   -0.3556980  
C     1.6000880   -2.7352310    0.3368580  
C     0.1379340   -2.9764110    0.3735550  
N    -0.4613930   -1.8648960   -0.2617840  
C    -0.4325570   -4.0635100    0.9448390  
C     0.4418560   -5.0609200    1.5711210  
O     0.0081180   -6.0699940    2.1034960  
C     1.9872390   -4.8101400    1.5610780  
O     2.7302700   -5.6195310    2.0927590  
C     2.4803260   -3.5943860    0.9059270  
H    -1.5021470   -4.2206530    0.9555060  
H     3.5509210   -3.4317640    0.8814640  
H     0.2986200   -0.1194830   -1.2396030  
C    -1.7981150   -1.5408480   -0.3857860  
C    -2.3323690   -0.3342350   -0.7773090  
C    -3.7485270   -0.5342560   -0.7296570  
C    -3.9150100   -1.9631850   -0.2872440  
N    -2.7602630   -2.5391690   -0.0846530  
C    -5.2084330   -2.5598000   -0.1206790  
C    -6.2830240   -1.7705460   -0.3646970  
O    -7.5503440   -2.1691320   -0.2551860  
C    -6.1486190   -0.3121410   -0.7958930  
O    -7.2084320    0.2904300   -0.9810880  
C    -4.8250150    0.2650330   -0.9611680  
H    -1.8461700    0.5947500   -1.0334550  
H    -5.3043720   -3.5936390    0.1913480  
H    -8.0841360   -1.3730300   -0.4935120  
H    -4.7463520    1.3070550   -1.2542460  
C     2.4521750    4.8169430    1.6132200  
C     1.4661110    5.6788200    1.9566130  
C     0.2570730    5.2469190    1.2835080  
C     0.6341200    4.0527590    0.4887020  
N     1.9851700    3.8247030    0.7335400  
C    -0.2232780    3.3668720   -0.3129160  
C    -1.6197370    3.7759730   -0.3532860  
O    -2.4702960    3.1671660   -0.9905040  
C    -2.0423840    5.0431210    0.4729260  
O    -3.2005340    5.4225020    0.4265770  
C    -1.0149770    5.7224070    1.2733840  
H     1.5585330    6.5237660    2.6233390  
H     0.0816560    2.5246170   -0.9219720  
H    -1.3180920    6.6001870    1.8358280  
H     3.4877680    4.7854400    1.9230610  
