58


C    -6.6567790   -0.0214210    2.6127950  
C    -5.4337890    0.2058290    2.0650940  
C    -5.3915820   -0.4943380    0.8002370  
C    -6.7142800   -1.1536220    0.6520790  
N    -7.4256410   -0.8390410    1.7941480  
C    -7.1016910   -1.8893550   -0.4205730  
C    -6.1574860   -2.0574240   -1.5179420  
O    -6.4170640   -2.6800750   -2.5353240  
C    -4.7329040   -1.4136220   -1.3731460  
O    -3.8953550   -1.6480680   -2.2262280  
C    -4.4348060   -0.5901100   -0.1757350  
H    -4.6411470    0.7987050    2.4950450  
H    -8.0830600   -2.3447550   -0.5106840  
H    -7.0637350    0.3376240    3.5488840  
H    -8.3855060   -1.0965440    1.9622990  
C    -0.9621720   -0.7090580    2.6571060  
C    -2.1685970   -0.9549610    2.0936260  
C    -2.2017090   -0.1295130    0.8916850  
C    -0.8738110    0.5633660    0.8917620  
N    -0.1614000    0.2209750    1.9273710  
C    -0.4817270    1.4917100   -0.1559030  
C    -1.3909800    1.6833290   -1.1538880  
O    -1.1701000    2.4752260   -2.2088620  
C    -2.7389990    1.0192030   -1.1719110  
O    -3.5101570    1.3411160   -2.0698060  
C    -3.1150410    0.0550420   -0.0936160  
H    -2.9473630   -1.6186310    2.4403300  
H    -2.0047140    2.4657300   -2.7277720  
H    -0.5539010   -1.1332260    3.5670030  
C     3.8088280    0.2357090   -0.0049060  
C     2.4329490    0.2719270   -0.0554160  
C     2.0249230    1.6468410   -0.0397260  
C     3.2706750    2.4491900    0.0190110  
N     4.3045810    1.5468970    0.0453680  
C     3.3208210    3.8074040    0.0219970  
C     2.0686470    4.5411230   -0.0366630  
O     2.0015080    5.7615390   -0.0615440  
C     0.7267800    3.7215580   -0.0642480  
O    -0.3266220    4.3330450   -0.0203910  
C     0.7878810    2.2377980   -0.1023220  
H     1.7951520   -0.5940500   -0.0882940  
H     4.2491260    4.3694200    0.0491630  
H     5.2871310    1.7720780    0.0813410  
C     2.9428520   -4.0811070   -0.2490120  
C     4.1827960   -4.6147660   -0.1978490  
C     5.0851340   -3.4741760   -0.0937620  
C     4.1764490   -2.2819240   -0.0938150  
N     2.9349380   -2.6488150   -0.1854920  
C     4.6970610   -0.9108340   -0.0040290  
C     6.0645080   -0.8124460    0.0729180  
O     6.7360910    0.3557370    0.1583390  
C     6.9813560   -1.9911520    0.0738160  
O     8.1918920   -1.7637220    0.1498380  
C     6.4228780   -3.3474130   -0.0143310  
H     4.4679640   -5.6569700   -0.2293040  
H     7.6874500    0.0959790    0.1978980  
H     7.1224970   -4.1776480   -0.0126270  
H     1.9921050   -4.5929390   -0.3312330  
