62


C     0.1098980   -2.0315110    0.1884530  
C     1.0521000   -1.0284680    0.2931710  
C     2.3187110   -1.6529170    0.5261240  
C     2.1013820   -3.0561270    0.5474010  
N     0.7556000   -3.2631100    0.3066560  
C     3.1270270   -3.9848840    0.7431960  
C     4.4115340   -3.4885390    0.9176230  
O     5.4504590   -4.3432010    1.1110910  
C     4.6658150   -2.0909300    0.9124340  
O     5.9754230   -1.7491440    1.1704620  
C     3.6341060   -1.1742570    0.7187460  
H     0.8588690    0.0254500    0.1525370  
H     0.2719660   -4.1232190    0.5211500  
H     2.9597210   -5.0567500    0.7489640  
H     6.2533820   -3.7957580    1.1886630  
H     6.2302700   -0.9587110    0.6595980  
C    -1.3141320   -1.9576020   -0.0443030  
C    -2.2257100   -0.9797040    0.2995880  
C    -3.5137340   -1.3978090   -0.1659400  
C    -3.3356190   -2.6650320   -0.7807780  
N    -1.9976170   -3.0003540   -0.6682860  
C    -4.3857480   -3.3967700   -1.3412900  
C    -5.6551640   -2.8434340   -1.2649700  
O    -6.7145900   -3.5031440   -1.8097610  
C    -5.8682180   -1.5955670   -0.6264840  
O    -7.1836160   -1.1918510   -0.6348090  
C    -4.8233190   -0.8445900   -0.0772600  
H    -1.9959990   -0.0982950    0.8803210  
H    -1.5435230   -3.6896870   -1.2502470  
H    -4.2464180   -4.3603840   -1.8201820  
H    -7.5005220   -2.9447600   -1.6753380  
H    -7.2251050   -0.2587310   -0.3587870  
C     3.3270150    1.1226280    1.6683940  
C     3.8371150    2.3693590    1.5271500  
C     4.8145150    2.3151690    0.4596490  
C     4.8193020    0.9091960   -0.0200790  
N     3.8968440    0.2239190    0.7503180  
C     5.6064290    0.4474690   -1.0343340  
C     6.5057350    1.3876910   -1.7006020  
O     7.2276260    1.0715000   -2.6331910  
C     6.5319850    2.8737240   -1.1894210  
O     7.2984320    3.6673110   -1.7104740  
C     5.6231990    3.2510550   -0.1002740  
H     3.5719420    3.2417130    2.1066020  
H     5.5352750   -0.5617020   -1.4299550  
H     5.6339400    4.2869170    0.2254720  
H     2.5871400    0.7493510    2.3631850  
C    -6.0823770    0.8185130    1.4077580  
C    -5.0960180    0.4620930    0.5306280  
C    -4.3887340    1.7382940    0.2652020  
C    -5.1035520    2.7404490    1.1049850  
N    -6.0874370    2.1952830    1.7656910  
C    -4.7127590    4.1258190    1.1243190  
C    -3.6856370    4.5064030    0.3266100  
O    -3.2205670    5.7637700    0.2429460  
C    -2.9662130    3.5245310   -0.5534400  
O    -2.0408850    3.9422780   -1.2473170  
C    -3.3821620    2.1036860   -0.5497920  
H    -5.2448330    4.8296990    1.7546710  
H    -2.4885500    5.7303400   -0.4110050  
H    -2.8377710    1.4229970   -1.1964180  
H    -6.8104080    0.1635600    1.8737760  
