64


C    -1.0614680   -1.2499190    0.3797200  
C    -2.2340130   -0.5173350    0.3494790  
C    -3.3299240   -1.4362990    0.4288240  
C    -2.7662920   -2.7370790    0.5139920  
N    -1.3935250   -2.5972320    0.4461210  
C    -3.5346840   -3.8952820    0.6465880  
C    -4.9147030   -3.7512630    0.6932170  
O    -5.7059550   -4.8554980    0.8039950  
C    -5.5119760   -2.4720660    0.6086900  
O    -6.8849720   -2.4989400    0.6346880  
C    -4.7492320   -1.3011220    0.4680720  
H    -2.2806270    0.5597910    0.2806840  
H    -0.7303680   -3.3191920    0.6853490  
H    -3.0987180   -4.8873180    0.7072390  
H    -6.6298040   -4.5501930    0.7764430  
H    -7.2271560   -1.6400870    0.3223920  
C     0.8127780    0.3350860    0.9498250  
C     0.3237080   -0.8157600    0.3668830  
C     1.4600870   -1.4820730   -0.2350120  
C     2.5950710   -0.6729750    0.0127490  
N     2.1639640    0.4327720    0.7197210  
C     3.9050750   -1.0002260   -0.4114440  
C     4.0230230   -2.2299960   -1.0709940  
O     5.2534850   -2.6698250   -1.4906790  
C     2.8952600   -3.0403020   -1.3462160  
O     3.2055520   -4.1972530   -2.0367630  
C     1.6185730   -2.6825970   -0.9551790  
H     2.7892950    1.0875640    1.1658110  
H     5.1094160   -3.5019060   -1.9754020  
H     2.3913010   -4.6295120   -2.3335870  
H     0.7679780   -3.3110850   -1.2074250  
H     0.2923020    1.0834000    1.5302130  
C     5.0380200   -0.1084350   -0.1723860  
C     5.0691940    1.2683990    0.0060840  
C     6.4316050    1.6507330    0.2069440  
C     7.2059210    0.4607640    0.1441490  
N     6.3378690   -0.5838570   -0.0739060  
C     8.5991980    0.4579770    0.2907970  
C     9.2221820    1.6772030    0.5034020  
O    10.5778150    1.7328350    0.6520060  
C     8.4634860    2.8782350    0.5695940  
O     9.2301990    4.0080360    0.7885540  
C     7.0896020    2.8792780    0.4262540  
H     4.2283890    1.9410090   -0.0929040  
H     6.5889600   -1.5363960   -0.2931900  
H     9.1944550   -0.4479960    0.2429010  
H    10.8143360    2.6671620    0.7833010  
H     8.6586540    4.7898490    0.7946030  
H     6.5315460    3.8122050    0.4803280  
C    -5.4113210   -0.0157760    0.3143620  
C    -6.5978470    0.4544100    0.8406950  
C    -6.8198790    1.7856310    0.3361910  
C    -5.6782940    2.0762990   -0.5653370  
N    -4.8485820    0.9719370   -0.5006990  
C    -5.5367970    3.2190700   -1.2815990  
C    -6.5558520    4.2567480   -1.1397280  
O    -6.5080140    5.3201390   -1.7393510  
C    -7.7561640    3.9872040   -0.1596380  
O    -8.6112870    4.8504570   -0.0244720  
C    -7.8034620    2.7053870    0.5413250  
H    -7.1758750   -0.0235680    1.6198130  
H    -4.6981640    3.4101920   -1.9442980  
H    -8.6455820    2.5246140    1.2026020  
H    -4.0982440    0.7829940   -1.1491620  
