64


C     1.2405650    2.5165520   -0.0332340  
C     1.8646810    3.7285050   -0.1920350  
C     3.2770090    3.4802930   -0.1084040  
C     3.4520090    2.0869070    0.0765930  
N     2.1914610    1.5156330    0.1087720  
C     4.7203050    1.4679570    0.2027200  
C     5.8265040    2.3349480    0.1791780  
O     7.0860730    1.8404300    0.3189020  
C     5.6609710    3.7274710   -0.0149880  
O     6.8540950    4.4225080   -0.0388410  
C     4.4142240    4.3067130   -0.1679760  
H     1.3760960    4.6737500   -0.3796990  
H     1.9946930    0.5928950    0.4711280  
H     7.7007290    2.5896310    0.2199830  
H     6.6862900    5.3577150   -0.2263890  
H     4.3196860    5.3803360   -0.3151200  
C    -1.0833130    2.9669620    0.6808810  
C    -2.2993480    2.3534720    0.5874120  
C    -2.1130870    1.1370690   -0.1562420  
C    -0.7404550    1.0654850   -0.4952540  
N    -0.1160030    2.2002560    0.0294420  
C    -0.1977300    0.0070610   -1.2335650  
C    -1.0547080   -1.0182340   -1.6015270  
O    -0.5702260   -2.0715820   -2.3187920  
C    -2.4279620   -0.9813360   -1.2577270  
O    -3.1412000   -2.0686490   -1.7153680  
C    -2.9868370    0.0867170   -0.5460320  
H    -3.2211460    2.7082230    1.0242820  
H     0.8387340   -0.0295980   -1.5447560  
H    -1.3222920   -2.6598260   -2.5092520  
H    -4.0940260   -1.8984660   -1.5928910  
H    -0.7885300    3.8767580    1.1826580  
C    -4.4202930    0.1265360   -0.2522100  
C    -5.3167440    1.1677140   -0.2845880  
C    -6.6140480    0.6514940    0.0528510  
C    -6.4596170   -0.7355080    0.2873830  
N    -5.1268570   -1.0632780    0.0357740  
C    -7.5192850   -1.5604210    0.6723380  
C    -8.7691500   -0.9723820    0.8127350  
O    -9.8371330   -1.7312550    1.1902250  
C    -8.9480280    0.4129860    0.5597600  
O   -10.2483660    0.8461630    0.7293760  
C    -7.8938810    1.2251410    0.1810380  
H    -5.0822580    2.1814390   -0.5788120  
H    -4.6717200   -1.8191890    0.5345060  
H    -7.4039860   -2.6234760    0.8575470  
H   -10.6114850   -1.1435540    1.2263900  
H   -10.3000140    1.7966440    0.5504020  
H    -8.0541990    2.2854520   -0.0036730  
C     4.8692170    0.0255640    0.3291660  
C     5.8507010   -0.7347500    0.9053630  
C     5.5019400   -2.1230150    0.7547750  
C     4.2206750   -2.1457820    0.0128710  
N     3.8335280   -0.8166340   -0.1598100  
C     3.5856770   -3.2704700   -0.3917660  
C     4.1816300   -4.5622820   -0.0455650  
O     3.6788730   -5.6291000   -0.3621320  
C     5.5178010   -4.5644920    0.7852480  
O     6.0162070   -5.6381710    1.0924810  
C     6.1111610   -3.2785030    1.1429270  
H     6.7234470   -0.3485900    1.4076190  
H     2.6486240   -3.2641890   -0.9415480  
H     7.0445710   -3.2903960    1.6974630  
H     3.3317910   -0.5503850   -0.9986760  
