62


C     1.6058290   -0.4161160   -1.4841050  
C     2.6631850   -0.1442650   -0.6264400  
C     2.2336010    0.9837540    0.1850680  
C     0.9100280    1.3045580   -0.2085440  
N     0.5630730    0.4275420   -1.2194000  
C     0.1588320    2.3821650    0.3150760  
C     0.8431810    3.1705870    1.2396560  
O     0.2218960    4.2714850    1.7970170  
C     2.1755050    2.8973310    1.6248950  
O     2.6809720    3.7984740    2.5432560  
C     2.8759770    1.8175440    1.1214010  
H    -0.3257100    0.4402030   -1.6980080  
H     0.8637580    4.6862700    2.4022400  
H     3.6173230    3.6105740    2.7048000  
H     3.9030550    1.6403980    1.4258740  
H     1.5418160   -1.1545700   -2.2668600  
C    -3.4369420   -0.3116360   -0.0823180  
C    -2.1837330    0.2307110    0.2089600  
C    -2.1964730    1.5999000   -0.1897140  
C    -3.4971820    1.8588640   -0.7111870  
N    -4.2107880    0.6890980   -0.6472040  
C    -3.8956910    3.1218370   -1.1620020  
C    -2.9658860    4.1428440   -1.0575550  
O    -3.2846850    5.4017940   -1.4527510  
C    -1.6551820    3.9124510   -0.5421640  
O    -0.8577960    5.0349030   -0.5444360  
C    -1.2317760    2.6506150   -0.1290200  
H    -1.3916420   -0.2557500    0.7580300  
H    -5.1946410    0.5446190   -0.8409040  
H    -4.8865710    3.3230660   -1.5544990  
H    -2.4948090    5.9452520   -1.2665560  
H    -0.3762520    5.0635890    0.3107070  
C    -1.4090440   -4.1548270    0.6050770  
C    -2.4959420   -4.9454190    0.8008190  
C    -3.6689550   -4.1120100    0.6498130  
C    -3.1716010   -2.7531680    0.3653770  
N    -1.7913400   -2.8348480    0.3863030  
C    -3.9584460   -1.6470080    0.1270610  
C    -5.4121000   -1.9141490    0.0623420  
O    -6.2327040   -1.0785660   -0.2982560  
C    -5.9608810   -3.3379020    0.4592570  
O    -7.1734880   -3.4846360    0.5090410  
C    -5.0026550   -4.3948770    0.7236290  
H    -2.4915430   -6.0026720    1.0226540  
H    -5.3824870   -5.3828260    0.9628140  
H    -0.3582260   -4.4124460    0.6159920  
H    -1.1910430   -2.1206870   -0.0003960  
C     5.4798330   -1.3969630    2.6182530  
C     4.4037520   -0.9396100    1.9286910  
C     4.6826960   -1.1108340    0.5139890  
C     6.0222050   -1.7346590    0.4409110  
N     6.4653470   -1.8460100    1.7434500  
C     6.6589160   -2.1194710   -0.7005390  
C     5.9591290   -1.9413040   -1.9527880  
O     6.4199400   -2.2351250   -3.0472780  
C     4.4978980   -1.3519700   -1.9061290  
O     3.8588030   -1.3503840   -2.9441600  
C     3.9405970   -0.8428720   -0.6151080  
H     3.4943360   -0.5479380    2.3565230  
H     7.6515800   -2.5583250   -0.7124090  
H     5.6413640   -1.4520380    3.6865860  
H     7.3200930   -2.3053690    2.0159470  
