58


C     1.1666590    2.1893790   -1.5234750  
C     2.2038980    1.3434330   -1.3139800  
C     1.9583920    0.6482580   -0.0665030  
C     0.6633010    1.1613310    0.4368680  
N     0.2101190    2.0859090   -0.5007250  
C     0.0769210    0.7701690    1.6023040  
C     0.7455310   -0.2441260    2.4064430  
O     0.2714660   -0.6945590    3.4382930  
C     2.1465370   -0.7615770    1.9286450  
O     2.7875360   -1.4751370    2.6758870  
C     2.6821090   -0.2903320    0.6192220  
H     3.0467450    1.1967950   -1.9724620  
H    -0.8440520    1.1961650    1.9841570  
H     0.9899870    2.8776800   -2.3362300  
C    -3.9525770    0.9403170    0.1979260  
C    -4.4820990    2.2033520    0.2436180  
C    -3.4293280    3.1458020   -0.0243280  
C    -2.2051510    2.3339780   -0.2187040  
N    -2.5852250    1.0107130   -0.1354490  
C    -0.9629890    2.8664730   -0.4177750  
C    -0.8532760    4.3275350   -0.5628470  
O     0.2063610    4.8807800   -0.8097570  
C    -2.1594220    5.1905220   -0.4168980  
O    -2.0619720    6.4014100   -0.5437490  
C    -3.4130360    4.5048320   -0.1346340  
H    -5.5265770    2.4454810    0.3780850  
H    -4.3033680    5.1122300   -0.0079310  
H    -1.9334860    0.2680150    0.0858850  
C    -5.6173540   -0.5731260    1.2918020  
C    -4.5823230   -0.3399990    0.4211950  
C    -4.2718190   -1.6235140   -0.2104460  
C    -5.2131250   -2.6056690    0.3781480  
N    -6.0008140   -1.8917350    1.2727240  
C    -5.2604270   -3.9203520    0.0590280  
C    -4.3289010   -4.4211880   -0.9549370  
O    -4.2996790   -5.5876690   -1.3072730  
C    -3.3465440   -3.3936870   -1.6214870  
O    -2.5894050   -3.7754180   -2.4965150  
C    -3.3868530   -1.9941520   -1.1711030  
H    -5.9613000   -4.6204930    0.5028710  
H    -2.7099540   -1.2984970   -1.6560460  
H    -6.1037360    0.1280050    1.9571770  
H    -6.6957890   -2.3010320    1.8790580  
C     6.5107450    1.7140400   -0.3308790  
C     7.2663510    0.6240170   -0.6181680  
C     6.4153070   -0.5395970   -0.4766300  
C     5.0789590   -0.0280510   -0.0823440  
N     5.2059580    1.3446750   -0.0161970  
C     3.9872180   -0.8082290    0.1825600  
C     4.1549540   -2.2679140    0.0067980  
O     3.2239680   -3.0485570    0.0935680  
C     5.5744650   -2.8261400   -0.3681160  
O     5.7263350   -4.0343740   -0.4488040  
C     6.6542940   -1.8710500   -0.6144160  
H     8.3105390    0.6198180   -0.8944450  
H     7.6282590   -2.2675510   -0.8844450  
H     6.7874340    2.7600050   -0.3203260  
H     4.4656300    1.9762030    0.2476620  
