62


C    -1.2010170   -1.8761200   -0.0699860  
C    -1.9515540   -0.7067850   -0.1749880  
C    -3.3179110   -1.0780240   -0.2212100  
C    -3.3630250   -2.5088800   -0.1326520  
N    -2.0746040   -2.9534540   -0.0412010  
C    -4.5559830   -3.2370840   -0.1379090  
C    -5.7337620   -2.5136750   -0.2324600  
O    -6.9291750   -3.1622880   -0.2682720  
C    -5.7134970   -1.0940250   -0.2932730  
O    -6.9861030   -0.5234380   -0.3425070  
C    -4.5411910   -0.3434840   -0.2817780  
H    -1.5432310    0.2899810   -0.2389560  
H    -1.7408300   -3.9046280    0.0299220  
H    -4.5865250   -4.3200720   -0.0875030  
H    -7.6145060   -2.4845010   -0.4078530  
H    -6.9432740    0.2796930   -0.8890230  
C     0.2037830   -2.1149990    0.0048500  
C     1.2696600   -1.2396990   -0.0462570  
C     2.4452400   -2.0426660    0.0683340  
C     1.9245020   -3.4311160    0.1762100  
N     0.6191710   -3.4745260    0.1471670  
C     2.7902500   -4.5785200    0.2845600  
C     4.1198600   -4.3555480    0.2493580  
O     5.0500590   -5.3231040    0.3084870  
C     4.6948340   -2.9654850    0.1251430  
O     5.9333010   -2.9176840    0.0621470  
C     3.8106260   -1.7780370    0.0910800  
H     1.2112160   -0.1743640   -0.2032910  
H     2.3709490   -5.5748270    0.3681100  
H     5.9110380   -4.8530570    0.2443570  
C     4.3985060   -0.4596360    0.0949570  
C     3.8057450    0.7922410    0.2953020  
C     4.8222990    1.7739960    0.2168840  
C     6.0481520    1.0847350   -0.0308860  
N     5.7610440   -0.2511930   -0.1007100  
C     7.2724550    1.7515410   -0.1626290  
C     7.2614110    3.1319310   -0.0442580  
O     8.4204470    3.8334400   -0.1646230  
C     6.0448400    3.8385260    0.2028750  
O     6.2142190    5.2056880    0.2920170  
C     4.8405340    3.1838720    0.3344820  
H     2.7658640    0.9694000    0.5186410  
H     6.4094090   -1.0206190   -0.1988610  
H     8.2074900    1.2351550   -0.3518180  
H     8.2015570    4.7761340   -0.0611350  
H     5.3534070    5.6324410    0.4159210  
H     3.9245630    3.7403300    0.5214990  
C    -6.7395590    2.5563900    2.2188530  
C    -6.2473590    3.7184310    1.7188870  
C    -5.3228080    3.3722520    0.6607180  
C    -5.3170180    1.8887030    0.5865160  
N    -6.1714540    1.4563340    1.5833850  
C    -4.5714540    1.1371630   -0.2887710  
C    -3.7526030    1.9049640   -1.2560780  
O    -3.1166240    1.3778110   -2.1526450  
C    -3.7008820    3.4761180   -1.1458940  
O    -2.9507260    4.0834670   -1.8944280  
C    -4.5456010    4.1331420   -0.1559800  
H    -6.4875700    4.7172530    2.0528130  
H    -4.5158360    5.2168550   -0.0982080  
H    -7.4578060    2.4008430    3.0132420  
H    -6.5530230    0.5214120    1.6062580  
