60


C     1.0631940   -1.3846960   -0.3587520  
C     0.3365850   -0.3584280    0.2192470  
C     1.3099410    0.6605270    0.5748400  
C     2.5861500    0.1649320    0.2166310  
N     2.4010650   -1.0817580   -0.3466810  
C     3.7935910    0.8829810    0.4093350  
C     3.6453570    2.1711120    0.9449980  
O     4.7344960    2.9758220    1.1316190  
C     2.3772420    2.6710900    1.3231960  
O     2.4280660    3.9417370    1.8603630  
C     1.2206080    1.9349480    1.1642590  
H     3.1155370   -1.5805210   -0.8565340  
H     4.4055150    3.8214460    1.4890580  
H     1.5349260    4.3152970    1.9056310  
H     0.2603700    2.3561450    1.4383740  
H     0.7112720   -2.2963170   -0.8189900  
C    -2.4913630   -3.5961160    1.3208380  
C    -1.3826590   -2.8483530    1.0878700  
C    -1.8186020   -1.5080710    0.7484820  
C    -3.2935700   -1.5335480    0.8247440  
N    -3.6380370   -2.8197910    1.1901090  
C    -4.1404530   -0.4805500    0.5816000  
C    -3.4915330    0.7859530    0.2420190  
O    -4.0998070    1.8283000    0.0528230  
C    -1.9180010    0.8401640    0.1366300  
O    -1.4248670    1.9098730   -0.1810910  
C    -1.1134990   -0.3751700    0.4034900  
H    -0.3607130   -3.1825970    1.1751550  
H    -2.5739420   -4.6377910    1.6007660  
H    -4.5842500   -3.1687370    1.1566840  
C    -6.2845800   -1.1051730    1.7706150  
C    -5.5994630   -0.5683980    0.7161820  
C    -6.6171750   -0.1183430   -0.2408460  
C    -7.9325490   -0.4506220    0.3579140  
N    -7.6573860   -1.0579260    1.5690110  
C    -9.1345030   -0.1906140   -0.2164990  
C    -9.1507380    0.4466060   -1.5288890  
O   -10.1798980    0.7174840   -2.1285030  
C    -7.7685480    0.7853460   -2.1962810  
O    -7.7551880    1.2937760   -3.3050340  
C    -6.5360950    0.4703040   -1.4596560  
H   -10.0841670   -0.4388590    0.2475920  
H    -5.5940520    0.7455830   -1.9193990  
H    -5.8911820   -1.5093200    2.6947550  
H    -8.3523110   -1.3131110    2.2533400  
C     5.0910480    0.3125140    0.0681030  
C     5.4702290   -1.0098440   -0.0220800  
C     6.8606830   -1.0546810   -0.3874670  
C     7.2938500    0.3594390   -0.5141190  
N     6.1803700    1.1267510   -0.2487160  
C     8.5546720    0.7482940   -0.8328700  
C     9.5601360   -0.2831460   -1.0713770  
O    10.7196980   -0.0279370   -1.3609730  
C     9.1218150   -1.7895390   -0.9483490  
O     9.9525420   -2.6640260   -1.1495920  
C     7.7333950   -2.0799000   -0.5976290  
H     4.8692270   -1.8665880    0.2440900  
H     8.8542810    1.7881460   -0.9201010  
H     7.4440030   -3.1231790   -0.5123230  
H     6.1720830    2.1251340   -0.0981110  
