60


C     1.0241020    1.6654240   -0.2150410  
C    -0.3537730    1.5151510   -0.3916850  
C    -0.6336270    0.1195750   -0.4427870  
C     0.6099320   -0.5554900   -0.2920900  
N     1.5853690    0.4004080   -0.1722260  
C     0.7379160   -1.9599570   -0.2859620  
C    -0.4527920   -2.6757650   -0.4135740  
O    -0.4256500   -4.0301260   -0.3672670  
C    -1.7067800   -2.0205110   -0.5616930  
O    -2.7575640   -2.9021390   -0.6941980  
C    -1.8311350   -0.6354840   -0.5874010  
H    -1.0898360    2.3056260   -0.3614600  
H     2.5662570    0.2618210    0.0388950  
H    -1.3275910   -4.3502430   -0.5450140  
H    -3.5876640   -2.4171050   -0.8210250  
C     0.2827370    5.8703910   -1.2653290  
C     1.4048650    6.4300570   -0.7441340  
C     2.2009090    5.3603950   -0.1817320  
C     1.4342480    4.1215730   -0.4040420  
N     0.2580650    4.4983640   -1.0280180  
C     1.8386210    2.8532510   -0.0522950  
C     3.2075410    2.7678320    0.5044180  
O     3.7839070    1.7068610    0.7122510  
C     3.9917040    4.0917030    0.8500560  
O     5.0605540    3.9798220    1.4330540  
C     3.4145230    5.3591950    0.4439970  
H     1.6620780    7.4793080   -0.7481000  
H     3.9739090    6.2665690    0.6469420  
H    -0.5421040    6.3398240   -1.7850170  
H    -0.3169150    3.8388410   -1.5323830  
C    -3.4551050    0.9496810   -1.7220990  
C    -3.1413100    0.0145160   -0.7770060  
C    -4.3602210   -0.1887270    0.0077260  
C    -5.3936210    0.7035280   -0.5753330  
N    -4.7708770    1.3783570   -1.6083000  
C    -6.6719960    0.7943830   -0.1310760  
C    -7.0722450   -0.0291550    1.0079170  
O    -8.2010780   -0.0186250    1.4724740  
C    -5.9885240   -0.9631690    1.6600460  
O    -6.2963050   -1.6434330    2.6247510  
C    -4.6402710   -0.9809260    1.0783160  
H    -7.4132360    1.4529560   -0.5735040  
H    -3.9001800   -1.6258220    1.5416180  
H    -2.8194050    1.3521700   -2.4997220  
H    -5.2345640    2.0067470   -2.2457610  
C     4.0225120   -1.8518060    2.7145850  
C     2.8494430   -1.6828160    2.0514510  
C     2.9262190   -2.4609000    0.8316250  
C     4.2562370   -3.1203310    0.8505890  
N     4.8679790   -2.7068050    2.0173900  
C     4.7184590   -3.9683220   -0.1039810  
C     3.8558340   -4.2544970   -1.2400200  
O     4.1556950   -5.0339620   -2.1320570  
C     2.4721290   -3.5109210   -1.3291690  
O     1.8120130   -3.6409040   -2.3441830  
C     2.0445980   -2.6436890   -0.1999840  
H     2.0141950   -1.0810230    2.3751050  
H     5.6881420   -4.4539410   -0.0544320  
H     4.3441770   -1.4274880    3.6562910  
H     5.7996370   -2.9655870    2.3012820  
