58


C     3.1468260   -0.3750240   -0.1325280  
C     2.9331140   -1.7085420   -0.3743930  
C     4.2115360   -2.3603680   -0.4682160  
C     5.2267850   -1.2982220   -0.2633110  
N     4.5218810   -0.1287740   -0.0135950  
C     6.5653840   -1.4965440   -0.3233750  
C     7.0551400   -2.8523050   -0.5780410  
O     8.2431450   -3.1240340   -0.6465340  
C     5.9974410   -4.0017910   -0.7597240  
O     6.3923350   -5.1407780   -0.9618800  
C     4.5800320   -3.6535170   -0.6888190  
H     1.9684890   -2.1933560   -0.4241620  
H     7.2959860   -0.7062570   -0.1801400  
H     3.8583360   -4.4517480   -0.8339820  
H     4.9257550    0.7906720   -0.1195910  
C     0.9521700    0.7245310   -0.5901590  
C     2.1858050    0.6966850    0.0031210  
C     2.3149460    1.9455140    0.7502160  
C     1.0567930    2.6929860    0.5235220  
N     0.2619020    1.8919660   -0.3149960  
C     0.7626760    3.8822140    1.0954820  
C     1.7638610    4.5042180    1.9678610  
O     1.5855950    5.5821480    2.5086750  
C     3.1069090    3.7352880    2.2157020  
O     3.9525530    4.2277830    2.9431570  
C     3.2871710    2.4319800    1.5646410  
H    -0.1693580    4.4111660    0.9376460  
H     4.1954570    1.8854670    1.7955430  
H     0.5066320   -0.0055780   -1.2520620  
C    -3.6021570   -0.2845870   -0.2385650  
C    -2.2773690    0.0409520   -0.0251330  
C    -2.0785480    1.3036570   -0.6764400  
C    -3.4042320    1.6149270   -1.2994790  
N    -4.2853070    0.6969420   -1.0382080  
C    -3.6213220    2.8104540   -2.0719680  
C    -2.5888530    3.6749990   -2.1998560  
O    -2.6563050    4.8320280   -2.8720940  
C    -1.2331890    3.4041860   -1.5968450  
O    -0.3368700    4.2145610   -1.8240550  
C    -1.0343200    2.1747380   -0.7986050  
H    -1.5722950   -0.4738700    0.6109470  
H    -4.5941380    3.0023030   -2.5097890  
H    -1.7579900    5.2263230   -2.8227800  
C    -2.4322990   -4.5205500    0.4942300  
C    -2.4285720   -3.1907210    0.1825360  
C    -3.7605420   -2.6901920    0.3930620  
C    -4.5602250   -3.8526900    0.8416440  
N    -3.6859550   -4.9244850    0.9037040  
C    -5.8940410   -3.8390050    1.0913850  
C    -6.6127090   -2.5824340    0.9057010  
O    -7.8230480   -2.4874890    1.0202150  
C    -5.7789060   -1.2975010    0.5716320  
O    -6.3276970   -0.2202260    0.6873940  
C    -4.3352290   -1.4422550    0.2178980  
H    -1.5808260   -2.6316680   -0.1788720  
H    -6.4573740   -4.7190300    1.3864640  
H    -1.6189820   -5.2332240    0.4556540  
H    -3.9494640   -5.8691610    1.1387210  
