60


C    -3.4998690    0.6004350   -1.8508280  
C    -4.8011710    0.9765550   -1.7907720  
C    -5.3815560    0.3352930   -0.6307110  
C    -4.2939680   -0.4620940   -0.0124580  
N    -3.1575540   -0.2603910   -0.8007690  
C    -4.4344510   -1.1840760    1.1255820  
C    -5.7412900   -1.1991730    1.7825960  
O    -5.9545670   -1.8100340    2.8182500  
C    -6.9133210   -0.3802890    1.1297950  
O    -8.0113540   -0.3852280    1.6643590  
C    -6.6293750    0.3724660   -0.0936810  
H    -5.3163490    1.6180110   -2.4913500  
H    -3.6341420   -1.7651040    1.5685480  
H    -7.4379030    0.9517260   -0.5294410  
H    -2.7426060    0.8500340   -2.5821370  
C     0.7883850    1.6143240   -0.3242920  
C    -0.5702180    1.3605100   -0.4527090  
C    -0.7501730   -0.0529700   -0.5003470  
C     0.5948640   -0.6534940   -0.3790670  
N     1.4696140    0.4012010   -0.2916590  
C     0.8820530   -2.0008390   -0.3589690  
C    -0.2661360   -2.8773120   -0.5964610  
O    -0.1739480   -4.0923750   -0.7662690  
C    -1.7231180   -2.2844570   -0.6723400  
O    -2.6545880   -3.0579460   -0.8209290  
C    -1.8794150   -0.8308420   -0.6197040  
H    -1.3638040    2.0883860   -0.4262240  
H     2.4610870    0.3416220   -0.0855960  
C    -0.3563900    5.8373190   -1.2284760  
C    -0.3179960    4.4732350   -1.1566610  
C     0.9160830    4.1035680   -0.5194940  
C     1.6139470    5.3786080   -0.2325030  
N     0.7734550    6.3895360   -0.6648390  
C     2.8334390    5.4969980    0.3510360  
C     3.5425460    4.2739520    0.6930110  
O     4.6281770    4.2582660    1.2485990  
C     2.8791690    2.9038870    0.3135950  
O     3.5677550    1.9015020    0.4431270  
C     1.4826880    2.8786530   -0.1887830  
H    -1.0669620    3.8105450   -1.5567690  
H     3.3018980    6.4497950    0.5763270  
H    -1.1198730    6.4754700   -1.6533470  
H     0.9944870    7.3729740   -0.6350750  
C     3.9704020   -1.0577080    2.7629230  
C     2.8059720   -1.1434610    2.0420840  
C     3.0511700   -2.0275980    0.9350400  
C     4.3979540   -2.4648820    1.0577480  
N     4.9319780   -1.8480970    2.1707360  
C     4.9829030   -3.3906970    0.1893890  
C     4.1760090   -3.9066580   -0.8130180  
O     4.6691240   -4.8304740   -1.6807810  
C     2.8267360   -3.4902950   -0.9669850  
O     2.1835350   -4.0811740   -2.0303260  
C     2.2488310   -2.5228960   -0.1373000  
H     1.8790050   -0.6480900    2.2914760  
H     5.8743450   -1.9712770    2.5061770  
H     6.0086910   -3.7303380    0.2896790  
H     3.9193570   -5.0701820   -2.2593140  
H     1.2843450   -4.3322740   -1.7159040  
H     4.1946450   -0.4937240    3.6569890  
