58


C    -4.8014990    0.6848040    2.1911490  
C    -3.8326110    0.2971290    1.3124490  
C    -4.3752780   -0.7928460    0.5126110  
C    -5.7534700   -1.0040050    1.0124930  
N    -5.9385920   -0.0834820    2.0353040  
C    -6.6108540   -1.9323660    0.5234440  
C    -6.1505290   -2.7935700   -0.5677410  
O    -6.8516980   -3.6556280   -1.0704470  
C    -4.6861010   -2.5912000   -1.1050550  
O    -4.2816090   -3.3045290   -2.0071260  
C    -3.8587150   -1.5433590   -0.4929500  
H    -7.6202900   -2.0728800    0.8974940  
H    -2.8530570   -1.4022320   -0.8760180  
H    -4.7617000    1.4681560    2.9366240  
H    -6.7920680    0.0298490    2.5601280  
C    -1.4737300    0.5885410    2.0937890  
C    -0.3548940    1.2598510    1.7261760  
C    -0.6667970    2.0028130    0.5243100  
C    -2.0876410    1.7086750    0.2209120  
N    -2.5352170    0.8365500    1.2136710  
C    -2.7907030    2.2343670   -0.8121620  
C    -2.1031910    3.1564550   -1.7072930  
O    -2.6516100    3.7111650   -2.6458900  
C    -0.5823540    3.4502760   -1.4462170  
O     0.0205570    4.1370550   -2.2508280  
C     0.0708260    2.8582250   -0.2487210  
H     0.5997750    1.2309260    2.2273060  
H    -3.8380080    2.0179660   -0.9928330  
H    -1.6370530   -0.0780380    2.9303460  
C     3.7120980    0.3636330    0.0993230  
C     4.6817080    1.3179580    0.2357680  
C     3.9820980    2.5798280    0.2266790  
C     2.5337650    2.2077780    0.0691490  
N     2.3891390    0.9164950   -0.0053830  
C     1.4823520    3.2067920    0.0058710  
C     1.8908390    4.5052610    0.1191360  
O     1.0508530    5.5402980    0.1340970  
C     3.3393320    4.9061810    0.2782870  
O     3.5796010    6.1084660    0.3746060  
C     4.3757270    3.8703310    0.3191620  
H     5.7491240    1.1753110    0.3286300  
H     1.6177540    6.3426070    0.1971340  
H     5.4065270    4.1929850    0.4253160  
C     3.8270750   -1.0702880    0.0547710  
C     4.9286290   -1.8891170    0.1530750  
C     4.4697680   -3.2477460    0.0581710  
C     2.9929070   -3.1787230   -0.1092920  
N     2.6749700   -1.8391690   -0.1001350  
C     2.1880940   -4.2648940   -0.2349200  
C     2.7972020   -5.5912450   -0.1962970  
O     2.1525180   -6.6245990   -0.2884980  
C     4.3575610   -5.6876120   -0.0211860  
O     4.8852230   -6.7888910    0.0119210  
C     5.1220390   -4.4441480    0.0990810  
H     5.9520670   -1.5682490    0.2834330  
H     1.1118940   -4.1990140   -0.3603960  
H     6.1983350   -4.5222880    0.2195750  
H     1.7619940   -1.4212110   -0.2074530  
