58


C     3.7065310   -1.4293030   -1.9019420  
C     4.9029750   -2.0654190   -1.8954500  
C     5.6116420   -1.6435250   -0.7067840  
C     4.7181670   -0.6863930   -0.0108600  
N     3.5573490   -0.5900980   -0.7883040  
C     5.0107300   -0.1019890    1.1754170  
C     6.2963180   -0.4093550    1.8046410  
O     6.6331370    0.0599930    2.8800520  
C     7.2705950   -1.3959920    1.0665660  
O     8.3500230   -1.6560650    1.5741750  
C     6.8276390   -1.9789650   -0.2020800  
H     5.2689580   -2.7473730   -2.6495360  
H     4.3532630    0.5961420    1.6794440  
H     7.4933370   -2.6804980   -0.6956840  
H     2.9105770   -1.4667450   -2.6332310  
C    -0.7197530   -1.5954270   -0.6660950  
C     0.6589690   -1.6385460   -0.7183640  
C     1.1550490   -0.3063530   -0.5553440  
C    -0.0270420    0.5627180   -0.4010590  
N    -1.1286570   -0.2780120   -0.4351220  
C    -0.0125600    1.9207390   -0.2656890  
C     1.3201480    2.5550790   -0.1928800  
O     1.4789400    3.7275670    0.0891740  
C     2.6008120    1.6726390   -0.4150610  
O     3.6828120    2.2260740   -0.4987790  
C     2.4305360    0.2133960   -0.5352260  
H     1.2529760   -2.5380640   -0.7851420  
H    -2.0570810    0.0639850   -0.6373130  
C    -1.5151870   -3.8831870   -1.3776870  
C    -1.6752470   -2.6608630   -0.7723100  
C    -3.0549900   -2.6992150   -0.2457740  
C    -3.5568590   -4.0433640   -0.6552400  
N    -2.6416700   -4.7176920   -1.3093480  
C    -4.8779840   -4.4913010   -0.3251230  
C    -5.6687190   -3.6582480    0.3984550  
O    -6.9199630   -3.9513420    0.7744700  
C    -5.1825230   -2.3109790    0.8548700  
O    -5.9466540   -1.6143870    1.5195290  
C    -3.8156240   -1.8712700    0.4964750  
H    -5.2134900   -5.4715880   -0.6443920  
H    -7.2371030   -3.1763990    1.2876410  
H    -3.5039730   -0.9021010    0.8752760  
H    -0.6359210   -4.2362880   -1.9038210  
C    -3.5384870    1.9631980    2.4862990  
C    -2.3620020    1.6647590    1.8693240  
C    -2.2057730    2.5912410    0.7655220  
C    -3.4009190    3.4695970    0.7988970  
N    -4.1741460    3.0208040    1.8554520  
C    -3.6301310    4.5080760   -0.0442250  
C    -2.6366980    4.7895780   -1.0730280  
O    -2.7303690    5.7194960   -1.8578150  
C    -1.3978550    3.8312800   -1.1859750  
O    -0.6508790    3.9533430   -2.1389040  
C    -1.2168200    2.7590060   -0.1693570  
H    -1.6565220    0.9068850    2.1743910  
H    -4.5027280    5.1505960    0.0206570  
H    -3.9921760    1.5025500    3.3539750  
H    -5.0362440    3.4467660    2.1582900  
