62


C    -0.0275480    2.1070650   -0.1122770  
C     1.0682280    1.2508550   -0.1347100  
C     0.5801360   -0.0768280   -0.3137470  
C    -0.8339340    0.0138270   -0.3957760  
N    -1.1650490    1.3395770   -0.2699230  
C    -1.6934990   -1.0994460   -0.5420890  
C    -1.0540370   -2.3466240   -0.5806260  
O    -1.7911340   -3.4822530   -0.7598560  
C     0.3496440   -2.4707160   -0.4874650  
O     0.7828970   -3.7749050   -0.5871550  
C     1.2012090   -1.3593440   -0.3636710  
H     2.1030960    1.5510940   -0.0943390  
H    -2.0933470    1.7327380   -0.3218290  
H    -1.1585850   -4.2182450   -0.8478660  
H     1.7507550   -3.7895780   -0.7153640  
C     2.8140760    4.9348540    1.7482810  
C     2.1402360    6.0895030    1.4554030  
C     0.9403120    5.7126520    0.7626250  
C     0.9506680    4.2984480    0.6495450  
N     2.1145720    3.8524730    1.2430590  
C    -0.0911320    3.5584810    0.0382290  
C    -1.1798790    4.3177770   -0.4125600  
O    -2.2651220    3.6978760   -0.9842310  
C    -1.1995460    5.7287800   -0.3101220  
O    -2.3465980    6.3001410   -0.8294590  
C    -0.1555900    6.4354450    0.2547500  
H     2.4566320    7.0932260    1.7032050  
H     2.2938780    2.8881420    1.4768400  
H    -2.8951850    4.3975690   -1.2334810  
H    -2.3021150    7.2632520   -0.7388350  
H    -0.1928490    7.5205890    0.3211840  
H     3.7498920    4.7844990    2.2678060  
C     2.6422020   -1.5157450   -0.3240940  
C     3.6395210   -0.7058830   -0.7996540  
C     4.9110330   -1.3212960   -0.5294220  
C     4.6090300   -2.5880040    0.1710710  
N     3.2108760   -2.7154990    0.2048590  
C     5.5426940   -3.4306470    0.6651390  
C     6.9566740   -3.0943750    0.4657070  
O     7.8634860   -3.7991940    0.8777480  
C     7.3011920   -1.7815180   -0.3257410  
O     8.4763540   -1.4985810   -0.5105950  
C     6.1959150   -0.9480000   -0.7902310  
H     3.4884010    0.2061640   -1.3585200  
H     5.3048680   -4.3538550    1.1852490  
H     6.4431170   -0.0309920   -1.3164150  
H     2.7884530   -3.1162840    1.0370610  
C    -3.7956620    0.0516410   -1.3700310  
C    -3.1404310   -0.9322440   -0.6836410  
C    -4.2345960   -1.7251710   -0.0775390  
C    -5.4787490   -1.0408530   -0.5348990  
N    -5.2107060   -0.0120890   -1.2919020  
C    -6.7864410   -1.5029310   -0.1499680  
C    -6.8622030   -2.5786530    0.6692710  
O    -8.0110400   -3.1132950    1.1137650  
C    -5.6262920   -3.2767200    1.1639690  
O    -5.7740210   -4.2439170    1.9090370  
C    -4.2944680   -2.7889590    0.7444130  
H    -7.6694860   -0.9858750   -0.5087170  
H    -7.7441800   -3.8701880    1.6805360  
H    -3.4306780   -3.3370750    1.1006040  
H    -3.3516740    0.8343780   -1.9746450  
