58


C    -3.4835710    0.0020280   -0.0201800  
C    -3.6810450    1.2992260    0.4363400  
C    -5.0784010    1.5923590    0.3547430  
C    -5.7262060    0.3707390   -0.1837830  
N    -4.7134630   -0.5371460   -0.3940430  
C    -7.0604220    0.2478630   -0.4001720  
C    -7.9245250    1.3842580   -0.0910690  
O    -9.1347770    1.3657040   -0.2549690  
C    -7.2594890    2.6897020    0.4799260  
O    -7.9662410    3.6519490    0.7427650  
C    -5.8099120    2.7010570    0.6745220  
H    -2.9307170    1.9474290    0.8601830  
H    -7.5193390   -0.6545410   -0.7915110  
H    -5.3608360    3.6062730    1.0722770  
H    -4.8005560   -1.5137880   -0.6495250  
C     0.8546870    1.1069900   -0.1017090  
C    -0.5310310    1.1222870   -0.1409640  
C    -0.9881630   -0.2205440   -0.0602710  
C     0.2280670   -1.0628060    0.0132170  
N     1.2959560   -0.1992870    0.0103480  
C     0.2483520   -2.4339290    0.0361140  
C    -1.0612010   -3.1040540    0.0159590  
O    -1.1983580   -4.3001150    0.1996550  
C    -2.3478400   -2.2452500   -0.2052660  
O    -3.3797020   -2.8542330   -0.4656480  
C    -2.2703960   -0.7772340   -0.0828880  
H    -1.1372350    2.0033700   -0.2748740  
H     2.2782480   -0.4384380    0.0496070  
C     3.8992300   -2.6224750    2.6613750  
C     2.7045910   -2.2297860    2.1502970  
C     2.4744900   -3.1061020    1.0091900  
C     3.6784220   -3.9992230    0.9955280  
N     4.5043640   -3.7070240    1.9612500  
C     3.8356810   -5.0499260    0.0267330  
C     2.8552270   -5.2115360   -0.8919480  
O     2.8770440   -6.1409980   -1.8574650  
C     1.6521780   -4.3064320   -0.9407080  
O     0.8885510   -4.4396160   -1.8894970  
C     1.4674280   -3.2476360    0.1053720  
H     2.0470500   -1.4566370    2.5207820  
H     4.7167510   -5.6813950    0.0492920  
H     2.0658110   -5.9921870   -2.3908780  
H     4.4145370   -2.2161140    3.5239200  
C     1.8187940    2.1658300   -0.1713520  
C     1.6294740    3.5193570   -0.2817840  
C     2.9569750    4.0861280   -0.3092770  
C     3.8727660    2.9032320   -0.2009140  
N     3.2017850    1.7889750   -0.1207510  
C     5.3022540    3.0541660   -0.1932080  
C     5.8007950    4.3108480   -0.2884630  
O     7.1048680    4.6007030   -0.2938450  
C     4.9039830    5.5252350   -0.3996310  
O     5.4503240    6.6233630   -0.4809880  
C     3.4453700    5.3458340   -0.4050240  
H     0.6952070    4.0602920   -0.3377260  
H     5.9440870    2.1840610   -0.1138630  
H     7.1608920    5.5796510   -0.3730600  
H     2.8325700    6.2381000   -0.4865430  
