58


C     7.1793570   -2.6163610    0.9530020  
C     8.2004700   -1.8169230    0.5502830  
C     7.6126250   -0.5867840    0.0685120  
C     6.1407030   -0.7588680    0.2032110  
N     5.9431950   -2.0250150    0.7107460  
C     5.2057130    0.1787720   -0.1621050  
C     5.7534630    1.5122540   -0.5227720  
O     5.0655080    2.5162790   -0.5797740  
C     7.2929370    1.6616320   -0.7902930  
O     7.7001850    2.7074750   -1.2719070  
C     8.1652190    0.5499150   -0.4334480  
H     9.2554580   -2.0467380    0.5853810  
H     9.2340840    0.6702490   -0.5811950  
H     7.2181850   -3.6037100    1.3948730  
H     5.0891350   -2.2109440    1.2423920  
C     2.3608910   -1.7670990    2.6785170  
C     1.1705170   -1.3425940    2.1969750  
C     1.4910090   -0.5923050    0.9924300  
C     2.9909910   -0.6394790    0.9069610  
N     3.4751740   -1.3490520    1.8924070  
C     3.7411720    0.0127110   -0.1526630  
C     2.9702280    0.5175510   -1.1714210  
O     3.4821710    1.0319300   -2.2896610  
C     1.4719220    0.5743340   -1.1274080  
O     0.8997350    1.1576390   -2.0429900  
C     0.7344930   -0.0277580    0.0198340  
H     0.1839100   -1.5319680    2.5936740  
H     2.7218470    1.3881960   -2.8007290  
H     2.5487680   -2.3715520    3.5575720  
C    -2.3607970    1.7670500    2.6786020  
C    -1.1704400    1.3425490    2.1970190  
C    -1.4909720    0.5922720    0.9924750  
C    -2.9909560    0.6394470    0.9070520  
N    -3.4751060    1.3490320    1.8925100  
C    -3.7411700   -0.0127500   -0.1525480  
C    -2.9702630   -0.5175750   -1.1713390  
O    -3.4822310   -1.0319240   -2.2895800  
C    -1.4719510   -0.5743400   -1.1273810  
O    -0.8997880   -1.1576370   -2.0429820  
C    -0.7344880    0.0277210    0.0198560  
H    -0.1838200    1.5319110    2.5936930  
H    -2.7219170   -1.3881790   -2.8006710  
H    -2.5486380    2.3714980    3.5576680  
C    -7.1793600    2.6163720    0.9530460  
C    -8.2004630    1.8170100    0.5501540  
C    -7.6126150    0.5868660    0.0683990  
C    -6.1407030    0.7588570    0.2033100  
N    -5.9431930    2.0249690    0.7109370  
C    -5.2057170   -0.1788230   -0.1619240  
C    -5.7534900   -1.5122750   -0.5226780  
O    -5.0655980   -2.5163490   -0.5795370  
C    -7.2929390   -1.6615580   -0.7904000  
O    -7.7001930   -2.7073890   -1.2720340  
C    -8.1652000   -0.5497810   -0.4336860  
H    -9.2554440    2.0468780    0.5851260  
H    -9.2340650   -0.6701020   -0.5814450  
H    -7.2181940    3.6036930    1.3949780  
H    -5.0892390    2.2107910    1.2427760  
