58


C    -2.2737600   -0.2894210   -0.3085230  
C    -3.0852210    0.8036770   -0.3547560  
C    -2.2250130    1.9662450   -0.1385320  
C    -0.8428200    1.4577760    0.0123590  
N    -0.9304880    0.0483240   -0.0935830  
C     0.2283720    2.2523480    0.2393970  
C     0.0142710    3.7036380    0.3404680  
O     0.9289940    4.4842630    0.5395340  
C    -1.4420370    4.2561180    0.1998180  
O    -1.6459380    5.4552190    0.2906260  
C    -2.5167880    3.2863010   -0.0352760  
H     1.2321080    1.8675150    0.3553650  
H    -3.5283700    3.6729060   -0.0940020  
H    -2.5329050   -1.3248420   -0.4656300  
C     0.0665140   -0.8937670    0.0037410  
C    -0.0767640   -2.2641570    0.0697150  
C     1.2563980   -2.7672550    0.1321580  
C     2.1278240   -1.5368030    0.0895450  
N     1.4097940   -0.4485240    0.0193530  
C     3.5709360   -1.6123890    0.1073020  
C     4.0910350   -2.8722750    0.2021970  
O     5.3907700   -3.1276770    0.2792270  
C     3.2355920   -4.1329430    0.2639700  
O     3.8597940   -5.1939280    0.3494080  
C     1.7950640   -4.0158640    0.2172800  
H    -0.9819300   -2.8515750    0.0988380  
H     5.4521120   -4.1138080    0.3301690  
H     1.2081980   -4.9276800    0.2500430  
C     4.1219120    2.2292930    2.3791350  
C     3.6427490    1.0202620    2.0024590  
C     4.4051990    0.6621050    0.8102960  
C     5.3363590    1.8206460    0.6198620  
N     5.1707810    2.7259680    1.5397410  
C     6.2922040    1.8603180   -0.4562970  
C     6.3224210    0.8096620   -1.3063340  
O     7.1511050    0.7138740   -2.3594120  
C     5.3914910   -0.3639100   -1.1557490  
O     5.4490040   -1.2382810   -2.0155770  
C     4.4301360   -0.4163380   -0.0108380  
H     2.8606370    0.4367150    2.4647310  
H     6.9518860    2.7138340   -0.5651450  
H     6.9232090   -0.1367780   -2.7942350  
H     3.8081890    2.8374420    3.2190900  
C    -5.2392780    1.7824100   -1.2378940  
C    -4.5180680    0.8112850   -0.5937810  
C    -5.4758010   -0.2325180   -0.2269270  
C    -6.7985290    0.2213360   -0.7218030  
N    -6.5780760    1.4499610   -1.3178950  
C    -7.9554720   -0.4710880   -0.5806300  
C    -7.9145350   -1.7588830    0.1105270  
O    -8.9005430   -2.4587320    0.2737230  
C    -6.5305150   -2.2495620    0.6682550  
O    -6.4707950   -3.3122920    1.2637840  
C    -5.3501120   -1.4040480    0.4476440  
H    -8.9131030   -0.1162050   -0.9487370  
H    -4.4099450   -1.7536410    0.8608570  
H    -4.8875510    2.7008090   -1.6871690  
H    -7.2883340    2.0124380   -1.7607340  
