62


C    -0.9963050   -1.1824870    2.4613400  
C    -0.1795410   -0.1696220    2.0406620  
C    -0.8271270    0.4720760    0.9298440  
C    -2.0601280   -0.2032560    0.7328130  
N    -2.1494060   -1.1936970    1.6917210  
C    -2.9941400    0.1288000   -0.2710960  
C    -2.6467810    1.2137270   -1.0770470  
O    -3.5051950    1.6495890   -2.0329550  
C    -1.4350950    1.9264400   -0.8864980  
O    -1.2611100    2.9644950   -1.7816640  
C    -0.4963340    1.5729890    0.0902670  
H     0.7905470    0.0656470    2.4481200  
H    -2.8391480   -1.9290950    1.6837590  
H    -3.0513410    2.3957020   -2.4702810  
H    -1.0409550    3.7713050   -1.2703230  
H    -0.8648440   -1.8987540    3.2602480  
C     3.7450340    0.2668180    0.2767720  
C     4.3866790    1.4773430    0.3507420  
C     3.3511010    2.4787150    0.3701460  
C     2.0754680    1.6907090    0.2865950  
N     2.3076050    0.4173560    0.2379250  
C     0.7607990    2.3407780    0.2355770  
C     0.8055680    3.7014220    0.2738690  
O    -0.3035130    4.4890600    0.2120780  
C     2.0593240    4.5113390    0.3874010  
O     1.9268840    5.7408540    0.4284480  
C     3.3484940    3.8310020    0.4356110  
H     5.4469290    1.6578540    0.4653870  
H     0.0551470    5.4084980    0.2760500  
H     4.2413570    4.4448900    0.5004550  
C     7.3599660   -1.0649670   -1.8477280  
C     7.2764410   -2.3970570   -1.5381610  
C     6.1141160   -2.5635300   -0.7134540  
C     5.5338350   -1.2824170   -0.5451450  
N     6.3198080   -0.3879950   -1.2367090  
C     4.3270360   -1.0575210    0.1674980  
C     3.7315600   -2.1992300    0.7375920  
O     2.6265020   -2.0820180    1.5089580  
C     4.3148990   -3.4838480    0.5820260  
O     3.6110570   -4.4870200    1.2222240  
C     5.4855090   -3.6784680   -0.1239600  
H     7.9591220   -3.1708080   -1.8611120  
H     6.0693550    0.5759490   -1.3980090  
H     2.3299710   -2.9830640    1.7298140  
H     3.9649260   -5.3500110    0.9615210  
H     5.9107860   -4.6754520   -0.2201460  
H     8.0832470   -0.5300200   -2.4465720  
C    -6.3400650   -0.5007610    2.4933130  
C    -7.1710170   -1.2291390    1.7015770  
C    -6.5105180   -1.3990640    0.4241140  
C    -5.2069420   -0.7036140    0.5411070  
N    -5.1607210   -0.1943000    1.8285590  
C    -4.2718470   -0.5907330   -0.4481620  
C    -4.5902340   -1.2670710   -1.7274170  
O    -3.8040470   -1.3324550   -2.6545580  
C    -5.9885180   -1.9769060   -1.8830470  
O    -6.2699210   -2.4788140   -2.9611310  
C    -6.8863110   -2.0108470   -0.7322670  
H    -8.1462700   -1.6076810    1.9709870  
H    -7.8422460   -2.5123850   -0.8484650  
H    -6.4848340   -0.1638640    3.5115840  
H    -4.4175700    0.3924860    2.1760080  
