62


C    -1.1348830    1.6813890   -0.0804300  
C    -1.9863990    0.6333520    0.1787520  
C    -3.3227920    1.0556580   -0.1285340  
C    -3.2354500    2.3920540   -0.5855470  
N    -1.9047700    2.7885980   -0.4902970  
C    -4.3404340    3.1244660   -1.0223910  
C    -5.5734780    2.4900650   -0.9883530  
O    -6.6910450    3.1604020   -1.3892050  
C    -5.6894770    1.1534120   -0.5322050  
O    -6.9879550    0.6859200   -0.5457920  
C    -4.5885670    0.4097110   -0.0956750  
H    -1.6925000   -0.3054680    0.6238730  
H    -1.5160310    3.4956500   -1.1024560  
H    -4.2728520    4.1518900   -1.3648410  
H    -7.4500220    2.5717070   -1.2334740  
H    -7.0249610   -0.1665070   -0.0831070  
C     2.1975990   -1.1612570   -0.9130360  
C     0.9875610   -0.5563980   -0.8010930  
C     1.2003690    0.7504110   -0.2299420  
C     2.5908720    0.8993440   -0.0217300  
N     3.2078660   -0.3055170   -0.4447770  
C     3.1489460    2.0703710    0.4938800  
C     2.2745820    3.1056320    0.8054570  
O     2.7698880    4.2630870    1.3260800  
C     0.8824800    2.9782990    0.6057610  
O     0.1572830    4.0883900    0.9792740  
C     0.3138820    1.8055850    0.0887070  
H     0.0396850   -0.9796090   -1.1000670  
H     4.2114200    2.1789680    0.6543850  
H     2.0086800    4.8349930    1.5282730  
H    -0.7903740    3.8603250    0.9959750  
H     2.4531160   -2.1377300   -1.2917530  
C     4.5341380   -0.6464750   -0.4340210  
C     5.1045540   -1.8387180   -0.8459150  
C     6.4999030   -1.6759020   -0.6279490  
C     6.6311710   -0.2830530   -0.0599500  
N     5.4711550    0.3049430    0.0464340  
C     7.9023120    0.2728040    0.2998740  
C     8.9911470   -0.5114700    0.1079930  
O    10.2417160   -0.1480580    0.3892860  
C     8.8968940   -1.9249070   -0.4637240  
O     9.9736290   -2.5213210   -0.5833000  
C     7.6030280   -2.4596160   -0.8180190  
H     4.6154210   -2.7147340   -1.2433490  
H     7.9706390    1.2756340    0.7061210  
H    10.7864680   -0.9341930    0.1372420  
H     7.5644810   -3.4660050   -1.2220130  
C    -6.3227860   -3.2175260   -2.0045290  
C    -5.8735970   -1.9630490   -1.7397560  
C    -5.3364030   -1.9705000   -0.3928820  
C    -5.5087800   -3.3575630    0.1063810  
N    -6.1275260   -4.0555930   -0.9128810  
C    -5.1052280   -3.8047520    1.3233500  
C    -4.4507450   -2.8590700    2.2132830  
O    -4.0224050   -3.1596870    3.3167800  
C    -4.2820270   -1.3691430    1.7283240  
O    -3.7830230   -0.5711610    2.5010550  
C    -4.7491900   -0.9862010    0.3669920  
H    -5.9027650   -1.1175720   -2.4094480  
H    -5.2332200   -4.8294220    1.6582640  
H    -6.7801030   -3.6053890   -2.9051950  
H    -6.3340780   -5.0418800   -0.8896240  
