62


C    -0.6815350    1.8260470    0.5102930  
C     0.6784840    1.6138380    0.4275970  
C     0.8756070    0.2622130   -0.0037340  
C    -0.4133620   -0.2910500   -0.1751510  
N    -1.3491510    0.6817690    0.1231060  
C    -0.6419430   -1.6221790   -0.5668560  
C     0.4756800   -2.4287790   -0.7638130  
O     0.3248100   -3.7225180   -1.1418870  
C     1.7873910   -1.9145440   -0.5907530  
O     2.7420970   -2.8360600   -0.8370190  
C     2.0314950   -0.5565320   -0.2432080  
H     1.4204260    2.3625140    0.6489030  
H    -2.3308350    0.5136400    0.2899370  
H     1.2253820   -4.0927310   -1.2146800  
H     3.6359430   -2.3976390   -0.6638560  
C    -0.9946140    3.7594670    2.0117770  
C    -1.8859170    4.7807440    2.1644760  
C    -2.8921660    4.6293510    1.1484880  
C    -2.5527140    3.4820280    0.3900240  
N    -1.3813710    2.9495680    0.9396670  
C    -3.3040810    3.0618820   -0.7148940  
C    -4.4333110    3.7990700   -1.0406720  
O    -5.1990220    3.4251500   -2.1057230  
C    -4.7987050    4.9396860   -0.2797270  
O    -5.9467520    5.5623340   -0.7258010  
C    -4.0422620    5.3616630    0.7986200  
H    -1.8422870    5.5490880    2.9241210  
H    -3.0332500    2.2104890   -1.3282950  
H    -5.9288440    4.0646580   -2.1760550  
H    -6.1340440    6.3363640   -0.1743470  
H    -4.3312310    6.2469100    1.3614350  
H    -0.1190380    3.4943540    2.5858770  
C    -2.8680120   -1.5718900   -1.6870870  
C    -4.0544760   -2.2259690   -1.6535330  
C    -3.9469330   -3.2661420   -0.6521390  
C    -2.5765220   -3.1632740   -0.0934300  
N    -1.9576760   -2.1039120   -0.7611460  
C    -2.0931690   -3.9547780    0.8946300  
C    -2.9668700   -4.9919470    1.4412880  
O    -2.6184040   -5.7496540    2.3336060  
C    -4.4188660   -5.1287440    0.8536350  
O    -5.1598790   -5.9914040    1.2985340  
C    -4.8254250   -4.2017110   -0.2051840  
H    -4.9166310   -2.0186990   -2.2708940  
H    -1.0878150   -3.8686540    1.2895700  
H    -5.8339400   -4.2932700   -0.5970080  
H    -2.5491860   -0.7532730   -2.3189340  
C     3.3798650   -0.0609600   -0.1501870  
C     3.8830850    1.2117610    0.0321860  
C     5.3055590    1.0955710    0.0347950  
C     5.5707130   -0.3688210   -0.1658710  
N     4.4505770   -1.0235840   -0.2761220  
C     6.8975720   -0.9066470   -0.2225600  
C     7.9203710   -0.0259690   -0.0909300  
O     9.2085870   -0.3606930   -0.1215950  
C     7.6934090    1.4687720    0.1096040  
O     8.7132100    2.1567340    0.2143120  
C     6.3376520    1.9783050    0.1645720  
H     3.3368520    2.1363530    0.1143470  
H     7.0618970   -1.9687990   -0.3649500  
H     9.6923410    0.4922580   -0.0003480  
H     6.2044200    3.0456560    0.3076830  
