58


C     1.8655750   -4.1906110   -0.2104960  
C     3.0077200   -4.9114120   -0.3284790  
C     4.1113110   -3.9731490   -0.2971730  
C     3.5109400   -2.6280370   -0.1608320  
N     2.1520510   -2.8276610   -0.1303690  
C     4.2133670   -1.4440060   -0.0529960  
C     5.6927710   -1.5575190   -0.1791860  
O     6.4310540   -0.6029940   -0.3143090  
C     6.3389130   -2.9894740   -0.2210980  
O     7.5536320   -3.0868420   -0.1671720  
C     5.4588140   -4.1524930   -0.3373970  
H     3.0868090   -5.9839570   -0.4288720  
H     5.9194750   -5.1324420   -0.4179730  
H     0.8364930   -4.5235020   -0.1905870  
H     1.4877410   -2.0985430    0.0840330  
C     3.5708170   -0.1622720    0.1320180  
C     2.2959930    0.2234820   -0.2436470  
C     2.1617190    1.5952550    0.1728670  
C     3.4690350    1.9046440    0.8279800  
N     4.2754900    0.8821060    0.8151150  
C     3.7493430    3.2027140    1.3808060  
C     2.7939100    4.1531320    1.2558700  
O     2.9202410    5.4080060    1.7055980  
C     1.4478550    3.8694120    0.6272970  
O     0.6147820    4.7703480    0.6768740  
C     1.1657840    2.5252180    0.0619200  
H     1.6130140   -0.2976180   -0.9007390  
H     4.7062150    3.3994080    1.8508660  
H     2.0624670    5.8449350    1.5025810  
C    -1.8998000   -0.4051870    1.1589940  
C    -2.8749190   -0.1131910    0.2475490  
C    -2.3430710    0.9760320   -0.5810650  
C    -0.9892640    1.2719630   -0.0626220  
N    -0.7745590    0.3828530    0.9720370  
C    -0.1627000    2.2663860   -0.5103730  
C    -0.6626010    3.0901150   -1.6305070  
O     0.0142010    3.9434060   -2.1753690  
C    -2.1125540    2.8169630   -2.1657390  
O    -2.5598520    3.5385540   -3.0408250  
C    -2.8800010    1.7064460   -1.5905090  
H    -3.8652770    1.5145180   -1.9986470  
H    -1.9094420   -1.1573510    1.9369160  
H     0.0616370    0.3656900    1.5362930  
C    -5.9474140   -1.0869590    3.3050670  
C    -4.8529570   -0.6143500    2.6520850  
C    -4.9826910   -0.9872410    1.2592580  
C    -6.2658800   -1.7238820    1.1539300  
N    -6.7879540   -1.7656390    2.4325410  
C    -6.7874240   -2.2262710    0.0046600  
C    -6.0390320   -2.0298230   -1.2261160  
O    -6.4222440   -2.4174680   -2.3188240  
C    -4.6583350   -1.2781430   -1.1457400  
O    -4.0052570   -1.1620310   -2.1691590  
C    -4.1855210   -0.7629600    0.1631680  
H    -4.0515710   -0.0389780    3.0895940  
H    -7.7340780   -2.7551930   -0.0429700  
H    -6.2157010   -0.9947820    4.3491760  
H    -7.6836590   -2.1603080    2.6735780  
