62


C    -1.1813370   -0.3010450    3.0875590  
C    -0.3583940    0.5759700    2.4340600  
C    -1.0140610    0.9300460    1.2074170  
C    -2.2401760    0.2164840    1.1674290  
N    -2.3079680   -0.5344490    2.3192620  
C    -3.1851380    0.3410320    0.1171470  
C    -2.8505730    1.2699210   -0.8793670  
O    -3.6905910    1.4821770   -1.9383890  
C    -1.6326970    1.9885740   -0.8513190  
O    -1.4667640    2.8278800   -1.9328060  
C    -0.6905940    1.8369230    0.1664750  
H     0.6012790    0.9323370    2.7781790  
H    -3.1366870   -1.0176010    2.6311990  
H    -3.2389520    2.0993710   -2.5432370  
H    -0.5394320    3.1208170   -1.9672420  
H    -1.0594330   -0.7951260    4.0409230  
C     3.6494290    0.5768360   -0.0503850  
C     2.2563070    0.5959540    0.0078090  
C     1.8555220    1.9528160    0.0740360  
C     3.0470400    2.7464260    0.0479490  
N     4.1057540    1.8874540   -0.0260950  
C     3.0253910    4.1467090    0.0861390  
C     1.7869180    4.7596290    0.1548790  
O     1.7011830    6.1132720    0.2107120  
C     0.5837160    3.9894480    0.1743070  
O    -0.5541970    4.7582370    0.2566270  
C     0.5855070    2.5992520    0.1312580  
H     1.6134130   -0.2722460    0.0087830  
H     5.0927880    2.1038740   -0.0612260  
H     3.9263830    4.7503380    0.0727540  
H     0.7595550    6.3451630    0.2984270  
H    -1.3169700    4.1830090    0.4385700  
C    -4.4084000   -0.4509420    0.0798920  
C    -4.6819150   -1.6643420    0.6726630  
C    -6.0304960   -2.0350640    0.3357340  
C    -6.5541180   -0.9370930   -0.5147070  
N    -5.5403600   -0.0082570   -0.6096860  
C    -7.7978190   -0.9159780   -1.0580840  
C    -8.6912290   -2.0395600   -0.7917210  
O    -9.8268080   -2.1074120   -1.2381450  
C    -8.1599110   -3.2113640    0.1143490  
O    -8.8986510   -4.1565500    0.3500890  
C    -6.7984560   -3.1189770    0.6385800  
H    -3.9808950   -2.2865700    1.2086960  
H    -8.1635990   -0.1047210   -1.6799790  
H    -6.4417110   -3.9360110    1.2586850  
H    -5.5118770    0.7680180   -1.2546610  
C     4.5963830   -0.4879210   -0.1254710  
C     4.4182540   -1.8509940   -0.1644890  
C     5.7342470   -2.4107620   -0.2393020  
C     6.6509390   -1.2159700   -0.2369320  
N     5.9831580   -0.1003660   -0.1705560  
C     8.0800150   -1.3613540   -0.3022960  
C     8.5740740   -2.6205500   -0.3666930  
O     9.8748700   -2.9187390   -0.4320050  
C     7.6764560   -3.8477310   -0.3709260  
O     8.2489500   -4.9397950   -0.4325330  
C     6.2346930   -3.6757210   -0.3040630  
H     3.4847050   -2.3954050   -0.1442700  
H     8.7214580   -0.4871900   -0.2993670  
H     9.9035130   -3.9043610   -0.4673690  
H     5.6209780   -4.5708660   -0.3093130  
