58


C    -1.1237740   -0.3248370   -1.8057930  
C     0.1328360   -0.7834090   -1.6096660  
C     0.1278330   -1.5808380   -0.4035080  
C    -1.2695820   -1.5625980    0.0933170  
N    -2.0015010   -0.7925810   -0.8080950  
C    -1.6860450   -2.1785690    1.2334630  
C    -0.7107640   -2.9455380    1.9988280  
O    -1.0016780   -3.5700680    3.0074320  
C     0.7807040   -2.9610970    1.5074720  
O     1.6083930   -3.5366620    2.1898810  
C     1.1287150   -2.2355060    0.2590060  
H     0.9897200   -0.5773490   -2.2311160  
H    -2.6921880   -2.1009280    1.6288570  
H    -1.5128800    0.3112590   -2.5857550  
C     3.7534960    1.2388000   -0.2659570  
C     4.9517040    0.6305460   -0.5794190  
C     4.6923650   -0.7766480   -0.5813560  
C     3.2313660   -0.8874320   -0.2396110  
N     2.6989860    0.2817320   -0.0503710  
C     2.5476190   -2.1646610   -0.1425250  
C     3.3174920   -3.2661800   -0.3727130  
O     2.8507690   -4.5131720   -0.3672430  
C     4.7965970   -3.1861090   -0.7116740  
O     5.3661830   -4.2638880   -0.9028660  
C     5.4454570   -1.8884970   -0.8009880  
H     5.9015070    1.1068120   -0.7790810  
H     3.6391260   -5.0787780   -0.5492320  
H     6.5034320   -1.8695800   -1.0418530  
C     4.2074250    3.7336280   -0.3641840  
C     3.4198880    2.6212060   -0.1453830  
C     2.1098490    3.1888240    0.2358900  
C     2.3222600    4.6597570    0.1774320  
N     3.5576140    4.9544920   -0.1746400  
C     1.2776330    5.5931450    0.4728660  
C     0.0668200    5.0890140    0.8269510  
O    -0.9981690    5.8363060    1.1300420  
C    -0.1723760    3.6008010    0.9296700  
O    -1.2783390    3.2300200    1.3090980  
C     0.9216340    2.6646380    0.5910960  
H     1.4642050    6.6593460    0.4106280  
H    -1.7187520    5.2010400    1.3427600  
H     0.7321900    1.5999290    0.6461040  
H     5.2486900    3.7419120   -0.6666580  
C    -5.6155520   -3.1699240   -0.1565710  
C    -6.5196320   -2.1591620   -0.1246700  
C    -5.7980630   -0.9238050   -0.3502210  
C    -4.3753950   -1.3109670   -0.5096570  
N    -4.3328990   -2.6841320   -0.4129680  
C    -3.3570350   -0.4193820   -0.7111950  
C    -3.7099790    1.0043940   -0.8465710  
O    -2.8837210    1.8675830   -1.0948570  
C    -5.2209240    1.4179040   -0.6914220  
O    -5.5046650    2.5997970   -0.7995120  
C    -6.2062430    0.3710430   -0.4414070  
H    -7.5846900   -2.2534640    0.0279210  
H    -7.2444470    0.6678500   -0.3332650  
H    -5.7665340   -4.2336850   -0.0306000  
H    -3.4829310   -3.2215200   -0.3210010  
