58


C     3.8986510   -1.1307570   -1.1717310  
C     4.6215910   -0.1663580   -0.5094200  
C     5.9410600   -0.7579710   -0.2517600  
C     5.9106520   -2.1144600   -0.8584670  
N     4.6525340   -2.2568950   -1.4114560  
C     6.9288540   -3.0100850   -0.8350930  
C     8.1606720   -2.6422900   -0.1464310  
O     9.1344040   -3.3766710   -0.0756710  
C     8.2103250   -1.2338360    0.5422420  
O     9.2202790   -0.9056820    1.1454950  
C     7.0400720   -0.3538030    0.4384670  
H     6.8645520   -3.9940190   -1.2897370  
H     7.1127290    0.6160730    0.9105620  
H     2.8629490   -1.0904560   -1.4704770  
H     4.2967130   -3.1093200   -1.8167560  
C     0.4802400    0.9775530    0.3373480  
C     0.6400960    2.2679170    0.7812710  
C     2.0527630    2.5503980    0.6812110  
C     2.6478950    1.2838670    0.1498090  
N     1.7315930    0.3847210   -0.0493410  
C     4.0849990    1.1300150   -0.0979820  
C     4.8210140    2.2709120    0.0868280  
O     6.1352610    2.3672480   -0.1876610  
C     4.2483360    3.5479520    0.6146410  
O     5.0184460    4.5032580    0.7513770  
C     2.8160380    3.6369310    0.9237810  
H    -0.1008190    2.9170200    1.2286250  
H     6.3776390    3.2895670    0.0593650  
H     2.4428960    4.5836270    1.3019790  
C    -3.5667300    2.2897480   -0.6752970  
C    -4.2309990    1.0966210   -0.6607700  
C    -3.2302930    0.0824070   -0.3244080  
C    -1.9521060    0.7982610   -0.1227640  
N    -2.2284290    2.1264380   -0.3364010  
C    -0.7405610    0.2119370    0.1751960  
C    -0.7507320   -1.2649590    0.3229710  
O     0.2047860   -1.9132380    0.7044200  
C    -2.0824770   -2.0408600    0.0146140  
O    -2.0622340   -3.2601460    0.0136130  
C    -3.2991240   -1.2731730   -0.2596390  
H    -4.2130580   -1.8270650   -0.4473930  
H    -3.9569180    3.2780030   -0.8780340  
H    -1.5137770    2.8371470   -0.4040810  
C    -6.3582070    1.4490820   -1.9903920  
C    -5.6384330    0.8930910   -0.9752850  
C    -6.6330120    0.1006180   -0.2241140  
C    -7.9091810    0.3136830   -0.9732760  
N    -7.7364600    1.1044160   -1.9961670  
C    -9.1418980   -0.2986690   -0.5545620  
C    -9.1234840   -1.0613800    0.5651540  
O   -10.1980210   -1.6850520    1.0699040  
C    -7.8612360   -1.2689800    1.3581430  
O    -7.9241800   -1.9648060    2.3680060  
C    -6.6024410   -0.6379320    0.9007920  
H   -10.0487750   -0.1342160   -1.1257000  
H    -9.8827180   -2.1504630    1.8753500  
H    -5.7170270   -0.8137390    1.5037280  
H    -5.9830520    2.0949260   -2.7762070  
