58


C     3.8689910   -0.7869640    0.1129530  
C     5.0308930   -1.5100820    0.2602940  
C     4.7019470   -2.8992240    0.0974590  
C     3.2386080   -2.9540930   -0.1643810  
N     2.8016920   -1.6475920   -0.1355620  
C     2.5446460   -4.1012140   -0.3764480  
C     3.2685970   -5.3695730   -0.3406800  
O     2.7282340   -6.4510460   -0.5119990  
C     4.8164530   -5.3347760   -0.0632980  
O     5.4387640   -6.3851940   -0.0286480  
C     5.4562860   -4.0337330    0.1461830  
H     6.0114750   -1.1058580    0.4663530  
H     1.4769140   -4.1270290   -0.5704890  
H     6.5254240   -4.0205280    0.3353610  
H     1.8645620   -1.3093820   -0.2987770  
C     3.6334850    0.6305570    0.1849310  
C     4.5167650    1.6543250    0.3906460  
C     3.7235250    2.8579030    0.3658400  
C     2.3189080    2.3787350    0.1248670  
N     2.2777090    1.0821040    0.0211080  
C     1.1993300    3.2971530    0.0218580  
C     1.5000040    4.6205700    0.1751450  
O     0.5839920    5.5875600    0.1602450  
C     2.9045210    5.1278910    0.4181510  
O     3.0428820    6.3433330    0.5431310  
C     4.0117910    4.1732050    0.4997770  
H     5.5861430    1.5924800    0.5350900  
H     1.0835390    6.4297040    0.2661140  
H     5.0081590    4.5697760    0.6665160  
C    -1.6450360    0.4500910    1.9547610  
C    -0.5693860    1.2058230    1.6367430  
C    -0.8783410    1.9350090    0.4198160  
C    -2.2531530    1.5445600    0.0367070  
N    -2.6625060    0.6198800    0.9994290  
C    -2.9507900    2.0293080   -1.0168210  
C    -2.2909820    3.0155180   -1.8662770  
O    -2.8330110    3.5440090   -2.8221570  
C    -0.8081520    3.4109910   -1.5297000  
O    -0.2175850    4.1481750   -2.2963450  
C    -0.1681160    2.8497370   -0.3065850  
H     0.3632030    1.2453660    2.1774090  
H    -3.9675010    1.7326820   -1.2507040  
H    -1.8116610   -0.2293720    2.7796240  
C    -5.0072830    0.7259700    1.7379290  
C    -6.1192720   -0.0350730    1.6275840  
C    -5.7702160   -1.2263800    0.8720390  
C    -4.3332880   -1.1071480    0.5348240  
N    -3.9191910    0.1006210    1.0986950  
C    -3.6201460   -2.0127160   -0.1732650  
C    -4.3139530   -3.2128680   -0.6460140  
O    -3.7596660   -4.0872270   -1.2903400  
C    -5.8398020   -3.3700970   -0.2989050  
O    -6.4351660   -4.3635690   -0.6799120  
C    -6.4918700   -2.3059080    0.4762890  
H    -7.0954550    0.1982770    2.0277620  
H    -2.5685700   -1.8927490   -0.4104970  
H    -7.5463720   -2.4243060    0.7061990  
H    -4.8511240    1.6825370    2.2180430  
