62


C     0.8086930   -2.2259450   -0.1443970  
C     1.7414380   -1.1847450   -0.1790400  
C     3.0316080   -1.7485030    0.0117240  
C     2.8460560   -3.1547230    0.1512270  
N     1.5041780   -3.4063860    0.0578630  
C     3.9073900   -4.0487740    0.3269720  
C     5.1895810   -3.5235900    0.3606090  
O     6.2536680   -4.3484220    0.5495270  
C     5.4124640   -2.1281970    0.2136810  
O     6.7342650   -1.7720830    0.2964620  
C     4.3599860   -1.2200380    0.0459900  
H     1.5088150   -0.1409660   -0.3106520  
H     1.0171050   -4.2836990    0.2013890  
H     3.7604790   -5.1174630    0.4413120  
H     7.0516310   -3.7915130    0.5807160  
H     6.7988660   -0.8074700    0.4310250  
C    -2.1188820    0.7836200   -1.6709130  
C    -0.9798960    0.0933260   -1.3852270  
C    -1.3672190   -1.1416090   -0.7516480  
C    -2.8446600   -1.1226140   -0.7103500  
N    -3.2514550    0.0868120   -1.2655170  
C    -3.6369590   -2.1145970   -0.2190950  
C    -2.9872060   -3.3050600    0.2848480  
O    -3.5788900   -4.2567170    0.7733310  
C    -1.4180990   -3.3914000    0.1901830  
O    -0.9076050   -4.4678620    0.4795250  
C    -0.6373400   -2.2072330   -0.2476440  
H     0.0185550    0.4050290   -1.6449460  
H    -4.7184020   -2.0481540   -0.1888740  
H    -2.2410880    1.7465370   -2.1484030  
C    -5.2316920    0.6579460   -2.6468560  
C    -4.5888530    0.5153420   -1.4383510  
C    -5.5056800    0.9138360   -0.4023610  
C    -6.7028410    1.2930590   -1.0578610  
N    -6.5011790    1.1348580   -2.4174750  
C    -7.8320920    1.7430300   -0.3617780  
C    -7.7461630    1.8079530    1.0193480  
O    -8.8157990    2.2344370    1.7460000  
C    -6.5491420    1.4320930    1.6916390  
O    -6.6243700    1.5575890    3.0626680  
C    -5.4358940    0.9907540    1.0029680  
H    -7.1865580    1.3233700   -3.1324590  
H    -8.7531030    2.0329580   -0.8567730  
H    -8.5643090    2.1956620    2.6851590  
H    -5.8086210    1.2282960    3.4684200  
H    -4.5308080    0.7076010    1.5349280  
H    -4.8771240    0.4506960   -3.6461760  
C     4.6322710    0.2060630   -0.0251260  
C     5.7036240    0.8915390   -0.5606920  
C     5.5019410    2.2994120   -0.3272870  
C     4.2270270    2.4101470    0.4224000  
N     3.7318780    1.1224000    0.5306050  
C     3.7041320    3.5740180    0.8809930  
C     4.4185090    4.8161040    0.5929340  
O     4.0179650    5.9112430    0.9569700  
C     5.7523550    4.7280440   -0.2356880  
O     6.3553430    5.7598450   -0.4924110  
C     6.2214720    3.4082750   -0.6553290  
H     6.4750610    0.4657470   -1.1879870  
H     2.7737440    3.6341570    1.4376090  
H     7.1525240    3.3590980   -1.2119460  
H     3.0070640    0.8468980    1.1775020  
