58


C    -3.7697710   -0.5964700   -0.0695080  
C    -4.3982820    0.5190560    0.4537980  
C    -5.8144860    0.3113660    0.3762860  
C    -6.0019190   -1.0274010   -0.2349380  
N    -4.7380140   -1.5116830   -0.4891750  
C    -7.2115310   -1.5977460   -0.4668860  
C    -8.4139450   -0.8538740   -0.1006660  
O    -9.5433970   -1.2857150   -0.2726220  
C    -8.2388060    0.5699450    0.5439870  
O    -9.2329910    1.2093710    0.8536700  
C    -6.8809430    1.0764780    0.7488120  
H    -3.9128280    1.3684880    0.9064970  
H    -7.3319520   -2.5800450   -0.9127740  
H    -6.7713250    2.0587260    1.1987050  
H    -4.4952600   -2.4476460   -0.7843840  
C    -0.0185240    1.8798630    0.0055310  
C    -1.3501120    1.4928850   -0.0286980  
C    -1.3517410    0.0792920   -0.0848130  
C     0.1042430   -0.2939870   -0.0696450  
N     0.8652930    0.7605490   -0.0162810  
C     0.5595310   -1.6825220   -0.1288970  
C    -0.4403720   -2.5979580   -0.3338440  
O    -0.2275650   -3.9168770   -0.4827130  
C    -1.8984170   -2.2526840   -0.3993970  
O    -2.6523830   -3.2157430   -0.6286340  
C    -2.3528100   -0.8785790   -0.1771030  
H    -2.2092340    2.1415470   -0.1000840  
H    -1.1262610   -4.3039340   -0.6232690  
C     1.9623770   -2.0366200    0.0004730  
C     3.0323510   -1.2454660    0.3547630  
C     4.2085700   -2.0717980    0.3742610  
C     3.7633790   -3.4367420    0.0025830  
N     2.4079600   -3.3479670   -0.2150040  
C     4.5855780   -4.5141660   -0.0854390  
C     6.0042060   -4.3300530    0.2017150  
O     6.8197690   -5.2383970    0.1502980  
C     6.4997030   -2.8900300    0.5970250  
O     7.6824780   -2.7177880    0.8471160  
C     5.5151900   -1.8050180    0.6537020  
H     2.9777180   -0.1958710    0.5872060  
H     4.2417290   -5.5068020   -0.3592690  
H     5.8690030   -0.8134370    0.9194530  
H     1.7941140   -4.1161980   -0.4391410  
C    -0.1879600    4.3581380    0.2699540  
C     0.5327330    3.1966570    0.0511840  
C     1.9321200    3.6138400   -0.1101690  
C     1.9437140    5.0864240    0.0407500  
N     0.6209480    5.4569720    0.2654890  
C     3.0396990    5.8759780   -0.0388710  
C     4.3314280    5.2331820   -0.2988280  
O     5.3742540    5.8575620   -0.3865770  
C     4.3486500    3.6735920   -0.4742920  
O     5.4092620    3.1127690   -0.6863330  
C     3.0772500    2.9373380   -0.3726300  
H     3.0134900    6.9556010    0.0718120  
H     3.0941580    1.8637430   -0.5114970  
H    -1.2494150    4.4673400    0.4489380  
H     0.3107090    6.4044140    0.4277890  
