60


C    -0.8938430    2.4224690    0.0455970  
C    -1.2247960    1.0661010   -0.0223110  
C    -2.6455340    0.9630130   -0.0196450  
C    -3.1499050    2.2979960    0.0443310  
N    -2.0780280    3.1471050    0.0977630  
C    -4.5129910    2.6049090    0.0119880  
C    -5.3849590    1.5385540   -0.1216710  
O    -6.7209940    1.7500950   -0.1889360  
C    -4.9183870    0.1893030   -0.1924850  
O    -5.9354390   -0.7237170   -0.2994330  
C    -3.5647730   -0.1358710   -0.1057260  
H    -0.4953790    0.2754300   -0.1042210  
H    -2.1081690    4.1566200    0.1106100  
H    -4.8919690    3.6204400    0.0530210  
H    -7.1202440    0.8672590   -0.3219250  
H    -5.6426300   -1.4080200   -0.9507350  
C     3.1906690    0.7449030   -0.0780900  
C     3.9304280    1.8946360   -0.1553890  
C     2.9806520    2.9806440   -0.1096570  
C     1.6472680    2.3115690   -0.0221400  
N     1.7733920    1.0236180    0.0039190  
C     0.3936340    3.0789790    0.0274900  
C     0.5566630    4.4440520    0.0361020  
O    -0.4807650    5.3200300    0.0925440  
C     1.8677240    5.1261010   -0.0320080  
O     1.8702070    6.3658620   -0.0248330  
C     3.0962770    4.3261440   -0.1124980  
H     5.0025770    1.9681580   -0.2383810  
H    -0.0470150    6.2061550    0.0712530  
H     4.0400590    4.8599440   -0.1679930  
C     7.1897880   -0.8942890   -0.8466130  
C     6.9857350   -2.2234340   -0.7166050  
C     5.5735300   -2.3583230   -0.3846080  
C     5.0566330   -0.9490950   -0.3610160  
N     6.0115490   -0.1084890   -0.6301340  
C     3.6538020   -0.6303280   -0.0728820  
C     2.8515670   -1.7176880    0.2010410  
O     1.5590030   -1.6539100    0.5238480  
C     3.3682100   -3.1344110    0.2012790  
O     2.5708570   -4.0267010    0.4908630  
C     4.7750790   -3.4081270   -0.1222560  
H     7.6986950   -3.0281850   -0.8285110  
H     1.2741790   -2.5832330    0.6922620  
H     5.0961300   -4.4452640   -0.1206970  
H     8.1107020   -0.3776010   -1.0882380  
C    -0.7661950   -2.1301880    2.6226910  
C    -0.7400120   -3.3802020    2.0878660  
C    -1.6377760   -3.3734150    0.9509800  
C    -2.1908270   -1.9972590    0.8685100  
N    -1.6428430   -1.3087800    1.9273220  
C    -3.0891420   -1.5405410   -0.0706040  
C    -3.5775770   -2.5658740   -0.9941800  
O    -4.5170650   -2.3946930   -1.7738350  
C    -2.9223290   -3.9973280   -1.0045930  
O    -3.2491520   -4.7726920   -1.8881700  
C    -1.9798930   -4.3356460    0.0540120  
H    -0.1785360   -4.2286090    2.4513120  
H    -1.5639310   -5.3377770    0.0703620  
H    -0.2297430   -1.7365330    3.4756830  
H    -1.6787420   -0.3012600    2.0062670  
