58


C    -2.4268570   -3.2310140    1.8919700  
C    -2.8270890   -1.9611310    1.6329020  
C    -3.7811710   -2.0191550    0.5472980  
C    -3.9112080   -3.4597290    0.1967930  
N    -3.0724880   -4.1379370    1.0540980  
C    -4.7257740   -3.9634630   -0.7666990  
C    -5.5253400   -3.0308910   -1.5404910  
O    -6.3119760   -3.3753250   -2.4105160  
C    -5.3608650   -1.4958600   -1.2464370  
O    -5.9104210   -0.7083210   -1.9965620  
C    -4.5107590   -1.0587970   -0.1064410  
H    -2.4367770   -1.0705290    2.0958770  
H    -4.8183660   -5.0249450   -0.9753730  
H    -1.7039200   -3.5848000    2.6146460  
H    -2.9294340   -5.1351450    1.0484500  
C    -1.1311960    1.7734700    0.2820720  
C    -1.8029670    2.9708760    0.3864080  
C    -3.2042220    2.6321390    0.4095480  
C    -3.2254160    1.1389830    0.2540240  
N    -2.0216380    0.6523450    0.1836650  
C    -4.4671800    0.3854160    0.1907800  
C    -5.6082530    1.1165130    0.3720780  
O    -6.8282300    0.5771950    0.4308510  
C    -5.6121450    2.6132310    0.5594750  
O    -6.7083770    3.1568280    0.7085920  
C    -4.3453280    3.3450580    0.5544160  
H    -1.3855870    3.9520490    0.5709720  
H    -7.4440100    1.3377830    0.5377530  
H    -4.3871830    4.4234080    0.6719340  
C     2.0541610    4.1018090   -1.5782430  
C     3.1278990    3.3333230   -1.2532230  
C     2.6439550    2.2142250   -0.4767610  
C     1.1892340    2.3958920   -0.3722950  
N     0.8976780    3.5693350   -1.0228720  
C     0.2928100    1.5305030    0.2279750  
C     0.8887530    0.3404070    0.8490960  
O     0.2911900   -0.4268790    1.5825230  
C     2.4183820    0.0516770    0.6190940  
O     2.8251780   -1.0495710    0.9467720  
C     3.2962590    1.1102590    0.0546110  
H     4.1470530    3.5090070   -1.5592920  
H     2.0045770    5.0052260   -2.1705220  
H    -0.0479620    3.8586300   -1.2324490  
C     5.6242360    2.0366020    0.2273620  
C     4.7376960    0.9905840    0.0866840  
C     5.6247050   -0.1983650   -0.0184880  
C     6.9994610    0.3718410    0.0639670  
N     6.9756660    1.6740610    0.2219000  
C     8.1784560   -0.4409470   -0.0227980  
C     8.0156840   -1.7746980   -0.2042030  
O     9.0220340   -2.6529320   -0.3075250  
C     6.6464740   -2.3841830   -0.3103230  
O     6.5734700   -3.5981070   -0.4865040  
C     5.4475510   -1.5210480   -0.2017770  
H     9.1574650    0.0194930    0.0487100  
H     8.5948800   -3.5287520   -0.4362790  
H     4.4824890   -2.0075630   -0.2501500  
H     5.3696010    3.0772250    0.3868860  
