58


C     6.3268790    1.8210740   -0.7096070  
C     7.4578640    1.1210530   -0.9597910  
C     7.2137550   -0.2525930   -0.5798700  
C     5.8188850   -0.2974680   -0.0696700  
N     5.3089880    0.9912350   -0.2014220  
C     5.2336080   -1.4154150    0.4406880  
C     6.0020770   -2.6600000    0.4601110  
O     5.5541350   -3.7061200    0.9033100  
C     7.4612030   -2.6407320   -0.1201460  
O     8.1031060   -3.6787830   -0.1449880  
C     7.9936410   -1.3644770   -0.6038720  
H     8.3790480    1.5176770   -1.3612550  
H     4.2439270   -1.4272580    0.8837860  
H     9.0180210   -1.3508500   -0.9637800  
H     6.1211980    2.8721350   -0.8434280  
C     1.3713240   -0.5942440   -1.1625360  
C     0.5824140    0.3155310   -0.5100490  
C     1.4979850    1.2714940    0.1212230  
C     2.8657170    0.8357810   -0.2565770  
N     2.7142530   -0.2720020   -1.0568050  
C     4.0201720    1.4472050    0.1522360  
C     3.9011740    2.6465130    0.9920020  
O     4.8669650    3.3008600    1.3521170  
C     2.4616080    3.0975570    1.4246670  
O     2.3596010    4.0778990    2.1440190  
C     1.3089990    2.3406930    0.9392900  
H     0.3278430    2.6862540    1.2338700  
H     1.0629680   -1.4769050   -1.7008230  
H     3.4718260   -0.8782800   -1.3377470  
C    -2.0287630   -3.1820650   -0.5518380  
C    -3.2571170   -2.6388620   -0.4110950  
C    -3.0365000   -1.1982420   -0.3482910  
C    -1.5521460   -1.0508730   -0.4593120  
N    -0.9766660   -2.2104440   -0.5857730  
C    -0.8791680    0.2483770   -0.4450610  
C    -1.7145440    1.3268910   -0.3926860  
O    -1.2928400    2.6057910   -0.4345510  
C    -3.2022580    1.2114620   -0.2721480  
O    -3.8339940    2.2597880   -0.1551160  
C    -3.8627710   -0.1276490   -0.2870490  
H    -4.2086190   -3.1427900   -0.3369810  
H    -2.1110190    3.1459710   -0.3462640  
H    -1.7627460   -4.2286380   -0.6351390  
C    -6.5353470   -2.0898750    2.6140270  
C    -7.7588740   -1.7216030    2.1726260  
C    -7.5075770   -0.9120180    0.9843440  
C    -6.0125030   -0.9018670    0.8612460  
N    -5.4548580   -1.5884540    1.8124190  
C    -5.3348070   -0.1795370   -0.2053080  
C    -6.1346390    0.4653200   -1.1012910  
O    -5.6732530    1.1250810   -2.1678860  
C    -7.6403850    0.4628530   -0.9980630  
O    -8.2617660    1.0771780   -1.8615240  
C    -8.2930540   -0.2605330    0.1053820  
H    -8.7250930   -1.9610770    2.5940840  
H    -6.4683910    1.4947120   -2.6145400  
H    -9.3774690   -0.2312940    0.1484770  
H    -6.2902790   -2.6980560    3.4762510  
