62


C    -2.5382130   -0.7592580    1.4286090  
C    -1.4700880    0.0868920    1.3244020  
C    -1.6438100    0.8423070    0.1153170  
C    -2.8521270    0.4055020   -0.4828910  
N    -3.3960370   -0.5808760    0.3388920  
C    -3.3596350    0.9639670   -1.6614760  
C    -2.6167040    1.9688220   -2.2588610  
O    -3.0503720    2.5365280   -3.4191160  
C    -1.3997280    2.4168690   -1.6805070  
O    -0.7701410    3.4124870   -2.3985340  
C    -0.8921430    1.8778420   -0.4975910  
H    -0.6383440    0.1498750    2.0113350  
H    -4.2721880    0.6202520   -2.1323850  
H    -2.3597090    3.1561430   -3.7126990  
H     0.1403720    3.5070440   -2.0690390  
H    -2.7543240   -1.5286430    2.1566620  
C     3.1148240   -0.0871930    0.2793650  
C     1.8017290    0.1796850   -0.0803070  
C     1.5329300    1.5441920    0.2280320  
C     2.7254880    2.0902940    0.7806210  
N     3.6788460    1.0926010    0.7693030  
C     2.8275390    3.4174280    1.2077420  
C     1.7023580    4.2157190    1.0683530  
O     1.7343320    5.5128830    1.4789800  
C     0.5049510    3.6975230    0.5006590  
O    -0.5191750    4.6149260    0.4393930  
C     0.3910910    2.3770870    0.0686180  
H     1.1288320   -0.5203540   -0.5542900  
H     4.5344100    1.1226240    1.3031580  
H     3.7339960    3.8348050    1.6336680  
H     0.8520280    5.8898080    1.3138630  
H    -1.3249230    4.1636790    0.1321320  
C    -6.7637850   -0.9188830    3.0280340  
C    -7.5472660   -1.7532300    2.2973220  
C    -6.8488030   -2.0305590    1.0587280  
C    -5.5761710   -1.2764800    1.1362550  
N    -5.5785910   -0.6339170    2.3558060  
C    -4.6187850   -1.2619930    0.1619530  
C    -4.8660540   -2.0650040   -1.0485420  
O    -4.0617050   -2.1604240   -1.9585320  
C    -6.2369710   -2.8372780   -1.1577790  
O    -6.4688470   -3.4530890   -2.1855240  
C    -7.1681830   -2.7767090   -0.0333440  
H    -8.5148750   -2.1393810    2.5823790  
H    -8.0979360   -3.3305720   -0.1157350  
H    -6.9438700   -0.4850830    4.0027020  
H    -4.8499870   -0.0112700    2.6707710  
C     3.4034770   -2.5996200    0.1763170  
C     3.8648060   -1.3115980    0.1975750  
C     5.3388220   -1.4570160    0.0836020  
C     5.5547590   -2.9261570    0.0272530  
N     4.4193450   -3.5751220    0.0717290  
C     6.8711670   -3.4898050   -0.0885700  
C     7.9259670   -2.6405560   -0.1743170  
O     9.2079730   -3.0377640   -0.2834890  
C     7.7394640   -1.1582910   -0.1585000  
O     8.7375940   -0.4407800   -0.2418720  
C     6.3718560   -0.6019800   -0.0379790  
H     6.9973700   -4.5665810   -0.1164630  
H     9.7325450   -2.2094810   -0.3331450  
H     6.2849870    0.4799690   -0.0690690  
H     2.3728240   -2.9248770    0.2470600  
