60


C     5.1904390    0.5810330    2.6894060  
C     6.3851280    0.3075130    2.1041400  
C     6.1154380   -0.4917850    0.9269800  
C     4.6450980   -0.6574720    0.8689580  
N     4.1439490    0.0304850    1.9589170  
C     3.9672240   -1.3883190   -0.0703310  
C     4.7929720   -1.9976840   -1.1443600  
O     4.3034370   -2.5370340   -2.1194040  
C     6.3581520   -1.8743640   -1.0645620  
O     7.0329070   -2.4509640   -1.9036160  
C     6.9363660   -1.0671230    0.0053020  
H     7.3586700    0.6188770    2.4536500  
H     8.0174590   -0.9753190    0.0443560  
H     4.9787000    1.1408070    3.5909690  
H     3.1722460    0.0368220    2.2270330  
C     0.5159100    1.4671650   -0.0657510  
C     1.7676850    0.8878370   -0.0737010  
C     1.5923920   -0.5361980   -0.0568340  
C     0.1375670   -0.7672710   -0.0248130  
N    -0.4530440    0.4731710    0.0057700  
C    -0.4863180   -2.0009200   -0.0553420  
C     0.4236040   -3.1454800   -0.2554740  
O     0.0372800   -4.2793930   -0.5143090  
C     1.9744040   -2.9369620   -0.1168560  
O     2.6591190   -3.9362080    0.0218730  
C     2.5142530   -1.5693340   -0.0953910  
H     2.7092220    1.4136300   -0.1261080  
H    -1.4301910    0.6715810   -0.1601350  
C     0.0950920    2.8382580   -0.1327430  
C     0.8372280    3.9868500   -0.2110370  
C    -0.1234760    5.0609680   -0.2653560  
C    -1.4574190    4.3730540   -0.2086980  
N    -1.3233600    3.0807360   -0.1304400  
C    -2.6904080    5.1133990   -0.2412600  
C    -2.6084280    6.4626890   -0.3248100  
O    -3.6660550    7.2795990   -0.3631870  
C    -1.2782760    7.1865120   -0.3829110  
O    -1.3142700    8.4141780   -0.4562440  
C    -0.0349150    6.4107490   -0.3494750  
H     1.9136810    4.0818690   -0.2359550  
H    -3.6414250    4.5944290   -0.2012460  
H    -3.2925470    8.1883350   -0.4243850  
H     0.8991420    6.9618210   -0.3952790  
C    -1.9149920   -2.1926810    0.0409900  
C    -2.9288380   -1.3381010    0.4930990  
C    -4.1566500   -2.0434940    0.4059890  
C    -3.8553440   -3.3402760   -0.1097780  
N    -2.5023180   -3.3952410   -0.3196640  
C    -4.8393330   -4.3113930   -0.3263290  
C    -6.1471630   -3.9734420   -0.0154430  
O    -7.1446380   -4.8777110   -0.2041390  
C    -6.4674980   -2.6825940    0.5040400  
O    -7.8130930   -2.5129330    0.7586450  
C    -5.4991440   -1.7254710    0.7159690  
H    -2.7957500   -0.3564890    0.9250330  
H    -1.9395530   -4.1858480   -0.6120980  
H    -4.6165000   -5.2979110   -0.7182660  
H    -7.9775980   -4.4558360    0.0704830  
H    -7.9691690   -1.6234690    1.1091490  
H    -5.7649730   -0.7475810    1.1120620  
