60


C     0.8291610    0.7002060    1.8146520  
C     2.1808280    0.5154270    1.8055720  
C     2.4985100   -0.2765020    0.6473230  
C     1.2779630   -0.5513620   -0.0155460  
N     0.2519710    0.0543490    0.7181280  
C     1.2208500   -1.2400420   -1.2306150  
C     2.4193320   -1.6806510   -1.7687610  
O     2.4170250   -2.3686300   -2.9454610  
C     3.6509250   -1.4396670   -1.1087580  
O     4.7373710   -1.9807550   -1.7639630  
C     3.7204990   -0.7405370    0.0965650  
H     2.8737290    0.9009560    2.5401310  
H     0.2943960   -1.4567530   -1.7468460  
H     3.3398370   -2.6017900   -3.1464090  
H     5.5529410   -1.7824600   -1.2783840  
H     0.1952370    1.2066140    2.5272810  
C    -2.6474950    3.3174580    0.5469440  
C    -1.5001320    2.5895070    0.6054360  
C    -1.8734830    1.2030360    0.4532440  
C    -3.3505330    1.1855470    0.3290830  
N    -3.7605020    2.4975990    0.4347740  
C    -4.1263710    0.0608440    0.1553510  
C    -3.3583690   -1.1725280   -0.1225020  
O    -3.8393840   -2.1634430   -0.6428660  
C    -1.8252920   -1.2213230    0.2108830  
O    -1.2849760   -2.3101910    0.2841280  
C    -1.1205600    0.0557370    0.4254930  
H    -0.4967940    2.9710700    0.7171350  
H    -2.7760720    4.3914540    0.5820930  
H    -4.6523810    2.7665650    0.0055410  
C    -7.3270860    2.7086100   -1.5342420  
C    -8.4121340    1.9148480   -1.4080430  
C    -7.9388360    0.7256380   -0.7105450  
C    -6.4680930    0.9617360   -0.5149820  
N    -6.1384540    2.1361280   -0.9826230  
C    -5.5964120   -0.0156520    0.1246340  
C    -6.2518710   -1.0836190    0.6908990  
O    -5.6423960   -2.0054710    1.4408610  
C    -7.7237450   -1.3273940    0.5378020  
O    -8.1970840   -2.3296820    1.0721530  
C    -8.5474290   -0.3681280   -0.2188930  
H    -9.4251870    2.1079440   -1.7316120  
H    -6.3348940   -2.6657340    1.6682300  
H    -9.6081640   -0.5797680   -0.3109820  
H    -7.2614860    3.6902830   -1.9871470  
C     5.2865140   -0.8033660    2.0891450  
C     5.0067430   -0.5156460    0.7831560  
C     6.2251510    0.0779040    0.2324900  
C     7.2236130    0.0948320    1.3322290  
N     6.5836850   -0.4436540    2.4306990  
C     8.4906040    0.5658720    1.2146750  
C     8.9153860    1.1051820   -0.0745570  
O    10.0369580    1.5441260   -0.2761260  
C     7.8691500    1.1212280   -1.2483550  
O     8.1979300    1.5868000   -2.3274020  
C     6.5308550    0.5727590   -0.9985750  
H     9.2049470    0.5683480    2.0323780  
H     5.8156260    0.5997540   -1.8147190  
H     4.6382690   -1.2579740    2.8266340  
H     7.0100730   -0.5912110    3.3320430  
