60


C     1.1756970   -1.1017830    1.6296660  
C     2.5123450   -1.2739140    1.4128030  
C     2.8808870   -0.4343720    0.3027200  
C     1.7170060    0.2446610   -0.1281290  
N     0.6838260   -0.1819700    0.7011850  
C     1.7011330    1.1737930   -1.1703590  
C     2.9088920    1.4233800   -1.8063750  
O     2.9664880    2.3181670   -2.8249200  
C     4.0969900    0.7424870   -1.4232780  
O     5.1938730    1.0388710   -2.1985150  
C     4.0908270   -0.1833720   -0.3818150  
H     3.1658180   -1.9173280    1.9846960  
H     0.8029880    1.6936590   -1.4832840  
H     3.8948480    2.3528340   -3.1208200  
H     6.0104610    1.0113400   -1.6663650  
H     0.5070110   -1.5398630    2.3560500  
C    -1.1502920    1.3140880    1.3497570  
C    -2.4821010    1.4107240    1.1241050  
C    -2.8623150    0.3411280    0.2181590  
C    -1.6273440   -0.4158330   -0.0700920  
N    -0.6124960    0.2428630    0.6220910  
C    -1.5369230   -1.5302380   -0.8370560  
C    -2.7639920   -2.0346500   -1.4331270  
O    -2.8190920   -3.0476410   -2.1118010  
C    -4.0966970   -1.2327290   -1.1864420  
O    -5.1120780   -1.6268400   -1.7314700  
C    -4.0726690   -0.0197000   -0.3228330  
H    -3.1469030    2.1384900    1.5640350  
H    -0.6068130   -2.0585410   -1.0144420  
H    -0.4929830    1.9067700    1.9710010  
C    -5.3618870    2.1338170   -0.2503780  
C    -5.2910590    0.7703350   -0.1472920  
C    -6.6489220    0.3172990    0.1822380  
C    -7.4857390    1.5396290    0.2632770  
N    -6.6394680    2.6009310   -0.0072690  
C    -8.8106420    1.5604080    0.5530060  
C    -9.4780660    0.2919340    0.8287890  
O   -10.6653410    0.2066530    1.1013070  
C    -8.6089450   -1.0155240    0.7812260  
O    -9.1347540   -2.0855180    1.0390900  
C    -7.1852460   -0.9030200    0.4321410  
H    -9.3970180    2.4729360    0.6003310  
H    -6.6160420   -1.8224190    0.3665130  
H    -4.5742760    2.8276590   -0.5130240  
H    -6.9359900    3.5592720   -0.1101760  
C     5.4306950   -2.2792560   -0.0817080  
C     6.6979650   -2.6521430    0.2151650  
C     7.4532830   -1.4434770    0.4750360  
C     6.4970570   -0.3191180    0.3100930  
N     5.2783460   -0.8817750   -0.0296160  
C     6.8207390    0.9949760    0.4793290  
C     8.1948050    1.3309220    0.8506940  
O     8.5682630    2.4758660    1.0495570  
C     9.2264050    0.1557170    1.0055750  
O    10.3849750    0.4158280    1.2846230  
C     8.7491690   -1.2193510    0.8117600  
H     7.0798210   -3.6623150    0.2439220  
H     6.0910900    1.7985870    0.4380710  
H     9.4672330   -2.0227820    0.9460560  
H     4.5742950   -2.8826550   -0.3502020  
