60


C     0.7267600    1.5139950    0.1584210  
C     1.2847760    2.7972510    0.0868630  
C     2.6848680    2.6570820   -0.0250380  
C     2.9656600    1.2562260   -0.0275480  
N     1.7727870    0.5989030    0.0819090  
C     4.2734180    0.7316630   -0.1082030  
C     5.2998410    1.6727110   -0.1979190  
O     6.5786050    1.2556490   -0.3301640  
C     5.0337910    3.0785450   -0.1995250  
O     6.1754190    3.8415600   -0.3028600  
C     3.7561380    3.5778060   -0.1164740  
H     0.7311570    3.7231100    0.0695100  
H     1.6180100   -0.3999250    0.0577510  
H     7.1535380    2.0411960   -0.3007830  
H     5.9551280    4.7802970   -0.2080100  
H     3.5742770    4.6499020   -0.1190310  
C    -3.1470170    3.5654780    1.1508030  
C    -1.8150200    3.3279280    1.0219080  
C    -1.7062760    1.9440590    0.5824640  
C    -3.1069250    1.4908120    0.5116640  
N    -3.9483750    2.4410750    0.8331150  
C    -3.4773760    0.1291690    0.1512590  
C    -2.4521190   -0.7264070   -0.1074780  
O    -2.6322120   -2.0108720   -0.4706170  
C    -1.0236010   -0.3101290   -0.0311090  
O    -0.1871770   -1.2005600   -0.2302310  
C    -0.6526940    1.1170590    0.2587820  
H    -1.0069570    4.0035810    1.2580360  
H    -1.7312150   -2.3929690   -0.5340490  
H    -3.6339020    4.4780650    1.4726480  
C    -7.1691600    1.3877480   -2.0600190  
C    -5.8986280    1.3637630   -1.5973360  
C    -5.8617590    0.2630440   -0.6395380  
C    -7.2580120   -0.2788660   -0.6618950  
N    -8.0134390    0.3752950   -1.4956800  
C    -7.6499670   -1.4051890    0.1452570  
C    -6.7082830   -1.9660860    0.9362230  
O    -6.9312560   -3.0085510    1.7544150  
C    -5.2957570   -1.4455140    0.9889270  
O    -4.5348210   -1.9792350    1.7905490  
C    -4.8863990   -0.3062220    0.1116660  
H    -5.0817530    2.0246900   -1.8437460  
H    -8.6702110   -1.7706550    0.1098920  
H    -6.0754840   -3.1648610    2.2113040  
H    -7.6009520    2.0677120   -2.7848550  
C     3.0164370   -2.7100090   -2.6343250  
C     3.2154920   -1.4708240   -2.1148900  
C     4.0528110   -1.6232890   -0.9416250  
C     4.3352150   -3.0762030   -0.8270550  
N     3.6673490   -3.6766820   -1.8771520  
C     5.1188510   -3.6442780    0.1246960  
C     5.7298140   -2.7724420    1.1176790  
O     6.4818320   -3.1749850    1.9918880  
C     5.3962350   -1.2361360    1.0648290  
O     5.8074380   -0.5241030    1.9625260  
C     4.5623860   -0.7166520   -0.0514270  
H     2.8293020   -0.5431160   -2.5086810  
H     5.3264450   -4.7087670    0.1728540  
H     2.4508540   -3.0032860   -3.5088930  
H     3.6898810   -4.6628800   -2.0835580  
