62


C    -1.1151950   -1.1239950   -1.2218910  
C    -2.4639920   -1.0716820   -1.0076680  
C    -2.7546500    0.1781760   -0.3581380  
C    -1.5301370    0.8674720   -0.2063480  
N    -0.5388640    0.0484330   -0.7380320  
C    -1.4198530    2.1398790    0.3587530  
C    -2.5922610    2.7434140    0.7863290  
O    -2.5473740    3.9767160    1.3558140  
C    -3.8436360    2.0877860    0.6478460  
O    -4.8948610    2.8154770    1.1478730  
C    -3.9539820    0.8070710    0.0838150  
H    -3.1729260   -1.8335450   -1.2959130  
H    -0.4710230    2.6506290    0.4781350  
H    -3.4530810    4.2044730    1.6309650  
H    -5.7076240    2.2734240    1.1349510  
H    -0.4921590   -1.8834350   -1.6711200  
C     1.4350020    0.9628180   -1.8766170  
C     2.7692160    1.0247550   -1.6573070  
C     3.0342350    0.4074770   -0.3699070  
C     1.7339900   -0.0365520    0.1639180  
N     0.7922350    0.3540710   -0.7864100  
C     1.5319940   -0.7132590    1.3231430  
C     2.6990060   -1.0235790    2.1305720  
O     2.6613520   -1.6780340    3.1606050  
C     4.1023590   -0.4900100    1.6508900  
O     5.0606970   -0.6252520    2.3860980  
C     4.1944170    0.1933200    0.3285120  
H     3.5076420    1.4433000   -2.3240930  
H     0.5541320   -1.0376320    1.6606290  
H     0.8396940    1.2935150   -2.7163780  
C     5.6161070    2.0193400   -0.5503870  
C     6.9141460    2.1981790   -0.9240260  
C     7.5953870    0.9471170   -0.7230420  
C     6.6506180    0.0318430   -0.1991610  
N     5.4250300    0.7066400   -0.0961660  
C     6.9706860   -1.3047170    0.0609850  
C     8.2736080   -1.7122470   -0.1828170  
O     8.6346480   -3.0040160    0.0648860  
C     9.2367380   -0.8019930   -0.6896560  
O    10.4865370   -1.3565400   -0.8810070  
C     8.9119890    0.5143320   -0.9631550  
H     7.3474330    3.1219580   -1.2830760  
H     6.2627330   -2.0161910    0.4663170  
H     9.5821590   -3.0841970   -0.1392470  
H    11.1064810   -0.6687230   -1.1651220  
H     9.6585480    1.1953440   -1.3668310  
H     4.7959990    2.7204460   -0.5049040  
C    -5.2445500    0.1386730   -0.0064340  
C    -5.5759760   -1.1780410    0.1452860  
C    -7.0015780   -1.3207430   -0.0121790  
C    -7.5183530    0.0376320   -0.2857810  
N    -6.4267730    0.9184310   -0.1930730  
C    -8.8086180    0.3244480   -0.5644640  
C    -9.7798650   -0.7757030   -0.5624290  
O   -10.9637030   -0.6071400   -0.8022680  
C    -9.2624540   -2.2193170   -0.2190610  
O   -10.0633830   -3.1414680   -0.1979200  
C    -7.8347490   -2.3957840    0.0448760  
H    -4.8897190   -1.9686530    0.4123820  
H    -9.1713040    1.3267480   -0.7720590  
H    -7.4823800   -3.4002530    0.2584070  
H    -6.3852020    1.6951600   -0.8466620  
