58


C     5.3013670    2.3375700    0.9711190  
C     4.4389610    1.2960610    1.0828610  
C     4.7478640    0.3609480    0.0241560  
C     5.8917420    0.9538270   -0.7211510  
N     6.1827270    2.1436800   -0.0897760  
C     6.5094730    0.3881980   -1.7904590  
C     6.0120490   -0.8893520   -2.2697940  
O     6.5077680   -1.4980940   -3.2065820  
C     4.7624490   -1.5134870   -1.5495140  
O     4.2535870   -2.5046510   -2.0433250  
C     4.2194320   -0.8542290   -0.3325020  
H     3.6227720    1.2279490    1.7823320  
H     7.3612100    0.8355540   -2.2937270  
H     5.3618660    3.2395730    1.5651260  
H     6.9009700    2.7877310   -0.3801820  
C     0.1999660    0.5679070    0.8457690  
C    -0.3711860   -0.5897780    1.3065990  
C     0.6697170   -1.5943460    1.2297380  
C     1.8404990   -0.8665720    0.6379940  
N     1.5568620    0.3823710    0.4149050  
C     3.1066830   -1.5268500    0.3638690  
C     3.1831120   -2.8365100    0.7484670  
O     4.2946240   -3.5705130    0.6493390  
C     2.0275640   -3.5846310    1.3612270  
O     2.2141330   -4.7627630    1.6639660  
C     0.7461770   -2.8973570    1.5728620  
H    -1.3435180   -0.7184270    1.7632880  
H     4.0482300   -4.4673440    0.9696900  
H    -0.0688920   -3.4739230    1.9992980  
C    -3.7775100    1.7990750   -0.4684560  
C    -3.6275490    3.1568770   -0.4165020  
C    -2.3012800    3.4204360    0.0798660  
C    -1.6824550    2.1020860    0.3268810  
N    -2.6423540    1.1495170    0.0240910  
C    -0.3876640    1.8920790    0.7174130  
C     0.4026530    3.1078030    1.0388220  
O     1.4928370    3.0658230    1.5778900  
C    -0.2299370    4.5162310    0.7494300  
O     0.4646730    5.5083530    0.9094890  
C    -1.6164380    4.5780080    0.3007660  
H    -4.3798850    3.8949670   -0.6521280  
H    -2.0449970    5.5575270    0.1132080  
H    -2.3902870    0.1954810   -0.2065300  
C    -5.7120700    1.5110140   -1.9614720  
C    -6.6633110    0.5944570   -2.2400380  
C    -6.4565210   -0.5405640   -1.3623010  
C    -5.2840810   -0.2068470   -0.5183490  
N    -4.8470350    1.0596030   -0.9417130  
C    -4.8194140   -0.9990810    0.4782770  
C    -5.4743360   -2.2919880    0.7059750  
O    -5.1076400   -3.0641040    1.5755200  
C    -6.6886250   -2.6809340   -0.2062850  
O    -7.2363940   -3.7573010   -0.0421890  
C    -7.1241550   -1.7128700   -1.2205810  
H    -7.4323740    0.6837070   -2.9937200  
H    -4.0068410   -0.7274950    1.1410840  
H    -7.9886140   -1.9705890   -1.8246540  
H    -5.5188110    2.4720060   -2.4166240  
