58


C     4.1692970    0.1075910    0.0597070  
C     3.3015220    1.1232050   -0.3174540  
C     3.9843340    2.3708340   -0.1681450  
C     5.3452460    2.0420060    0.3246270  
N     5.3852550    0.6737620    0.4485320  
C     6.3071440    2.9659590    0.5804780  
C     5.9942640    4.3753150    0.3661700  
O     6.7952410    5.2756470    0.5706510  
C     4.5564090    4.7471680   -0.1525630  
O     4.2772940    5.9242730   -0.3347970  
C     3.6070460    3.6639600   -0.3969560  
H     2.3075010    1.0024250   -0.7164820  
H     7.2993900    2.7083970    0.9373500  
H     2.6178760    3.9299280   -0.7576030  
H     6.1893320    0.0926680    0.6540590  
C     0.5192060   -2.4853900   -0.1331090  
C     1.4037780   -1.4247570    0.0070680  
C     2.7274800   -1.9367610   -0.0333370  
C     2.5916440   -3.4030040   -0.1851830  
N     1.2433210   -3.6652360   -0.2655500  
C     3.6229170   -4.2853190   -0.2348360  
C     4.9715110   -3.7653460   -0.0932060  
O     5.9722870   -4.4628470   -0.1362070  
C     5.1531700   -2.2229880    0.1402600  
O     6.2887020   -1.8354250    0.3953330  
C     3.9805760   -1.3258160    0.0506900  
H     1.0878930   -0.4084690    0.1569220  
H     3.4906950   -5.3538670   -0.3708820  
H     0.8201960   -4.5786100   -0.3419030  
C    -2.2866400    0.8701210    0.0923220  
C    -3.5076700    0.2519820    0.1025290  
C    -3.1780990   -1.1881990   -0.0062070  
C    -1.6867440   -1.2221980   -0.0379460  
N    -1.1912160   -0.0199320    0.0239060  
C    -0.9286340   -2.4724710   -0.1440690  
C    -1.6902240   -3.6098730   -0.2662640  
O    -1.1855320   -4.8523670   -0.3849620  
C    -3.1806080   -3.5926280   -0.2851090  
O    -3.7500350   -4.6807630   -0.4112380  
C    -3.8981410   -2.3187300   -0.1492470  
H    -1.9790260   -5.4378250   -0.4576370  
H    -4.9791170   -2.3580480   -0.1441280  
H    -2.0961900    1.9319240    0.1177830  
C    -4.6334130    4.2924860   -1.1574980  
C    -5.9502110    4.3360760   -0.8611630  
C    -6.2559050    3.0290950   -0.2890580  
C    -4.9498820    2.2940450   -0.3238080  
N    -4.0154820    3.0387220   -0.8322780  
C    -4.8080350    0.9126330    0.1563510  
C    -5.9550240    0.3636670    0.6655060  
O    -6.0306040   -0.8703070    1.1995970  
C    -7.2681950    1.0853310    0.7134400  
O    -8.2240250    0.4829990    1.2041360  
C    -7.3721810    2.4605110    0.1997350  
H    -6.6454620    5.1508460   -1.0071150  
H    -6.9686250   -0.9609830    1.4899120  
H    -8.3433510    2.9428590    0.2513840  
H    -4.0165220    5.0668190   -1.5964000  
