62


C    -1.9573940   -0.5381050   -0.2705640  
C    -1.0953550    0.5254550   -0.1220140  
C    -1.9166230    1.6700490    0.2066120  
C    -3.2623490    1.2347330    0.2281630  
N    -3.2716560   -0.1311190   -0.0553720  
C    -4.3303890    2.0903540    0.5207330  
C    -4.0285480    3.4165590    0.7842830  
O    -5.0285500    4.2962660    1.0739510  
C    -2.6826050    3.8724720    0.7599870  
O    -2.5449310    5.2164390    1.0474660  
C    -1.6322630    3.0224830    0.4746660  
H    -5.3631950    1.7631880    0.5252290  
H    -4.6167570    5.1667150    1.2117260  
H    -1.6085510    5.4606430    1.0053100  
H    -0.6074500    3.3822220    0.4846690  
H    -1.7474330   -1.5712690   -0.5116210  
C     1.1836830   -1.0698470   -3.5177550  
C     2.4495790   -0.8435230   -3.0401700  
C     2.3032290   -0.2127160   -1.7589300  
C     0.9122970   -0.0941570   -1.5052700  
N     0.2581510   -0.6310700   -2.5934000  
C     0.3617460    0.4716930   -0.3353840  
C     1.2907590    0.9474970    0.5924980  
O     0.8661960    1.5035370    1.7640250  
C     2.6889270    0.8731520    0.3596000  
O     3.4603700    1.4552400    1.3466360  
C     3.2038870    0.2951260   -0.7980520  
H     3.3724990   -1.1081550   -3.5363960  
H    -0.7434940   -0.6069210   -2.7156010  
H     1.6728580    1.7277620    2.2646860  
H     4.2757590    0.9396420    1.4893730  
H     0.8614360   -1.5213630   -4.4453230  
C     5.2670310    0.8665490   -2.0995290  
C     6.6122890    0.7424150   -1.9984610  
C     6.8850130    0.0090950   -0.7796330  
C     5.5600360   -0.2947640   -0.1802750  
N     4.6087840    0.2517900   -1.0210160  
C     5.3847130   -0.9894870    0.9814090  
C     6.5677210   -1.4715550    1.6898680  
O     6.5079480   -2.1235250    2.7210070  
C     7.9789750   -1.1361650    1.0841840  
O     8.9812070   -1.5012560    1.6768590  
C     8.0350100   -0.3965950   -0.1824680  
H     7.3470000    1.1242590   -2.6923460  
H     4.4076140   -1.2789800    1.3575990  
H     9.0161050   -0.1952800   -0.6022440  
H     4.6691890    1.3569760   -2.8555350  
C    -4.1029120   -3.5863290    2.4015610  
C    -5.2745780   -3.9818920    1.8406590  
C    -5.5875190   -3.0426850    0.7828370  
C    -4.4806440   -2.0572890    0.7795470  
N    -3.6073500   -2.4483880    1.7693300  
C    -4.3917720   -0.9904690   -0.0682620  
C    -5.4615780   -0.8141300   -1.0634440  
O    -5.4504230    0.0700410   -1.9019950  
C    -6.6634000   -1.8346280   -1.0424860  
O    -7.5806680   -1.6611330   -1.8284730  
C    -6.6303090   -2.9395510   -0.0846900  
H    -5.8676300   -4.8374530    2.1286290  
H    -7.4569920   -3.6428300   -0.0966320  
H    -3.5502680   -4.0260980    3.2211330  
H    -2.7853320   -1.9288940    2.0394000  
