62


C     0.3325910   -0.2375100   -0.4981950  
C     0.0258890    1.0670610   -0.8793510  
C     1.2259260    1.8319810   -0.8062740  
C     2.2556020    0.9533570   -0.3666180  
N     1.6846280   -0.2845990   -0.1886060  
C     3.5942000    1.3595550   -0.1713360  
C     3.8712600    2.6989190   -0.4603200  
O     5.1452550    3.1568100   -0.3689200  
C     2.8513220    3.5896440   -0.8970760  
O     3.3079810    4.8711360   -1.1372620  
C     1.5456360    3.1804660   -1.0706310  
H    -0.9252050    1.4162790   -1.2571060  
H     2.1364380   -1.1484580    0.0814630  
H     5.1227930    4.1188650   -0.5130420  
H     2.5574080    5.4513020   -1.3319960  
H     0.7863320    3.8819050   -1.4103320  
C    -4.0244030   -0.7312940   -0.1045610  
C    -4.0811960   -2.1035060   -0.2456110  
C    -2.7409210   -2.5977830   -0.3845230  
C    -1.8642120   -1.4124180   -0.3354140  
N    -2.6916970   -0.3285200   -0.1795450  
C    -0.4904360   -1.4309480   -0.4374920  
C     0.1192670   -2.7742810   -0.4829950  
O     1.3299030   -2.9643200   -0.4154830  
C    -0.8046810   -4.0434550   -0.6244900  
O    -0.2566750   -5.1265700   -0.7848160  
C    -2.2382590   -3.8606900   -0.5446890  
H    -4.9747550   -2.7020430   -0.3393790  
H    -2.8706850   -4.7398530   -0.6152920  
H    -2.3894070    0.6261580   -0.0569710  
C    -8.0729570   -1.2768190    1.5725460  
C    -8.5186070    0.0041490    1.3914430  
C    -7.4381100    0.7442600    0.8043830  
C    -6.3557440   -0.1575470    0.6350850  
N    -6.7768330   -1.3844700    1.0982840  
C    -5.0980190    0.2294270    0.1031450  
C    -4.9670910    1.5944620   -0.2034450  
O    -3.7840030    2.0884190   -0.6843390  
C    -6.0448660    2.4977830   -0.0475680  
O    -5.7349470    3.7892050   -0.4284730  
C    -7.2736000    2.0921540    0.4363030  
H    -9.4981270    0.3822120    1.6487540  
H    -6.1636330   -2.1687730    1.2595560  
H    -3.9123240    3.0435370   -0.8288570  
H    -6.4910540    4.3721730   -0.2658900  
H    -8.0870120    2.8060530    0.5461450  
H    -8.5718890   -2.1380440    1.9935780  
C     4.9614150   -2.6062940   -1.5443360  
C     5.9255270   -2.8496320   -0.6194520  
C     5.9760540   -1.7040980    0.2624850  
C     4.9457770   -0.7564160   -0.2327910  
N     4.3887820   -1.3551550   -1.3492440  
C     4.6464620    0.4520100    0.3313750  
C     5.3930380    0.8000680    1.5626350  
O     5.1265130    1.7733610    2.2452370  
C     6.5546170   -0.1476310    2.0414200  
O     7.2394600    0.2054600    2.9903080  
C     6.7531170   -1.4108520    1.3404380  
H     6.5376070   -3.7366820   -0.5478210  
H     7.5294900   -2.0776710    1.7028750  
H     4.6159920   -3.2306050   -2.3574350  
H     3.5884080   -0.9998850   -1.8490280  
