58


C     7.0451860    2.2062310    1.4264870  
C     8.1290430    1.5336460    0.9624860  
C     7.6389410    0.3655240    0.2643180  
C     6.1573290    0.4068830    0.3916810  
N     5.8627340    1.5273700    1.1424310  
C     5.3009340   -0.5336480   -0.1226290  
C     5.9258520   -1.5401940   -1.0191570  
O     5.2774800   -2.2563180   -1.7615710  
C     7.4903860   -1.6645160   -1.0591330  
O     7.9829340   -2.6106390   -1.6537480  
C     8.2807250   -0.6343410   -0.3968460  
H     9.1653690    1.8140560    1.0829640  
H     9.3626420   -0.7013870   -0.4576800  
H     7.0032200    3.1392870    1.9736060  
H     4.9567320    1.9784940    1.0086990  
C     2.1241670    2.5635290   -0.1320010  
C     0.9751230    1.8109990   -0.1026930  
C     1.4611340    0.4235970    0.0196270  
C     2.9499360    0.5444750    0.0081690  
N     3.3019840    1.8140910   -0.0576780  
C     3.8389770   -0.5947680    0.0708140  
C     3.2089680   -1.7981410    0.2938130  
O     3.8592090   -2.9365820    0.5183920  
C     1.7118170   -1.9518490    0.3201920  
O     1.2623550   -3.0807380    0.4965530  
C     0.8488760   -0.7656730    0.1524300  
H     3.1680850   -3.6331240    0.5961910  
H    -0.2269580   -0.8923940    0.1704960  
H     2.1977460    3.6432570   -0.1896170  
C    -0.3833710    2.2611240   -0.1688250  
C    -0.8744660    3.5087520   -0.4658180  
C    -2.3029650    3.3986430   -0.3947770  
C    -2.5542050    1.9658180   -0.0180870  
N    -1.4379440    1.3131240    0.1001840  
C    -3.9041050    1.4247660    0.1609080  
C    -4.9137550    2.3229640   -0.0592600  
O    -6.2181880    2.0313700    0.0808280  
C    -4.6871480    3.7567000   -0.4506920  
O    -5.6942540    4.4554540   -0.6036270  
C    -3.3266260    4.2595260   -0.6106850  
H    -0.3152620    4.3936250   -0.7362060  
H    -6.6827580    2.8770230   -0.1282470  
H    -3.2029270    5.3000970   -0.8929650  
C    -3.2548010   -0.7047660    1.3582660  
C    -4.0945050    0.0381600    0.5722090  
C    -5.1832360   -0.9050680    0.2305970  
C    -4.8039790   -2.1663300    0.9374130  
N    -3.6848890   -2.0309170    1.5962060  
C    -5.6037470   -3.3587280    0.8586980  
C    -6.7188120   -3.3236870    0.0907880  
O    -7.5532550   -4.3597730   -0.0829440  
C    -7.1137540   -2.0809890   -0.6578140  
O    -8.1341820   -2.1265120   -1.3422830  
C    -6.2808360   -0.8642110   -0.5489170  
H    -5.2968380   -4.2495940    1.3952270  
H    -8.2545540   -4.0315860   -0.6880620  
H    -6.6188660    0.0115640   -1.0879700  
H    -2.3280980   -0.3716510    1.8033880  
