58


C     5.9950120    0.7513700    1.9837900  
C     5.3826470    0.2441330    0.8695470  
C     6.4559190   -0.2943360    0.0250520  
C     7.7233700   -0.0424290    0.7517730  
N     7.3698970    0.6027970    1.9246910  
C     8.9567400   -0.3905200    0.3074010  
C     9.0632400   -1.0482360   -0.9919450  
O    10.1274830   -1.3955480   -1.4791610  
C     7.7368350   -1.3021390   -1.7949100  
O     7.8012600   -1.8218820   -2.8961170  
C     6.4593740   -0.8947570   -1.1906370  
H     9.8687940   -0.1981190    0.8640620  
H     5.5534830   -1.1139570   -1.7435460  
H     5.5383140    1.1961800    2.8588300  
H     8.0075780    0.8142670    2.6767490  
C     2.4386690    3.4689170    1.1839970  
C     1.3027060    2.7828110    0.8877560  
C     1.6829140    1.4175650    0.6041360  
C     3.1512330    1.3583980    0.7776310  
N     3.5439810    2.6307460    1.1590160  
C     3.9411450    0.2534020    0.6044620  
C     3.2402440   -0.9839030    0.2078930  
O     3.8117630   -2.0487080    0.0520550  
C     1.6857510   -0.9426660   -0.0146440  
O     1.1467350   -1.9385430   -0.4633790  
C     0.9501180    0.3074740    0.2631400  
H     0.3012690    3.1842800    0.8653550  
H     2.5607770    4.5143230    1.4350710  
H     4.5069420    2.9326580    1.1668700  
C    -2.0573820    2.5610930   -2.1713480  
C    -0.8838630    2.1507900   -1.6370840  
C    -1.2427450    1.1031990   -0.6930670  
C    -2.7353070    1.0028540   -0.7966960  
N    -3.1912020    1.8635570   -1.6625440  
C    -3.5262660    0.0383810   -0.0272000  
C    -2.7877720   -0.7870910    0.7961760  
O    -3.2831530   -1.7380500    1.5813870  
C    -1.2864460   -0.6758930    0.9325950  
O    -0.7578990   -1.3871200    1.7823850  
C    -0.5115590    0.2949870    0.1139220  
H     0.1130790    2.5006410   -1.8613420  
H    -2.5017840   -2.1110820    2.0544020  
H    -2.2191750    3.3254570   -2.9220670  
C    -4.9707340   -0.0134120   -0.1513280  
C    -5.7804320    0.7265490   -0.9764900  
C    -7.1274550    0.2850890   -0.7048320  
C    -6.9677290   -0.7640750    0.3519990  
N    -5.7235430   -0.9365130    0.6731430  
C    -8.1057020   -1.4583260    0.9037980  
C    -9.3300410   -1.1299560    0.4310090  
O   -10.4776910   -1.6884180    0.8460060  
C    -9.5216290   -0.0756800   -0.6353910  
O   -10.6771440    0.1516690   -0.9974230  
C    -8.3502840    0.6185480   -1.1812300  
H    -5.4662090    1.4795570   -1.6802140  
H    -7.9635540   -2.2143390    1.6679510  
H   -11.1810030   -1.2443530    0.3204960  
H    -8.5267130    1.3703270   -1.9444380  
