62


C     0.3099400    0.1896160   -1.2689010  
C     0.1755620    1.4032810   -0.6169270  
C     1.4862830    1.6876680   -0.0564050  
C     2.3293880    0.5936800   -0.3799660  
N     1.5747670   -0.3110100   -1.1038060  
C     3.6764310    0.4807260    0.0525220  
C     4.1674470    1.5956060    0.7538640  
O     5.4766820    1.6572150    1.1355530  
C     3.3354520    2.6959760    1.0715210  
O     3.9825660    3.6972780    1.7791780  
C     2.0071520    2.7474930    0.7054570  
H     2.0266830   -0.9622790   -1.7364160  
H     5.6084960    2.5464960    1.5123490  
H     3.4791260    4.5210190    1.6940710  
H     1.3988290    3.6104030    0.9502250  
H    -0.4060910   -0.3253950   -1.8934030  
C    -4.0678390    0.1455960   -0.0778100  
C    -2.6940990    0.2006210   -0.1612070  
C    -2.3049880    1.5664130   -0.4011870  
C    -3.5656210    2.3380540   -0.4488170  
N    -4.5838010    1.4281310   -0.2923010  
C    -3.6561510    3.6881200   -0.6050790  
C    -2.4251490    4.4376150   -0.7154040  
O    -2.3714540    5.6565060   -0.8179730  
C    -1.0618540    3.6432080   -0.6881380  
O    -0.0340310    4.2951130   -0.7945020  
C    -1.0695340    2.1657910   -0.5448000  
H    -2.0104040   -0.6076220    0.0452460  
H    -4.6002270    4.2228690   -0.6325140  
H    -5.5496070    1.6578880   -0.1078330  
C    -3.4222250   -4.1713340   -0.7529410  
C    -4.6087550   -4.6169400   -0.2362670  
C    -5.3424860   -3.4587690    0.1883470  
C    -4.5326340   -2.3262090   -0.0862640  
N    -3.3638500   -2.7930530   -0.6463730  
C    -4.9418690   -0.9931380    0.1753480  
C    -6.2396350   -0.8557240    0.6939940  
O    -6.7516570    0.3874840    0.9631640  
C    -7.0514730   -1.9789020    0.9788490  
O    -8.2850990   -1.6433510    1.5049750  
C    -6.6207350   -3.2705340    0.7457170  
H    -4.9284810   -5.6473980   -0.1677020  
H    -2.6706000   -2.2035530   -1.0800520  
H    -7.6463340    0.2567920    1.3256980  
H    -8.7930270   -2.4468840    1.6897600  
H    -7.2641620   -4.1177570    0.9730060  
H    -2.5969950   -4.7201850   -1.1839750  
C     6.2392250   -1.8721350    2.8013140  
C     5.3360730   -1.0159470    2.2611350  
C     5.2859210   -1.2710230    0.8384600  
C     6.2482820   -2.3745920    0.5931370  
N     6.8048140   -2.6788860    1.8165990  
C     6.5095120   -2.9332820   -0.6181770  
C     5.7573700   -2.4411550   -1.7530900  
O     5.9125960   -2.8339130   -2.8998980  
C     4.6352850   -1.3629620   -1.4904270  
O     3.8572200   -1.1571350   -2.4149090  
C     4.5386930   -0.7018470   -0.1704910  
H     4.7610560   -0.2762040    2.7936380  
H     7.2547450   -3.7061380   -0.7772780  
H     6.5444610   -1.9888210    3.8326740  
H     7.4765930   -3.4129150    1.9747720  
