62


C     0.2129700    1.7031060    0.0660220  
C     0.3218580    3.0490350    0.3437280  
C     1.7160230    3.3674220    0.4126670  
C     2.4305090    2.1648290    0.1835270  
N     1.4969450    1.1637490   -0.0011170  
C     3.8466480    2.0953220    0.1491770  
C     4.5217220    3.3138500    0.3318250  
O     5.8803940    3.3556590    0.2959650  
C     3.8137520    4.5163200    0.5805750  
O     4.6391510    5.6083220    0.7624420  
C     2.4337610    4.5592360    0.6313090  
H    -0.5046310    3.7245470    0.5174400  
H     1.7181170    0.2663470   -0.4096730  
H     6.1449040    4.2709490    0.4993330  
H     4.1096860    6.3868420    0.9895150  
H     1.9172430    5.4982600    0.8179570  
C    -2.1529420    1.2735040   -0.6813060  
C    -0.9603430    0.8732630   -0.1443910  
C    -1.1200650   -0.5372540    0.1918180  
C    -2.4978270   -0.9084290   -0.2112830  
N    -3.0865340    0.2432290   -0.7265980  
C    -3.0279950   -2.1501210   -0.0784380  
C    -2.2047100   -3.1990210    0.5213840  
O    -2.6001610   -4.3423520    0.6869320  
C    -0.7499950   -2.8231640    0.9808010  
O    -0.0438470   -3.6778280    1.4926200  
C    -0.2941230   -1.4465250    0.7740360  
H    -4.0379520   -2.3963310   -0.3873690  
H     0.7058390   -1.2012700    1.1150230  
H    -2.4329270    2.2480750   -1.0581540  
C    -4.7046890    0.6201070   -2.5690830  
C    -4.3938300    0.3451340   -1.2568180  
C    -5.6291590    0.2201350   -0.5279120  
C    -6.6663420    0.4343880   -1.4687660  
N    -6.0731420    0.6849140   -2.6931980  
C    -8.0217940    0.3883630   -1.1181440  
C    -8.3296140    0.1189980    0.2054190  
O    -9.6311120    0.0567930    0.5998560  
C    -7.2980260   -0.0956920    1.1625770  
O    -7.7689570   -0.3452910    2.4340390  
C    -5.9618430   -0.0462170    0.8154760  
H    -6.5681920    0.8589840   -3.5540670  
H    -8.8215880    0.5471960   -1.8339870  
H    -9.6380350   -0.1655370    1.5472080  
H    -7.0333170   -0.5874170    3.0162030  
H    -5.1889460   -0.2131440    1.5616700  
H    -4.0521010    0.7678700   -3.4173680  
C     4.5593370    0.8422660   -0.0533130  
C     5.7896520    0.5859850   -0.5939800  
C     6.0162920   -0.8346700   -0.5651890  
C     4.8147220   -1.4289880    0.0631640  
N     3.9181010   -0.3803760    0.2899390  
C     4.6643040   -2.7453950    0.3369670  
C     5.7479270   -3.6579940   -0.0394110  
O     5.7019680   -4.8595870    0.1690340  
C     7.0116940   -3.0554140   -0.7561880  
O     7.9129880   -3.8105890   -1.0919790  
C     7.0562350   -1.6124990   -0.9773960  
H     6.4609750    1.3289720   -0.9945760  
H     3.7775520   -3.1654910    0.8033630  
H     7.9421060   -1.2014010   -1.4519130  
H     3.3256090   -0.4083480    1.1118100  
