64


C     2.0095220   -0.5532420    0.3361450  
C     3.2735280   -0.0217620    0.1773360  
C     3.0772780    1.3745620   -0.1672140  
C     1.6791710    1.5959110   -0.2331720  
N     1.0397790    0.3996680    0.0995210  
C     1.1220230    2.8249050   -0.6138430  
C     1.9975630    3.8601790   -0.9056470  
O     1.5103310    5.0817850   -1.2703080  
C     3.3995640    3.6620100   -0.8236670  
O     4.1422670    4.7862720   -1.1295950  
C     3.9433690    2.4418770   -0.4703910  
H     0.0536930    2.9820910   -0.7061180  
H     2.2780470    5.6599490   -1.4226280  
H     5.0809930    4.6011590   -0.9762420  
H     5.0181630    2.3175430   -0.3925910  
H     1.7127030   -1.5417770    0.6517010  
C    -2.1469460    2.3845000    2.3285840  
C    -3.1864950    1.6175010    1.8689060  
C    -2.6385490    0.6675680    0.9348330  
C    -1.2420320    0.9164260    0.8880910  
N    -0.9712130    1.9620180    1.7420450  
C    -0.3530980    0.1451050    0.1170850  
C    -0.9057350   -0.9234760   -0.5839980  
O    -0.1188970   -1.7548190   -1.3312210  
C    -2.2999360   -1.1875720   -0.5466510  
O    -2.6685840   -2.2583270   -1.3344490  
C    -3.1985580   -0.3975000    0.1728360  
H    -4.2170130    1.6950950    2.1828820  
H    -0.0614890    2.3801450    1.8676780  
H    -0.7450020   -2.4050570   -1.7093320  
H    -3.3049350   -2.8019340   -0.8180640  
H    -2.1424150    3.1979130    3.0401200  
C    -6.5193620    2.4104320   -0.6347010  
C    -7.5574000    1.5210590   -0.5319300  
C    -6.9844350    0.2424860   -0.2239260  
C    -5.5765370    0.4244170   -0.1449020  
N    -5.3260700    1.7531810   -0.4148070  
C    -4.6645050   -0.6256160    0.1188860  
C    -5.2508730   -1.8801950    0.2828530  
O    -4.4513420   -2.9873350    0.5175530  
C    -6.6482210   -2.0852890    0.2092010  
O    -7.0241810   -3.4037930    0.4029360  
C    -7.5222820   -1.0450210   -0.0355290  
H    -8.6060260    1.7456320   -0.6697080  
H    -4.4161430    2.1846800   -0.3551510  
H    -5.0498160   -3.7495850    0.6233640  
H    -7.9900770   -3.4717580    0.3886530  
H    -8.5940380   -1.2223010   -0.0944010  
H    -6.5272360    3.4690160   -0.8533630  
C     4.1114040   -4.0604150   -1.2437440  
C     5.3959440   -4.2035160   -0.8187050  
C     5.7692730   -2.9727630   -0.1584880  
C     4.5807700   -2.0943480   -0.2249190  
N     3.5998360   -2.8266080   -0.8753730  
C     4.5039110   -0.8106720    0.2557910  
C     5.7408610   -0.2864960    0.8691810  
O     5.8352910    0.8480130    1.3130070  
C     7.0123790   -1.2180130    0.9690510  
O     8.0198360   -0.7553960    1.4865110  
C     6.9312290   -2.5639190    0.4278070  
H     6.0245720   -5.0719360   -0.9518610  
H     7.8113580   -3.1958440    0.4931420  
H     3.4886220   -4.7575180   -1.7891980  
H     2.7149890   -2.4392820   -1.1749930  
