60


C    -1.6283170   -1.7988690    2.5999660  
C    -2.8146280   -1.5785220    1.9460240  
C    -2.5289850   -0.7467570    0.8046870  
C    -1.1298550   -0.5150010    0.8167900  
N    -0.6119820   -1.1624480    1.9201720  
C    -0.4470340    0.2356170   -0.1629130  
C    -1.2466240    0.7373170   -1.1900290  
O    -0.6868650    1.4438870   -2.2060740  
C    -2.6516750    0.5216710   -1.2305350  
O    -3.2569770    1.1091530   -2.3126400  
C    -3.3311020   -0.1846270   -0.2344280  
H    -3.7699040   -2.0015710    2.2215330  
H     0.3516400   -1.1068570    2.2116760  
H    -1.4220200    1.6451020   -2.8192170  
H    -3.9296150    0.4686390   -2.6514610  
H    -1.4199190   -2.3757500    3.4898690  
C     1.9479210   -0.5506010    0.0048600  
C     1.0116450    0.4302670   -0.1220260  
C     1.7417530    1.6934920   -0.1753080  
C     3.1797080    1.3578900   -0.0661590  
N     3.2515070   -0.0341400    0.0680530  
C     4.1792930    2.2702100   -0.1452780  
C     3.8239480    3.6816190   -0.2929520  
O     4.6612970    4.5674770   -0.3696200  
C     2.3030580    4.0618860   -0.3471220  
O     1.9872780    5.2379780   -0.4333610  
C     1.3193750    2.9761690   -0.3001130  
H     5.2296560    2.0190240   -0.0856780  
H     0.2719490    3.2357630   -0.4014030  
H     1.8099890   -1.6212990    0.0208270  
C     4.2910480   -3.6616450   -2.0499400  
C     5.5371480   -3.9012710   -1.5837780  
C     5.8019430   -2.8328730   -0.6239580  
C     4.5545900   -2.0110400   -0.6498110  
N     3.6780760   -2.4986660   -1.4748540  
C     4.4116280   -0.8182920    0.1763280  
C     5.4424770   -0.5233720    1.0236460  
O     5.4260740    0.5030310    1.8917930  
C     6.6970920   -1.3313040    1.0544820  
O     7.5728120   -0.9900810    1.8511040  
C     6.8344350   -2.5124320    0.1776570  
H     6.2112830   -4.7019530   -1.8540710  
H     6.3007440    0.4704270    2.3418160  
H     7.7641040   -3.0696370    0.2403860  
H     3.7261630   -4.2279080   -2.7799220  
C    -6.2163900    0.5384410    2.9919330  
C    -7.3702530    0.1650630    2.3832110  
C    -7.0318120   -0.2274310    1.0312390  
C    -5.5610350   -0.0573190    0.9058170  
N    -5.1367590    0.4262690    2.1204300  
C    -4.8076600   -0.3208460   -0.2175440  
C    -5.5832850   -0.6975650   -1.3986980  
O    -5.1079560   -0.7781150   -2.5333160  
C    -7.1233920   -0.9956680   -1.2658320  
O    -7.7056060   -1.4570900   -2.2335490  
C    -7.7845830   -0.6846940   -0.0037320  
H    -8.3601520    0.1732820    2.8151630  
H    -8.8545100   -0.8516210    0.0676150  
H    -6.0548240    0.8998570    3.9988560  
H    -4.1635340    0.5203930    2.3738220  
