58


C    -0.1399880    1.1911550    0.4784680  
C     0.0041240    2.4576730    0.9752880  
C     1.3879270    2.8227860    0.8212950  
C     2.0562230    1.6666090    0.1820730  
N     1.0788330    0.6935520    0.0232790  
C     3.3747410    1.6027390   -0.1636760  
C     4.1946620    2.7904850    0.1686770  
O     5.3840690    2.8555700   -0.0899320  
C     3.5094830    4.0162640    0.8778450  
O     4.2022860    4.9829370    1.1574770  
C     2.0824580    3.9449300    1.1614810  
H    -0.7632960    3.0490190    1.4519780  
H     1.6157650    4.8016400    1.6371610  
H     1.1923860   -0.1354010   -0.5384310  
C    -2.5641990    1.0087840    0.1950770  
C    -3.5437370    0.0708650    0.0852130  
C    -2.8775790   -1.2355070    0.1659320  
C    -1.4343070   -0.9601530    0.3682220  
N    -1.2954740    0.4362090    0.3592780  
C    -0.4909640   -1.9161700    0.5601000  
C    -0.8917160   -3.3222160    0.4740470  
O    -0.1015200   -4.2404740    0.6171910  
C    -2.3934060   -3.6354310    0.1715990  
O    -2.7473460   -4.7953180    0.0430050  
C    -3.3299770   -2.5088660    0.0625380  
H     0.5456200   -1.7093480    0.7980860  
H    -4.3782420   -2.7448730   -0.0615430  
H    -2.6469110    2.0824800    0.1312710  
C     3.5386720   -0.1254940   -2.0057190  
C     3.9773420    0.4500070   -0.8464100  
C     5.1535880   -0.3200580   -0.4292610  
C     5.3375740   -1.3847020   -1.4441050  
N     4.3183400   -1.2146520   -2.3641830  
C     6.3259810   -2.3138640   -1.4218050  
C     7.2794260   -2.2826950   -0.3167330  
O     8.2037880   -3.0734610   -0.2094280  
C     7.0909860   -1.1771680    0.7846860  
O     7.8597310   -1.1466540    1.7310610  
C     5.9865660   -0.2184540    0.6356380  
H     6.4414590   -3.0819260   -2.1803390  
H     5.8922680    0.5577580    1.3864840  
H     2.7226100    0.1841790   -2.6470050  
H     4.2233430   -1.7404090   -3.2191260  
C    -7.2895140   -1.7737340    1.5731250  
C    -8.2322930   -1.0297230    0.9552800  
C    -7.4910030   -0.0497130    0.1664440  
C    -6.0524190   -0.3778760    0.4318080  
N    -5.9463890   -1.3772680    1.2543860  
C    -4.9575650    0.3808930   -0.1682560  
C    -5.3375530    1.4417940   -0.9422440  
O    -4.4700310    2.2833260   -1.5341450  
C    -6.7709710    1.7769970   -1.2354180  
O    -6.9844410    2.7287100   -1.9856590  
C    -7.8470360    0.9728190   -0.6324340  
H    -9.3076200   -1.1150110    1.0252420  
H    -5.0317660    2.9001780   -2.0581950  
H    -8.8703770    1.2551560   -0.8594880  
H    -7.4278790   -2.6032680    2.2553720  
