60


C    -1.7314380   -1.1416970    3.0725060  
C    -0.6269300   -0.6394470    2.4357200  
C    -1.0568670   -0.2059080    1.1358080  
C    -2.4489950   -0.4644330    1.0439330  
N    -2.8330430   -1.0264240    2.2443090  
C    -3.2301480   -0.1683070   -0.0927740  
C    -2.5508340    0.4128230   -1.1664560  
O    -3.2350660    0.7715690   -2.2800930  
C    -1.1537820    0.6609290   -1.1171550  
O    -0.6237570    1.1644750   -2.2853310  
C    -0.4049620    0.3537000    0.0160230  
H     0.3694970   -0.5730060    2.8488220  
H    -3.7526160   -1.3933180    2.4360050  
H    -2.5822430    1.1272210   -2.9109320  
H     0.0788330    1.8126580   -2.0904050  
H    -1.8313230   -1.5653290    4.0616900  
C     1.9533500   -0.4429600    0.1896350  
C     3.2304120    0.0238940    0.0775740  
C     3.1115750    1.4628850   -0.1871230  
C     1.6589810    1.7603970   -0.2146810  
N     1.0018160    0.5674650    0.0271370  
C     1.1219050    2.9950620   -0.4367890  
C     2.0272430    4.1142560   -0.6774340  
O     1.6428980    5.2598580   -0.8552120  
C     3.5664100    3.8115870   -0.7051320  
O     4.3443680    4.7131020   -0.9674680  
C     4.0205230    2.4424130   -0.4128050  
H     0.0584220    3.2012900   -0.3564560  
H     5.0897070    2.2723980   -0.3732430  
H     1.6119500   -1.4482140    0.3944150  
C     4.2965150   -3.9258550   -1.6441520  
C     3.6803370   -2.7543170   -1.3363230  
C     4.5541050   -2.0246630   -0.4417030  
C     5.7517240   -2.8800840   -0.2576550  
N     5.5207820   -4.0247540   -0.9953550  
C     6.8398130   -2.5542260    0.4878910  
C     6.8437600   -1.2655140    1.1585090  
O     7.7773210   -0.8559790    1.8312490  
C     5.5757760   -0.3439470    1.0085760  
O     5.5645180    0.7171120    1.6099950  
C     4.4401480   -0.7978030    0.1683070  
H     2.7253470   -2.4229930   -1.7141370  
H     7.7052440   -3.1999030    0.5989040  
H     3.9628770   -4.7258990   -2.2915570  
H     6.1819300   -4.7772170   -1.1079380  
C    -6.5935230    1.3368080    2.2999760  
C    -7.6179900    0.6610380    1.7193350  
C    -7.0529550   -0.1633350    0.6705080  
C    -5.5918890    0.0905120    0.6925390  
N    -5.3742810    0.9850280    1.7267210  
C    -4.6785470   -0.4585570   -0.1607720  
C    -5.2019790   -1.4143190   -1.1612740  
O    -4.4816150   -2.0318730   -1.9249160  
C    -6.7530970   -1.6794630   -1.2132070  
O    -7.1864850   -2.4364110   -2.0676470  
C    -7.6097470   -1.0128870   -0.2336920  
H    -8.6627970    0.7257260    1.9860600  
H    -8.6767950   -1.2081940   -0.2779770  
H    -6.6168730    2.0552490    3.1089050  
H    -4.4989150    1.4639990    1.8772820  
