64


C     0.3556220    0.8824150    1.7879530  
C    -0.9301490    0.4139840    1.7648640  
C    -1.6399340    1.1683030    0.7695850  
C    -0.7156550    2.0866090    0.2111490  
N     0.5051160    1.9021480    0.8519880  
C    -1.0479270    2.9597900   -0.8295040  
C    -2.3469500    2.9103010   -1.3064540  
O    -2.7319620    3.7478150   -2.3132530  
C    -3.2963960    2.0119950   -0.7533210  
O    -4.5505760    2.1295910   -1.3206450  
C    -2.9725110    1.1312990    0.2781720  
H    -1.3208550   -0.3819570    2.3829920  
H    -0.3399510    3.6608300   -1.2550160  
H    -3.6690390    3.5621690   -2.4973770  
H    -5.1575620    1.4853830   -0.9249710  
H     1.1932970    0.6016140    2.4106600  
C     4.2183780    0.2437010   -0.6926650  
C     4.9452650    1.4093040   -0.7037820  
C     4.0743950    2.4484580   -0.2313500  
C     2.8290730    1.8400620    0.0650270  
N     2.9403270    0.4924700   -0.2128430  
C     1.7281200    2.5591860    0.5595290  
C     1.8938780    3.9304550    0.7546990  
O     0.8630830    4.6790880    1.2348260  
C     3.1343630    4.5490830    0.4524330  
O     3.1403670    5.9090210    0.6971710  
C     4.2176580    3.8343390   -0.0263120  
H     5.9861490    1.4992040   -0.9799090  
H     2.1710190   -0.1602160   -0.2531600  
H     1.1759040    5.5995520    1.2799570  
H     4.0092210    6.2750510    0.4756950  
H     5.1562420    4.3389290   -0.2450890  
C     5.2930070   -1.3227740   -2.2726160  
C     5.5045980   -2.6679140   -2.3724220  
C     4.9028680   -3.2822040   -1.2208320  
C     4.3369040   -2.2431460   -0.4402180  
N     4.5794800   -1.0395100   -1.1069100  
C     3.6944070   -2.4830490    0.7813390  
C     3.6019300   -3.7992990    1.2087110  
O     2.9814630   -4.0861380    2.3909350  
C     4.1476960   -4.8536590    0.4316880  
O     3.9727660   -6.1064250    0.9884560  
C     4.7955950   -4.6102690   -0.7655440  
H     6.0188470   -3.1692890   -3.1809050  
H     3.2859930   -1.6922820    1.4000080  
H     3.0247480   -5.0504970    2.5106050  
H     4.3612790   -6.7762150    0.4066490  
H     5.2173270   -5.4324140   -1.3405260  
H     5.5587020   -0.5140130   -2.9374420  
C    -4.2560290    0.0683280    2.1879360  
C    -3.9765830    0.2200820    0.8592310  
C    -4.8471260   -0.7222080    0.1562970  
C    -5.6532930   -1.4130700    1.1957820  
N    -5.2379490   -0.8906030    2.4035420  
C    -6.5880660   -2.3630320    0.9403780  
C    -6.8255520   -2.7503470   -0.4473300  
O    -7.6521190   -3.5882630   -0.7734920  
C    -5.9672720   -2.0524690   -1.5648510  
O    -6.1356870   -2.3774290   -2.7291690  
C    -4.9924820   -1.0322150   -1.1618430  
H    -7.1659100   -2.8554110    1.7166730  
H    -4.3981500   -0.5686500   -1.9429980  
H    -3.8178200    0.5929920    3.0265190  
H    -5.6039470   -1.1566240    3.3041670  
