62


C     1.4526520   -0.3488330    1.9878550  
C     0.6904530    0.1273140    0.9474520  
C     1.5884380    0.5026990   -0.1144210  
C     2.8957890    0.2195440    0.3483080  
N     2.7826020   -0.3029200    1.6238700  
C     4.0581680    0.4830340   -0.4091620  
C     3.8534660    1.0489030   -1.6687630  
O     4.9182270    1.2867530   -2.4770770  
C     2.5449780    1.3402170   -2.1419670  
O     2.5292840    1.8884200   -3.4074080  
C     1.4175710    1.0760680   -1.3893640  
H     3.5614850   -0.4819980    2.2389590  
H     4.5887520    1.7482290   -3.2680160  
H     1.6207060    2.1172490   -3.6536790  
H     0.4256930    1.3034260   -1.7715790  
H     1.1439320   -0.7285940    2.9508600  
C    -1.4532300    1.0088460    1.8545830  
C    -2.7909200    0.8848630    1.5890620  
C    -2.9217470    0.0174920    0.4528850  
C    -1.6036740   -0.3692560    0.0860310  
N    -0.7147800    0.2599400    0.9494300  
C    -1.3328140   -1.2708170   -0.9450350  
C    -2.4228700   -1.8086900   -1.6149630  
O    -2.2284830   -2.6998580   -2.6243280  
C    -3.7513050   -1.4565540   -1.2682290  
O    -4.7072740   -2.0663730   -2.0539120  
C    -4.0341210   -0.5211910   -0.2634990  
H    -3.5854010    1.3724840    2.1340570  
H    -0.3256290   -1.5694980   -1.2121210  
H    -3.1225600   -2.9610190   -2.9180480  
H    -5.3966360   -2.4110670   -1.4480620  
H    -0.9395120    1.5881680    2.6083790  
C    -6.0155960    3.4442090    0.3435970  
C    -5.1034860    2.5005710    0.0155050  
C    -5.7794330    1.2200200    0.2236370  
C    -7.1368150    1.6104250    0.6928380  
N    -7.2723980    2.9037770    0.7716210  
C    -8.1459810    0.6311270    1.0099210  
C    -7.8323470   -0.6695270    0.8226220  
O    -8.6858200   -1.6877650    1.0442550  
C    -6.4946240   -1.0855530    0.2903330  
O    -6.3564110   -2.2951910    0.0596480  
C    -5.4070430   -0.0829780    0.0615370  
H    -4.0929350    2.6401690   -0.3373990  
H    -9.1210780    0.9466590    1.3636530  
H    -8.2035100   -2.5014140    0.7871760  
H    -5.9041500    4.5212630    0.3117790  
C     5.9382850   -3.2940270    0.7963100  
C     7.1655960   -2.8432030    1.1638070  
C     7.1752950   -1.4078540    0.9682610  
C     5.8302390   -1.0559440    0.4529000  
N     5.1173110   -2.2423330    0.4017610  
C     5.4170990    0.1961150    0.0987130  
C     6.3961690    1.2895330    0.2886630  
O     6.1259220    2.4606660    0.0928260  
C     7.8388330    0.9306170    0.8089510  
O     8.6593410    1.8287770    0.9163730  
C     8.1349710   -0.4604410    1.1458180  
H     7.9857980   -3.4420760    1.5320530  
H     9.1309350   -0.6927250    1.5102960  
H     5.5529990   -4.3053060    0.7900650  
H     4.2216940   -2.3369860   -0.0532830  
