60


C     1.7325760   -2.7994830    0.5070130  
C     0.7076770   -1.8856660    0.4227630  
C     1.2946360   -0.5978730    0.1967830  
C     2.6934870   -0.7997880    0.1577850  
N     2.9292540   -2.1457610    0.3412040  
C     3.6448860    0.2382180    0.0203840  
C     3.1294140    1.5277940   -0.0790950  
O     3.9678300    2.5782210   -0.2583720  
C     1.7313810    1.7816210   -0.0547340  
O     1.4318810    3.0905150   -0.1808850  
C     0.7740620    0.7356140    0.0623780  
H    -0.3357890   -2.1279180    0.5435430  
H     3.8444650   -2.5665150    0.3829780  
H     3.4135270    3.3808530   -0.2563330  
H     0.4276530    3.1781430   -0.1232440  
H     1.7016460   -3.8672180    0.6701770  
C    -0.6301830    1.0318770    0.0244250  
C    -1.7421450    0.2017270   -0.0133570  
C    -2.8883530    1.0495720   -0.0600960  
C    -2.3309310    2.4366580   -0.0531840  
N    -1.0258800    2.4104300   -0.0009810  
C    -3.1575120    3.6030280   -0.1188670  
C    -4.4951810    3.3966250   -0.1859810  
O    -5.3998130    4.3706830   -0.2528030  
C    -5.1139670    2.0056090   -0.1442940  
O    -6.3421250    1.9787620   -0.0744550  
C    -4.2464080    0.8183540   -0.1178430  
H    -1.7505520   -0.8698090   -0.1197310  
H    -2.7217670    4.5956760   -0.1206080  
H    -6.2718490    3.9067470   -0.2422190  
C    -3.7019190   -2.6348350    2.5779720  
C    -4.6246170   -3.4792900    2.0497780  
C    -5.2321360   -2.8017140    0.9234220  
C    -4.5761570   -1.4745540    0.8386130  
N    -3.6744900   -1.4297270    1.8829120  
C    -4.8771410   -0.5047490   -0.0825450  
C    -5.8783580   -0.8679450   -1.1133960  
O    -6.1049830   -0.1676330   -2.0838030  
C    -6.6340550   -2.2397040   -0.9884830  
O    -7.5336640   -2.4851880   -1.7768820  
C    -6.2193610   -3.1669590    0.0609500  
H    -4.8719110   -4.4681520    2.4072760  
H    -6.7319290   -4.1218570    0.1257560  
H    -3.0440660   -2.7775160    3.4252260  
H    -2.9765530   -0.7076170    1.9935130  
C     6.2796640   -2.2112770   -2.5950100  
C     5.2168500   -1.5904120   -2.0197530  
C     5.7191600   -0.8298790   -0.8919160  
C     7.1846250   -1.0597400   -0.8641330  
N     7.4542760   -1.9226840   -1.9100480  
C     8.0459830   -0.4912440    0.0180790  
C     7.5007070    0.4099690    1.0232880  
O     8.1911990    1.0000260    1.8396470  
C     5.9425920    0.6198180    1.0673690  
O     5.4707200    1.2521170    1.9931260  
C     5.0990450   -0.0082890    0.0127770  
H     4.1909930   -1.6365390   -2.3524730  
H     9.1187280   -0.6570710   -0.0008320  
H     6.3085350   -2.8560150   -3.4635620  
H     8.3784680   -2.2095280   -2.1922200  
