58


C    -0.3442540    1.5176610    0.4272440  
C     1.0114560    1.4484070    0.2422070  
C     1.3712420    0.0646880    0.0559810  
C     0.1100720   -0.6997480    0.1466650  
N    -0.8980780    0.2336640    0.3322790  
C    -0.0137980   -2.0573980    0.0609310  
C     1.2265090   -2.8051340   -0.2398030  
O     1.2309000   -3.9956830   -0.4907640  
C     2.5846610   -2.0231520   -0.3025710  
O     3.6157860   -2.6644130   -0.3995040  
C     2.5736650   -0.5473890   -0.1895900  
H     1.6827410    2.2908070    0.1647030  
H    -1.8025520   -0.0132060    0.7086640  
C    -0.8648820    3.8301840    1.2709260  
C    -1.2032220    2.6647690    0.6347700  
C    -2.5834240    2.8278770    0.1791050  
C    -3.0050900    4.1813080    0.6126330  
N    -1.9096550    4.7301010    1.2620350  
C    -4.2277840    4.7178190    0.3813230  
C    -5.2074000    3.9213120   -0.3610650  
O    -6.3352250    4.3160350   -0.6049780  
C    -4.7668310    2.5021830   -0.8698730  
O    -5.5446060    1.8354960   -1.5336360  
C    -3.4199300    2.0296110   -0.5333750  
H    -4.5181040    5.7113650    0.7084520  
H    -3.1348740    1.0471080   -0.8929110  
H     0.0687880    4.0839010    1.7552480  
H    -1.8985070    5.6347960    1.7079790  
C     4.9755000    1.9683750    2.6055160  
C     4.0073830    1.2012340    2.0414030  
C     4.4206180    0.9134280    0.6823050  
C     5.7314260    1.5844730    0.5025980  
N     5.9949690    2.2315830    1.6961550  
C     6.4914540    1.5229360   -0.6209410  
C     5.9895290    0.7495410   -1.7482230  
O     6.6025330    0.6148870   -2.7957830  
C     4.5786360    0.0721690   -1.6102760  
O     4.0902640   -0.4637000   -2.5883530  
C     3.8554080    0.1648130   -0.3138900  
H     3.1051180    0.8527110    2.5204170  
H     7.4596400    2.0049340   -0.7155010  
H     5.0352660    2.3689400    3.6090070  
H     6.8703220    2.6784920    1.9204110  
C    -3.9251940   -1.7629460   -2.0097200  
C    -4.6035660   -2.7177750   -1.3274500  
C    -3.7008560   -3.2739460   -0.3404120  
C    -2.4183820   -2.5473700   -0.5011860  
N    -2.6293000   -1.6121720   -1.5045890  
C    -1.2821520   -2.7863910    0.2201300  
C    -1.3798030   -3.8201050    1.2796420  
O    -0.4869400   -4.0166430    2.0836210  
C    -2.7155210   -4.6346660    1.4246940  
O    -2.7637410   -5.5359040    2.2466270  
C    -3.8487590   -4.2644390    0.5795340  
H    -5.6335430   -3.0049860   -1.4811730  
H    -4.7748620   -4.8174530    0.7024490  
H    -4.2641540   -1.1213370   -2.8122900  
H    -1.8728680   -1.1728900   -2.0098670  
