60


C    -0.3792200    4.3550790    0.3239450  
C     0.3561940    3.2078620    0.1267580  
C     1.7434050    3.6463840   -0.0745120  
C     1.7314510    5.1245690    0.0322930  
N     0.4108370    5.4779480    0.2666870  
C     2.8173860    5.9267460   -0.0869070  
C     4.1131630    5.2984100   -0.3394770  
O     5.1486930    5.9330480   -0.4604000  
C     4.1547930    3.7326790   -0.4586270  
O     5.2277050    3.1824040   -0.6460640  
C     2.8976540    2.9816680   -0.3309460  
H     2.7749840    7.0087970   -0.0091550  
H     2.9278970    1.9051540   -0.4367720  
H    -1.4389710    4.4509330    0.5194900  
H     0.0852000    6.4228090    0.4058900  
C    -0.1593430    1.8654390    0.1344230  
C    -1.4681130    1.4358280    0.1643310  
C    -1.4170370    0.0088570    0.1631810  
C     0.0494060   -0.3109060    0.1252730  
N     0.7647190    0.7763540    0.1069480  
C     0.5536630   -1.6827470    0.0902740  
C    -0.4282660   -2.6420850    0.0170850  
O    -0.1560800   -3.9676820   -0.0332840  
C    -1.8878890   -2.3701310    0.0544650  
O    -2.6281030   -3.3584400    0.0809270  
C    -2.3819750   -0.9698990    0.1182900  
H    -2.3619740    2.0408740    0.1327980  
H    -1.0465820   -4.3956330   -0.0292830  
C    -3.8053190   -0.7020130    0.1466370  
C    -4.4536490    0.2988980    0.8283720  
C    -5.8553230    0.1378820    0.5241230  
C    -5.8934330   -1.0355460   -0.4063220  
N    -4.7086360   -1.5262200   -0.6174750  
C    -7.1339420   -1.5087960   -0.9671720  
C    -8.2719170   -0.8704950   -0.6064180  
O    -9.4957850   -1.2047840   -1.0413750  
C    -8.2656450    0.3045280    0.3425730  
O    -9.3520940    0.8213810    0.6078070  
C    -6.9903460    0.7787670    0.8922480  
H    -4.0211920    1.0133710    1.5140230  
H    -7.1353720   -2.3557980   -1.6439910  
H   -10.1062820   -0.5669210   -0.6080110  
H    -7.0247970    1.6304380    1.5648840  
C     1.9698270   -1.9714740    0.1115960  
C     3.0590530   -1.1208010    0.2905410  
C     4.2377680   -1.9052280    0.2209060  
C     3.8304910   -3.2543160    0.0044960  
N     2.4612660   -3.2655560   -0.0564900  
C     4.7488270   -4.3055760   -0.1152280  
C     6.0942500   -3.9883380   -0.0193290  
O     7.0327680   -4.9678410   -0.1307560  
C     6.5193380   -2.6418230    0.1913330  
O     7.8918030   -2.5030410    0.2560320  
C     5.6172020   -1.6083310    0.3123640  
H     2.9866050   -0.0613040    0.4661270  
H     1.8670390   -4.0724620   -0.1754160  
H     4.4500260   -5.3353140   -0.2807180  
H     7.9045480   -4.5425460   -0.0504270  
H     8.1184620   -1.5650210    0.3428620  
H     5.9571340   -0.5859580    0.4634970  
