58


C     3.0377990   -0.5130900   -1.8529570  
C     1.7469770   -0.4471080   -1.4470360  
C     1.7010290    0.3844160   -0.2601220  
C     3.0855600    0.8118940    0.0160860  
N     3.8593760    0.2243430   -0.9870350  
C     3.4801980    1.6315010    1.0205630  
C     2.4537290    2.1373610    1.9241490  
O     2.6781650    2.9245900    2.8275420  
C     0.9727830    1.6444500    1.7216640  
O     0.1305950    1.9478430    2.5440420  
C     0.6687420    0.7875590    0.5444560  
H     0.9028300   -0.9096620   -1.9364420  
H     4.5101340    1.9317330    1.1780300  
H     3.4850550   -1.0168500   -2.6989190  
C     5.8289100    1.4260560   -1.8396180  
C     7.1723500    1.2792070   -1.8082860  
C     7.4723240    0.0790940   -1.0453970  
C     6.1724880   -0.4850450   -0.6154290  
N     5.2057020    0.3815570   -1.1286850  
C     6.0130830   -1.6127630    0.1147510  
C     7.2173030   -2.3425390    0.5179550  
O     7.1800900   -3.3717520    1.1710400  
C     8.6133340   -1.7650760    0.0808100  
O     9.6276890   -2.3574820    0.4074270  
C     8.6395980   -0.5283140   -0.7119310  
H     7.8970810    1.9365950   -2.2666280  
H     5.0458890   -2.0005310    0.4163110  
H     9.6094230   -0.1408740   -1.0088010  
H     5.2114320    2.1853740   -2.3001000  
C    -0.9899670   -1.0489070    0.2877010  
C    -2.3251890   -1.2087590    0.1298410  
C    -2.9229870    0.1097960    0.0917480  
C    -1.8081910    1.0714080    0.2425820  
N    -0.6394510    0.3070270    0.3743140  
C    -1.9381070    2.4175860    0.1684940  
C    -3.2733820    2.9712920   -0.0373200  
O    -3.4852240    4.1674260   -0.1530230  
C    -4.4854060    1.9799120   -0.1102830  
O    -5.6143080    2.4331770   -0.1389700  
C    -4.2149640    0.5176380   -0.0924490  
H    -2.8500260   -2.1491830    0.0552330  
H    -1.1077960    3.1088020    0.2508530  
H    -0.2122740   -1.7952470    0.3768580  
C    -6.0405230   -2.6309710    2.4872580  
C    -5.2450890   -1.6507010    1.9856100  
C    -5.7463170   -1.3198320    0.6675140  
C    -6.9213220   -2.1989120    0.4439170  
N    -7.0295670   -2.9841640    1.5763300  
C    -7.7106250   -2.1787290   -0.6605490  
C    -7.3868930   -1.2327370   -1.7197440  
O    -8.0438750   -1.1207200   -2.7429390  
C    -6.1165320   -0.3266340   -1.5389320  
O    -5.7591990    0.3713080   -2.4707470  
C    -5.3540960   -0.3983770   -0.2657240  
H    -4.4030410   -1.1938830    2.4828860  
H    -8.5780220   -2.8190990   -0.7876640  
H    -5.9901980   -3.1299980    3.4460520  
H    -7.7840720   -3.6276810    1.7569570  
