60


C     0.2582580    4.3048170    0.2877150  
C    -0.4745560    5.4407740    0.2836770  
C    -1.8533070    5.0717250    0.0457760  
C    -1.8725450    3.5952680   -0.0955900  
N    -0.5383410    3.1679730    0.0707830  
C    -2.9945710    2.8845440   -0.3634890  
C    -4.2671120    3.6065020   -0.4764020  
O    -5.3247320    3.0340860   -0.6854730  
C    -4.2647040    5.1657170   -0.3164330  
O    -5.3145210    5.7799040   -0.4151500  
C    -2.9801160    5.8211500   -0.0563640  
H    -0.1003360    6.4421750    0.4418060  
H    -2.9943350    1.8107090   -0.4871030  
H    -2.9736580    6.9025570    0.0407070  
H     1.3173370    4.1757440    0.4548830  
C    -0.0258030    1.8846010    0.0287220  
C     1.2998970    1.5090490   -0.0356930  
C     1.2771740    0.0823400   -0.0467160  
C    -0.1641060   -0.2719670    0.0166240  
N    -0.9156440    0.8015460    0.0667480  
C    -0.6664550   -1.6462520   -0.0033560  
C     0.3078020   -2.6039250   -0.1645900  
O     0.0905960   -3.9139410   -0.2199940  
C     1.7803730   -2.2677660   -0.2664610  
O     2.5218050   -3.2437870   -0.4572830  
C     2.2685440   -0.8841520   -0.1195050  
H     2.1611780    2.1438260   -0.1632340  
H     0.9823870   -4.3139070   -0.3536270  
C    -2.0819900   -1.9383190    0.1155970  
C    -3.0862140   -1.1184250    0.5665060  
C    -4.2990260   -1.8968330    0.4818230  
C    -3.8515120   -3.2165150   -0.0650590  
N    -2.5709180   -3.2416490   -0.2753940  
C    -4.7864460   -4.2864350   -0.3111390  
C    -6.0886140   -4.0591660   -0.0218410  
O    -7.0701680   -4.9576330   -0.1913910  
C    -6.5685680   -2.7376410    0.5354230  
O    -7.7734070   -2.6342730    0.7689120  
C    -5.6010000   -1.6593830    0.7681850  
H    -2.9912290   -0.1057920    0.9214120  
H    -4.4383850   -5.2325260   -0.7104120  
H    -7.8887890   -4.4981580    0.1040290  
H    -5.9827640   -0.7182840    1.1518470  
C     3.6849600   -0.6295500   -0.0560140  
C     4.3755520    0.5205180    0.3480600  
C     5.7608720    0.2500340    0.2608540  
C     5.8932560   -1.0937700   -0.2059910  
N     4.6326480   -1.5925920   -0.3875880  
C     7.1385270   -1.7014310   -0.4071260  
C     8.2662270   -0.9457080   -0.1317910  
O     9.5005880   -1.4824590   -0.3067730  
C     8.1540440    0.4007520    0.3382410  
O     9.3741200    1.0022630    0.5603940  
C     6.9304850    0.9991690    0.5354640  
H     3.9236850    1.4268690    0.7195490  
H     4.3712540   -2.5368320   -0.6370090  
H     7.2469990   -2.7209360   -0.7610530  
H    10.1544410   -0.8045360   -0.0606530  
H     9.2415950    1.9061540    0.8828930  
H     6.8661860    2.0243770    0.8935310  
