58


C    -3.6193740   -2.4448010    2.7745550  
C    -4.4375620   -3.3837050    2.2331150  
C    -5.0214100   -2.8079650    1.0400770  
C    -4.4643520   -1.4381990    0.9271570  
N    -3.6332690   -1.2792990    2.0179930  
C    -4.7836350   -0.5368560   -0.0536680  
C    -5.7012350   -1.0190750   -1.1153990  
O    -5.9285580   -0.3772740   -2.1244680  
C    -6.3446180   -2.4452110   -0.9743390  
O    -7.1638920   -2.8028630   -1.8061620  
C    -5.9213500   -3.2893830    0.1397240  
H    -4.6291840   -4.3726800    2.6229550  
H    -6.3591830   -4.2796470    0.2204000  
H    -3.0102480   -2.4955490    3.6673810  
H    -3.0501080   -0.4721630    2.1762400  
C    -0.6669660    1.2513380    0.0028820  
C    -1.7470780    0.3922040    0.0025560  
C    -2.9444110    1.1823240   -0.0703850  
C    -2.5030700    2.5948310   -0.1257900  
N    -1.1289390    2.5695250   -0.0573570  
C    -3.3298940    3.6661340   -0.2523690  
C    -4.7611440    3.4238310   -0.3334250  
O    -5.5871580    4.3092510   -0.4964510  
C    -5.2699400    1.9462230   -0.1801880  
O    -6.4634580    1.7538340   -0.0404230  
C    -4.2760020    0.8360430   -0.1221790  
H    -1.6694730   -0.6819450    0.0223500  
H    -2.9730950    4.6889790   -0.3213990  
H    -0.5194940    3.3709660   -0.1255570  
C     1.4061520   -2.6017490    0.3773300  
C     2.7071790   -2.2283380    0.3061640  
C     2.6826550   -0.7805420    0.1446340  
C     1.2312050   -0.4396240    0.1451310  
N     0.4996530   -1.5096170    0.2849200  
C     0.7500460    0.9413200    0.0354750  
C     1.7363620    1.8917460   -0.0415830  
O     1.4992850    3.2138490   -0.1549410  
C     3.1948930    1.5732470   -0.0839200  
O     3.9565050    2.5115940   -0.3098080  
C     3.6613780    0.1622500    0.0653270  
H     3.5837830   -2.8536860    0.3981900  
H     2.3908250    3.6258070   -0.2534540  
H     1.0017110   -3.5982110    0.5073340  
C     6.2180170   -2.4956460   -2.3904630  
C     7.4292540   -2.1626810   -1.8814690  
C     7.2021670   -1.1846000   -0.8369300  
C     5.7328810   -0.9743850   -0.7781940  
N     5.1994000   -1.7942030   -1.7427540  
C     5.1050490   -0.0854340    0.0582770  
C     5.9583720    0.6440110    1.0211400  
O     5.4966800    1.3414810    1.9068630  
C     7.5133800    0.4609950    0.9388630  
O     8.2220990    1.1211990    1.6791610  
C     8.0509280   -0.5047990   -0.0223180  
H     8.3883540   -2.5468470   -2.1961220  
H     9.1285240   -0.6314270   -0.0610410  
H     5.9683110   -3.1883640   -3.1829020  
H     4.2120940   -1.8996650   -1.9229130  
