58


C    -5.7405740   -1.7062610   -1.0913610  
C    -5.0228770   -0.7208980   -0.4729360  
C    -5.9801110    0.3467780   -0.1648680  
C    -7.2971190   -0.1137040   -0.6674960  
N    -7.0769980   -1.3579970   -1.2295190  
C    -8.4529240    0.5912450   -0.5722730  
C    -8.4091250    1.9104750    0.0498200  
O    -9.3928650    2.6236510    0.1754230  
C    -7.0189670    2.4324470    0.5660350  
O    -6.9515180    3.5459340    1.0600330  
C    -5.8447910    1.5602270    0.4251500  
H    -9.4065900    0.2275020   -0.9424750  
H    -4.9027070    1.9191190    0.8232340  
H    -5.3978170   -2.6739210   -1.4352420  
H    -7.8041320   -1.9754400   -1.5560380  
C    -1.6097140   -1.5983080   -3.0803740  
C    -0.5974830   -1.5237240   -2.1788380  
C    -1.1812280   -1.1742860   -0.8994690  
C    -2.6384270   -1.0626810   -1.1314110  
N    -2.8350480   -1.3556400   -2.4681540  
C    -3.5824170   -0.7457790   -0.1907260  
C    -3.0799380   -0.4924260    1.1692440  
O    -3.8096720   -0.2208940    2.1085650  
C    -1.5324410   -0.5731370    1.4359210  
O    -1.1235800   -0.2354550    2.5318000  
C    -0.6263530   -0.9801200    0.3375300  
H     0.4488290   -1.7044530   -2.3727200  
H    -1.5729530   -1.8291390   -4.1368220  
H    -3.7117340   -1.2095880   -2.9453780  
C     3.0157670    1.1270320   -1.1168760  
C     1.7438380    0.7041050   -0.9142510  
C     1.7927900   -0.3748070    0.0489180  
C     3.2213840   -0.5488110    0.3979710  
N     3.9317860    0.3930740   -0.3544160  
C     3.6864710   -1.4140980    1.3312870  
C     2.7232700   -2.2587340    2.0299400  
O     3.0409360   -3.0455460    2.9072920  
C     1.2106580   -2.1477780    1.6306620  
O     0.4151140   -2.9308030    2.1172540  
C     0.8077310   -1.1218880    0.6350730  
H     0.8573090    1.0992150   -1.3868220  
H     4.7340820   -1.5105760    1.5911980  
H     3.3870650    1.9053340   -1.7699740  
C     6.3779900    3.9417330    0.4220890  
C     5.3397860    3.0694570    0.3082530  
C     5.8936910    1.8016150   -0.1064670  
C     7.3566680    2.0052040   -0.2312290  
N     7.5790970    3.3312010    0.0915410  
C     8.2521610    1.0438880   -0.5739260  
C     7.7503960   -0.2942920   -0.8570340  
O     8.4705630   -1.2396310   -1.1333110  
C     6.1955780   -0.5352880   -0.8063410  
O     5.7520020   -1.6152060   -1.1510960  
C     5.3281320    0.5822310   -0.3682360  
H     4.3018070    3.2818450    0.5152940  
H     9.3212560    1.2180640   -0.6409200  
H     6.3671320    4.9802690    0.7253680  
H     8.4878240    3.7643940    0.1447650  
