58


C    -3.5762090   -0.1606910   -0.0190080  
C    -4.0025760    1.1291030    0.2669160  
C    -5.4315530    1.1468280    0.2332710  
C    -5.8547580   -0.2369870   -0.0927520  
N    -4.6968420   -0.9650250   -0.2388490  
C    -7.1483850   -0.6328580   -0.2057230  
C    -8.2011720    0.3574450    0.0021270  
O    -9.3910980    0.0921850   -0.0776340  
C    -7.7762060    1.8315480    0.3466570  
O    -8.6442570    2.6743300    0.5238030  
C    -6.3496650    2.1369460    0.4436000  
H    -3.3744460    1.9625030    0.5354220  
H    -7.4412110   -1.6508960   -0.4427030  
H    -6.0668840    3.1574200    0.6842160  
H    -4.6167520   -1.9651120   -0.3664710  
C     0.5767440    1.6048450   -0.2062830  
C    -0.8180230    1.4597260   -0.2313900  
C    -1.0743530    0.0849920   -0.1086150  
C     0.2959530   -0.5405600   -0.0284050  
N     1.2429050    0.3584610   -0.0691760  
C     0.5005690   -1.9671310    0.0539440  
C    -0.6365440   -2.7232810    0.0310290  
O    -0.6273620   -4.0495320    0.1179140  
C    -2.0298110   -2.1416620   -0.0664370  
O    -2.9387950   -2.9860470   -0.1242740  
C    -2.2355190   -0.6938460   -0.0676880  
H    -1.5348920    2.2521850   -0.3768580  
H    -1.5696500   -4.3263830    0.0323400  
C     0.9186710    4.0988860   -0.4744730  
C     1.3468720    2.7834790   -0.3102780  
C     2.8195310    2.8996440   -0.2694050  
C     3.0705480    4.3522940   -0.4267370  
N     1.9357680    5.0290570   -0.5449820  
C     4.3854240    4.9022550   -0.4410790  
C     5.4260160    4.0358830   -0.2967880  
O     6.7088550    4.4049930   -0.2877980  
C     5.2068360    2.5536420   -0.1228970  
O     6.2036750    1.8479370    0.0191680  
C     3.8293280    2.0195360   -0.1239680  
H     4.5340160    5.9693640   -0.5618340  
H     7.2238180    3.5751790   -0.1672870  
H     3.6775690    0.9529640   -0.0064780  
H    -0.1079900    4.4392980   -0.5500070  
C     4.0703390   -1.5838240    2.7116710  
C     2.8433820   -1.4547170    2.1423970  
C     2.8171230   -2.3056130    0.9724630  
C     4.1521450   -2.9542080    0.9099900  
N     4.8610620   -2.4717230    1.9926430  
C     4.5409470   -3.8501440   -0.0323390  
C     3.5857060   -4.2093660   -1.0703250  
O     3.8242880   -5.0225650   -1.9492990  
C     2.1779810   -3.5096450   -1.0590120  
O     1.4147110   -3.7325550   -1.9816870  
C     1.8437900   -2.5782160    0.0492820  
H     2.0403270   -0.8242910    2.4898250  
H     5.5185020   -4.3221040   -0.0430260  
H     4.4678620   -1.1074180    3.5981560  
H     5.8105520   -2.7238900    2.2172620  
