60


C    -2.7668170   -1.7137310   -0.0349360  
C    -2.1257150   -0.4707590    0.0248690  
C    -3.0838500    0.5246170   -0.3060780  
C    -4.3096920   -0.1532880   -0.5584930  
N    -4.0824240   -1.4945020   -0.4002600  
C    -5.4959120    0.5136370   -0.8820390  
C    -5.4549010    1.8972360   -0.9447040  
O    -6.5761100    2.5915930   -1.2679290  
C    -4.2507650    2.6083040   -0.6846790  
O    -4.3876840    3.9674590   -0.8161060  
C    -3.0538190    1.9512970   -0.3674960  
H    -1.1217600   -0.2897060    0.3763680  
H    -4.7553140   -2.2527160   -0.4194370  
H    -6.4265350   -0.0067250   -1.0813030  
H    -6.3400820    3.5358260   -1.2939370  
H    -3.5137740    4.3973250   -0.7422320  
C     1.3249570   -3.3419640    0.2131420  
C     1.0094970   -4.6286260    0.5538790  
C    -0.4241950   -4.7272990    0.6368840  
C    -0.9455970   -3.3850550    0.3295320  
N     0.1568410   -2.5601170    0.1432660  
C    -2.2770740   -3.0509150    0.2336230  
C    -3.2212800   -4.1825170    0.4070440  
O    -4.4257850   -4.0861130    0.2099070  
C    -2.6791770   -5.5892260    0.8608060  
O    -3.4990350   -6.4589090    1.1136010  
C    -1.2426250   -5.7813100    0.9287480  
H     1.7147450   -5.4191680    0.7667870  
H    -0.8667150   -6.7645240    1.1915500  
H     0.0952500   -1.7555240   -0.4701740  
C     2.6195440   -2.7470840   -0.0149590  
C     3.7775420   -3.3489880   -0.4250970  
C     4.7964040   -2.3341830   -0.5165740  
C     4.1484070   -1.0624540   -0.1155680  
N     2.8036240   -1.3578300    0.1128890  
C     4.7948440    0.1219730   -0.0084860  
C     6.2221210    0.1664880   -0.3437510  
O     6.8855750    1.1867100   -0.2756020  
C     6.9149410   -1.1608770   -0.8217990  
O     8.0973790   -1.1384080   -1.1231860  
C     6.1083190   -2.3833640   -0.8742740  
H     3.8878180   -4.3904800   -0.6915310  
H     4.3162610    1.0457830    0.3029800  
H     6.5996870   -3.3009160   -1.1831620  
H     2.2486270   -0.8126180    0.7599350  
C    -1.8280800    2.6984850   -0.1416170  
C    -0.5322890    2.4031600   -0.4668510  
C     0.3145300    3.4890700   -0.0454070  
C    -0.5829010    4.4809890    0.5859150  
N    -1.8954360    4.0021390    0.4327690  
C    -0.1675730    5.6201890    1.1806530  
C     1.2690410    5.9226470    1.1756740  
O     1.7292580    6.9280910    1.6893510  
C     2.2360510    4.9099430    0.4634160  
O     3.4330560    5.1515590    0.4457510  
C     1.6563840    3.7062570   -0.1315580  
H    -0.2145600    1.5340860   -1.0248610  
H    -0.8390330    6.3355890    1.6460390  
H     2.3346780    3.0091140   -0.6150730  
H    -2.5526700    4.1550620    1.1921940  
