60


C     0.6758230    0.0321490   -0.7619010  
C     0.3470560    1.3232780   -0.3763900  
C     1.5659330    1.8944960    0.1715870  
C     2.5700730    0.9025780    0.0793020  
N     1.9973520   -0.2120510   -0.5059000  
C     3.8911160    1.0681400    0.5696470  
C     4.1530260    2.2872600    1.2126550  
O     5.3827160    2.5397380    1.7287800  
C     3.1542230    3.2876360    1.3108850  
O     3.5892620    4.4305360    1.9492590  
C     1.8831840    3.1137450    0.8009090  
H     2.4759070   -1.0933290   -0.6301840  
H     5.3693470    3.4529790    2.0690870  
H     2.9082960    5.1175140    1.8944290  
H     1.1500150    3.9092860    0.8723260  
H     0.0605320   -0.7089020   -1.2504760  
C    -3.8062940   -0.3226690    0.0099560  
C    -2.4322490   -0.1788130    0.0678370  
C    -2.1504330    1.1551170   -0.3634810  
C    -3.4958490    1.7341820   -0.6541380  
N    -4.4529270    0.8757150   -0.4455060  
C    -3.6656410    3.0935910   -1.0981620  
C    -2.5501130    3.8445320   -1.2205760  
O    -2.5450010    5.1302710   -1.5994080  
C    -1.1678570    3.2960450   -0.9311160  
O    -0.2377700    4.0938230   -1.0792000  
C    -0.9908400    1.8868830   -0.5185980  
H    -1.7164270   -0.9106070    0.4122770  
H    -4.6553970    3.4843190   -1.3056140  
H    -1.5959480    5.3901540   -1.6054160  
C    -4.2300290   -2.6977370    0.7903510  
C    -4.6141380   -1.4506260    0.3413890  
C    -6.0903620   -1.5413180    0.2771500  
C    -6.3885960   -2.9238170    0.7292980  
N    -5.2865590   -3.5814660    1.0241650  
C    -7.7279030   -3.4245690    0.8139880  
C    -8.7361590   -2.5852880    0.4630900  
O   -10.0344680   -2.9150670    0.4918750  
C    -8.4673530   -1.1780070    0.0007400  
O    -9.4360850   -0.4827860   -0.2986350  
C    -7.0721510   -0.6904720   -0.0755450  
H    -7.9109060   -4.4396520    1.1483520  
H   -10.5152520   -2.1131800    0.1877430  
H    -6.8896260    0.3243050   -0.4092650  
H    -3.2177270   -3.0411320    0.9704120  
C     4.9134480    0.0466450    0.4056680  
C     5.9966950   -0.2732200    1.1756450  
C     6.6871340   -1.3770010    0.5616450  
C     5.9357840   -1.6928430   -0.6738760  
N     4.8143500   -0.8560420   -0.6933810  
C     6.3087580   -2.6271600   -1.5778880  
C     7.5150870   -3.4135280   -1.3073250  
O     7.9210910   -4.2794860   -2.0656540  
C     8.2980220   -3.1329740    0.0267450  
O     9.2959260   -3.7947920    0.2724950  
C     7.8017490   -2.0789530    0.9089730  
H     6.2678080    0.2111830    2.1007090  
H     5.7534400   -2.8393120   -2.4868180  
H     8.3629500   -1.8745020    1.8156140  
H     4.4952380   -0.4938140   -1.5856870  
