62


C    -2.4116270    0.4921550    3.1568620  
C    -1.2664740    0.2274410    2.4543520  
C    -1.6528050   -0.0189020    1.0927250  
C    -3.0627250    0.1237170    1.0289120  
N    -3.4979420    0.4569290    2.2977890  
C    -3.8179030   -0.0588680   -0.1499960  
C    -3.0881940   -0.3941570   -1.2922510  
O    -3.7297870   -0.5520580   -2.4794250  
C    -1.6773460   -0.5347620   -1.2493570  
O    -1.1163280   -0.8697700   -2.4662680  
C    -0.9324560   -0.3515380   -0.0833490  
H    -0.2630550    0.2018020    2.8534770  
H    -4.4654830    0.4674470    2.5825610  
H    -3.0808310   -0.9046360   -3.1139220  
H    -0.2135620   -1.1987750   -2.3128280  
H    -2.5509250    0.7176910    4.2047350  
C     1.8571510   -3.1881840    2.0432050  
C     0.7475830   -2.5280890    1.5841480  
C     1.2073960   -1.5162150    0.6759490  
C     2.6208440   -1.6214500    0.6148730  
N     2.9860870   -2.6547640    1.4509840  
C     3.4439870   -0.7773950   -0.1696400  
C     2.7633870    0.1983970   -0.9059000  
O     3.4582580    1.0626240   -1.7054130  
C     1.3517180    0.3109370   -0.8674370  
O     0.8621930    1.3297650   -1.6579350  
C     0.5450770   -0.5282670   -0.0977910  
H    -0.2773970   -2.7314840    1.8574770  
H     3.9396490   -2.8948100    1.6749940  
H     2.8019170    1.6418950   -2.1323630  
H    -0.1019330    1.3806970   -1.5425040  
H     1.9415180   -4.0096850    2.7404710  
C    -6.4397910    3.3250890    0.8355040  
C    -7.6526780    2.7645970    0.5905670  
C    -7.4196100    1.4010250    0.1610030  
C    -5.9490460    1.2107280    0.1790600  
N    -5.4154980    2.4111110    0.6164350  
C    -5.2899630    0.0710930   -0.1845620  
C    -6.1367450   -1.0771850   -0.5808200  
O    -5.6831240   -2.1807120   -0.8239800  
C    -7.6978190   -0.8795990   -0.6470900  
O    -8.3862780   -1.8089360   -1.0396620  
C    -8.2580520    0.4040000   -0.2308270  
H    -8.6146680    3.2452380    0.6929150  
H    -9.3365400    0.5230300   -0.2685960  
H    -6.2018670    4.3280370    1.1651170  
H    -4.4275410    2.6104440    0.6510660  
C     5.5949450   -2.1264030   -0.2325710  
C     4.8982230   -0.9521410   -0.2097910  
C     5.9589380    0.0817780   -0.1493800  
C     7.2306280   -0.6955280   -0.1501560  
N     7.0079130   -1.9798840   -0.2041420  
C     8.5159020   -0.0486150   -0.0923010  
C     8.5421060    1.3029690   -0.0116860  
O     9.6661220    2.0370700    0.0560550  
C     7.2771700    2.1119340    0.0133100  
O     7.3798440    3.3356690    0.0918720  
C     5.9695600    1.4243480   -0.0600670  
H     9.4218380   -0.6445160   -0.1045960  
H     9.3629190    2.9701930    0.1048170  
H     5.0812780    2.0444810   -0.0686630  
H     5.1852710   -3.1274710   -0.3065640  
