62


C    -1.3794160   -1.8062480   -0.6992360  
C    -0.6147640   -0.6633390   -0.7161800  
C    -1.5385550    0.4335210   -0.5292400  
C    -2.8369730   -0.1173860   -0.3898380  
N    -2.7078340   -1.4840860   -0.4876940  
C    -4.0029680    0.6746560   -0.2284820  
C    -3.7997770    2.0634330   -0.2708770  
O    -4.8603440    2.9223080   -0.1551280  
C    -2.5075640    2.6215110   -0.4124170  
O    -2.5043090    4.0035880   -0.4106410  
C    -1.3804710    1.8313380   -0.5323430  
H    -3.4839410   -2.1221840   -0.5751510  
H    -4.5039450    3.8275820   -0.2095250  
H    -1.6093140    4.3305390   -0.5845490  
H    -0.3960840    2.2788690   -0.6452340  
H    -1.0725890   -2.8384050   -0.7913490  
C     1.5605450   -1.1885430   -1.9111750  
C     0.8341700   -0.5785000   -0.9131300  
C     1.7911780    0.1426450   -0.1023540  
C     3.0710270   -0.0667890   -0.6721030  
N     2.8986100   -0.8727560   -1.7792680  
C     4.2627300    0.4591640   -0.1281140  
C     4.1197800    1.2114750    1.0397110  
O     5.2189390    1.7702260    1.6240020  
C     2.8460870    1.4196220    1.6301420  
O     2.8900800    2.1903340    2.7776430  
C     1.6888580    0.9040020    1.0786040  
H     3.6529350   -1.2729780   -2.3152940  
H     4.9181090    2.2106130    2.4384840  
H     2.0314690    2.1562620    3.2247160  
H     0.7255400    1.0703340    1.5548680  
H     1.2159810   -1.8031680   -2.7308640  
C    -5.3175100    0.0748550   -0.0360440  
C    -5.6465590   -1.1688770    0.4582610  
C    -7.0795730   -1.2908350    0.4510260  
C    -7.5942920   -0.0094890   -0.0940690  
N    -6.4864960    0.7556480   -0.3859530  
C    -8.9108950    0.2831440   -0.2485400  
C    -9.8959900   -0.7217540    0.1393900  
O   -11.1013360   -0.5467500    0.0369960  
C    -9.3730220   -2.0905140    0.7135300  
O   -10.1871370   -2.9433100    1.0381420  
C    -7.9297700   -2.2847600    0.8337170  
H    -4.9619860   -1.8901460    0.8791800  
H    -9.2693420    1.2270680   -0.6476110  
H    -7.5815700   -3.2318680    1.2351300  
H    -6.4911560    1.7381750   -0.6182040  
C     5.8991260    0.4694620   -2.0618640  
C     5.5739560    0.2240920   -0.7595020  
C     6.7725150   -0.3466760   -0.1425950  
C     7.8086640   -0.4005750   -1.2025080  
N     7.2088060    0.0934580   -2.3444040  
C     9.0733280   -0.8610260   -1.0234180  
C     9.4499370   -1.3539900    0.2970580  
O    10.5618670   -1.7887560    0.5567910  
C     8.3603160   -1.3265830    1.4313580  
O     8.6506040   -1.7452630    2.5406130  
C     7.0299990   -0.7952190    1.1114250  
H     9.8171230   -0.8874660   -1.8139740  
H     6.2936540   -0.7623240    1.9063030  
H     5.2873040    0.9129460   -2.8371090  
H     7.6846090    0.2603750   -3.2170910  
