58


C    -4.9669740    1.6817540    1.2099370  
C    -3.9688220    0.8463990    0.8040000  
C    -4.5936890   -0.3576250    0.2719620  
C    -6.0533180   -0.1437560    0.4105130  
N    -6.2066670    1.1108160    0.9796640  
C    -6.9975330   -1.0404420    0.0324770  
C    -6.5555910   -2.3029840   -0.5584170  
O    -7.3311430   -3.1714070   -0.9247050  
C    -5.0093360   -2.5421000   -0.7272680  
O    -4.6247870   -3.5816620   -1.2356930  
C    -4.0871420   -1.4956930   -0.2667630  
H    -8.0640100   -0.8701500    0.1437070  
H    -3.0216930   -1.6700770   -0.3807950  
H    -4.8855980    2.6659380    1.6516540  
H    -7.0927370    1.5518010    1.1712040  
C    -1.6725340    0.4421190    1.7010600  
C    -0.4058170    0.8671450    1.4857130  
C    -0.4485280    1.8544430    0.4292050  
C    -1.8782870    1.9789320    0.0457430  
N    -2.5874050    1.1038000    0.8641590  
C    -2.3647670    2.8137180   -0.9070840  
C    -1.4208430    3.6476580   -1.6316150  
O    -1.7550360    4.4609920   -2.4803410  
C     0.1064310    3.4852550   -1.3092030  
O     0.9070520    4.0537360   -2.0302280  
C     0.5219400    2.6106970   -0.1783610  
H     0.4766330    0.4718010    1.9602060  
H    -3.4199910    2.8956770   -1.1438850  
H    -2.0386770   -0.3051500    2.3921180  
C     3.3544530   -0.7646290    0.2638280  
C     4.5471630   -0.0956290    0.3818830  
C     4.2073660    1.3090840    0.3964310  
C     2.7166360    1.3290010    0.2167880  
N     2.2340350    0.1254200    0.1375440  
C     1.9599480    2.5693870    0.1474460  
C     2.6839150    3.7107120    0.3535650  
O     2.1404010    4.9285480    0.4205230  
C     4.1781700    3.7157770    0.5608480  
O     4.7178380    4.8104730    0.7263660  
C     4.9150580    2.4493060    0.5557430  
H     5.5257030   -0.5144930    0.5767390  
H     2.8971420    5.5462510    0.5415400  
H     5.9913510    2.4942940    0.6898730  
C     5.5956140   -4.0156680   -1.6343910  
C     4.8135860   -5.0682580   -1.2872850  
C     3.7233790   -4.5475940   -0.4875830  
C     3.9457040   -3.0870740   -0.3898000  
N     5.1051390   -2.8324160   -1.0812820  
C     3.1086340   -2.1944170    0.2377480  
C     1.9387530   -2.7719950    0.9363010  
O     1.2086690   -2.1286640    1.6695850  
C     1.6636560   -4.3136470    0.7960020  
O     0.6486550   -4.7721690    1.2934920  
C     2.6414430   -5.1395080    0.0855860  
H     4.9674450   -6.1023640   -1.5586020  
H     2.4474670   -6.2054430    0.0158410  
H     6.4949150   -3.9928450   -2.2352140  
H     5.4211320   -1.8995760   -1.3070550  
