60


C    -1.2542860   -1.6895890   -0.1050410  
C    -0.6307010   -0.4777340   -0.3120950  
C    -1.6821410    0.5128700   -0.3974760  
C    -2.9117690   -0.1695830   -0.2294500  
N    -2.6177540   -1.5082280   -0.0588570  
C    -4.1704280    0.4666530   -0.2956410  
C    -4.1501650    1.8426630   -0.5306770  
O    -5.3177270    2.5367520   -0.5489050  
C    -2.9263540    2.5401350   -0.7080720  
O    -3.0916680    3.8915180   -0.9314590  
C    -1.7039090    1.8989250   -0.6530270  
H    -3.3014370   -2.2318310    0.0998040  
H    -5.1105240    3.4529730   -0.8028300  
H    -2.2287500    4.3087650   -1.0711540  
H    -0.7831900    2.4568000   -0.8048730  
H    -0.8193430   -2.6683740    0.0407350  
C     1.6643420   -0.9919470   -1.2372600  
C     0.8125210   -0.2810200   -0.4466620  
C     1.6391160    0.6895020    0.2702620  
C     3.0348930    0.4626450   -0.1763200  
N     2.9841010   -0.5491770   -1.1009470  
C     4.1140460    1.1635660    0.2960530  
C     3.8627090    2.2469790    1.2557770  
O     4.7483860    2.9710510    1.6831340  
C     2.3828370    2.4916650    1.7311620  
O     2.1777510    3.3909860    2.5296070  
C     1.3248400    1.6453190    1.1841380  
H     0.3094060    1.8126460    1.5264280  
H     1.4356340   -1.7883620   -1.9323640  
H     3.7942690   -1.0249810   -1.4702210  
C     6.3558300    1.8990000   -0.5119610  
C     7.5512730    1.3626300   -0.8507430  
C     7.4636380   -0.0658960   -0.6426600  
C     6.0909550   -0.3245110   -0.1368260  
N     5.4427470    0.9064330   -0.1051370  
C     5.6383630   -1.5536510    0.2343230  
C     6.5344490   -2.7004940    0.0948010  
O     6.2066460   -3.8362390    0.4028670  
C     7.9736710   -2.4515070   -0.4819420  
O     8.7231710   -3.4024680   -0.6360920  
C     8.3580260   -1.0749440   -0.8060050  
H     8.4172390    1.9037860   -1.2033690  
H     4.6635880   -1.7260140    0.6764510  
H     9.3691350   -0.9064150   -1.1641930  
H     6.0358410    2.9296880   -0.5134380  
C    -5.8677930   -2.0938850    2.9219910  
C    -5.0798450   -1.2736770    2.1799060  
C    -5.7698120   -1.0276810    0.9267850  
C    -7.0453650   -1.7805150    1.0083600  
N    -7.0311380   -2.4211020    2.2332990  
C    -8.0105860   -1.7851910    0.0529150  
C    -7.7825490   -1.0016280   -1.1517270  
O    -8.6002500   -0.9032970   -2.0541540  
C    -6.4055320   -0.2556390   -1.3037310  
O    -6.1525470    0.2762370   -2.3683820  
C    -5.4438660   -0.2701490   -0.1662250  
H    -4.1274500   -0.8601300    2.4752290  
H    -8.9474700   -2.3249340    0.1506520  
H    -5.7025860   -2.4892560    3.9156240  
H    -7.7986270   -2.9560270    2.6084900  
