62


C     0.9874930   -0.7900770    0.0760930  
C    -0.2510050   -1.4061330   -0.0279450  
C    -1.2490340   -0.3892260   -0.0306550  
C    -0.5625360    0.8529380    0.0588020  
N     0.7885660    0.5874920    0.0992350  
C    -1.1929490    2.1106220    0.0737740  
C    -2.5810600    2.0733110   -0.0561500  
O    -3.2907770    3.2205150   -0.1064210  
C    -3.3009310    0.8443580   -0.1753450  
O    -4.6542570    1.0277590   -0.2937870  
C    -2.6766480   -0.4022640   -0.1276070  
H    -0.4036270   -2.4695450   -0.1381840  
H     1.4747240    1.2672400    0.3960940  
H    -4.2211690    2.9504000   -0.2403800  
H    -4.9738250    0.3868910   -0.9739470  
C     1.9024550    3.7880050   -2.5984790  
C     2.1944520    4.9108520   -1.8702330  
C     1.3491330    4.8944510   -0.7085700  
C     0.5616450    3.7173620   -0.7855910  
N     0.9344010    3.0492540   -1.9372450  
C    -0.4128570    3.3673020    0.1748850  
C    -0.5740370    4.2571970    1.2382370  
O    -1.4690320    3.9787160    2.2252740  
C     0.2075290    5.4395480    1.3291460  
O    -0.0728220    6.1995520    2.4497940  
C     1.1609570    5.7642680    0.3835660  
H     2.9253500    5.6644240   -2.1297100  
H     0.4391320    2.2590190   -2.3213880  
H    -1.4619090    4.7336030    2.8392570  
H     0.4349300    7.0236510    2.4175840  
H     1.7473810    6.6756000    0.4820940  
H     2.3089640    3.4400830   -3.5378070  
C    -2.5444710   -4.0020910    2.4721800  
C    -2.3921630   -2.7601790    1.9390490  
C    -3.1953150   -2.6995360    0.7401280  
C    -3.8436910   -4.0308670    0.6199340  
N    -3.3867030   -4.7784730    1.6870150  
C    -4.6934550   -4.3984230   -0.3728990  
C    -5.0250000   -3.3979910   -1.3716290  
O    -5.7409330   -3.6102650   -2.3368070  
C    -4.4528250   -1.9442410   -1.1811140  
O    -4.9371730   -1.0697050   -1.8991360  
C    -3.4187340   -1.6836290   -0.1669150  
H    -1.7926030   -1.9606910    2.3442750  
H    -5.1168930   -5.3927960   -0.4695510  
H    -2.1155030   -4.4168780    3.3747710  
H    -3.6988030   -5.7107000    1.9099120  
C     2.3044960   -1.3569890    0.0962110  
C     2.7152450   -2.6343250    0.3906900  
C     4.1424420   -2.6920560    0.2533520  
C     4.5698290   -1.3323190   -0.1574360  
N     3.4236810   -0.5448910   -0.1757230  
C     5.8464750   -0.9869390   -0.4484690  
C     6.8891780   -2.0053280   -0.3177020  
O     8.0657300   -1.7793510   -0.5558670  
C     6.4671650   -3.4414900    0.1627640  
O     7.3334050   -4.2968880    0.2883510  
C     5.0549550   -3.6922790    0.4262470  
H     2.0741440   -3.4382880    0.7227890  
H     6.1412330    0.0115310   -0.7574730  
H     4.7713850   -4.6928640    0.7384500  
H     3.3539120    0.2699720   -0.7708980  
