58


C     1.8397260   -4.2158670   -0.1795360  
C     2.9764610   -4.9349690   -0.3457720  
C     4.0795620   -3.9951820   -0.3599950  
C     3.4838930   -2.6510150   -0.1975950  
N     2.1279790   -2.8514850   -0.1138530  
C     4.1892110   -1.4669410   -0.1109360  
C     5.6629690   -1.5774470   -0.2940530  
O     6.3939100   -0.6208280   -0.4510860  
C     6.3077850   -3.0081500   -0.3712530  
O     7.5232970   -3.1052970   -0.3706930  
C     5.4242500   -4.1725160   -0.4550230  
H     3.0527460   -6.0075670   -0.4477640  
H     5.8827500   -5.1516120   -0.5558960  
H     0.8132090   -4.5506190   -0.1134520  
H     1.4755880   -2.1228160    0.1360170  
C     3.5550590   -0.1870340    0.1088880  
C     2.2701140    0.2083210   -0.2259120  
C     2.1570210    1.5776360    0.2050060  
C     3.4838570    1.8705510    0.8317990  
N     4.2834770    0.8436180    0.7834240  
C     3.7888520    3.1575180    1.3948020  
C     2.8399850    4.1187420    1.3046670  
O     2.9883680    5.3646970    1.7691530  
C     1.4796450    3.8564480    0.6988590  
O     0.6565620    4.7644470    0.7746940  
C     1.1726750    2.5232080    0.1208430  
H     1.5717750   -0.3030120   -0.8748340  
H     4.7580620    3.3385230    1.8453640  
H     2.1322520    5.8153250    1.5908150  
C    -1.9110080   -0.3981680    1.1647920  
C    -2.9020260   -0.0618640    0.2796890  
C    -2.3734480    1.0519450   -0.5191590  
C    -1.0061440    1.3085940   -0.0142260  
N    -0.7881560    0.3814480    0.9902380  
C    -0.1669960    2.2996590   -0.4402010  
C    -0.6666980    3.1649900   -1.5319640  
O     0.0251330    4.0071990   -2.0734220  
C    -2.1344200    2.9479240   -2.0389570  
O    -2.5831640    3.7069420   -2.8810150  
C    -2.9155780    1.8367860   -1.4847530  
H    -3.9137870    1.6871440   -1.8772260  
H    -1.9213570   -1.1800460    1.9125860  
H     0.0708850    0.3116870    1.5157960  
C    -5.7808580   -1.5221350    3.3624850  
C    -4.7275790   -0.8952930    2.7828170  
C    -4.9131330   -1.0841650    1.3469600  
C    -6.1790580   -1.8642300    1.2519470  
N    -6.6764860   -2.1254690    2.4291510  
C    -6.7457040   -2.2480560   -0.0159120  
C    -6.0924260   -1.8681950   -1.1368640  
O    -6.5133000   -2.1426260   -2.3834180  
C    -4.8032770   -1.0970310   -1.0813950  
O    -4.2639330   -0.8302100   -2.1528580  
C    -4.2101150   -0.7111060    0.2400250  
H    -3.9414670   -0.3354280    3.2687790  
H    -7.6712340   -2.8119120   -0.0488150  
H    -5.8373090   -1.7614250   -2.9841010  
H    -6.0103920   -1.5973680    4.4187470  
