58


C     4.1794710   -1.9458250    2.6733990  
C     4.9970710   -2.8759040    2.1202090  
C     4.3889910   -3.2986150    0.8738660  
C     3.1338090   -2.5213390    0.7434460  
N     3.0832710   -1.6928490    1.8486420  
C     2.2183710   -2.6688810   -0.2628970  
C     2.5604680   -3.6295730   -1.3372410  
O     1.8880250   -3.7543100   -2.3439820  
C     3.8793460   -4.4723500   -1.2023880  
O     4.1315630   -5.3057350   -2.0566480  
C     4.7533510   -4.2216030   -0.0553800  
H     5.9251230   -3.2439100    2.5327360  
H     5.6606020   -4.8121660    0.0272560  
H     4.2801760   -1.4112390    3.6089600  
H     2.2713700   -1.1505540    2.1034040  
C     1.0847970    1.6807410   -0.2727200  
C     1.8153470    0.5114070   -0.2490880  
C     0.8503790   -0.5580770   -0.2916700  
C    -0.4710040    0.1370270   -0.3186470  
N    -0.3243030    1.4275870   -0.2863670  
C    -1.7482550   -0.5793470   -0.3771690  
C    -1.6242530   -1.9420410   -0.4602150  
O    -2.6710290   -2.7814350   -0.5787320  
C    -0.3192080   -2.6692650   -0.4054750  
O    -0.3674870   -3.9001540   -0.3802260  
C     0.9600450   -1.9161540   -0.3326060  
H     2.8833990    0.3920140   -0.3679030  
H    -2.2690010   -3.6813220   -0.5919690  
C    -3.1784470    1.4577910   -0.8195730  
C    -3.0021110    0.1628330   -0.3952950  
C    -4.3495600   -0.2471220    0.0653240  
C    -5.1995020    0.9541180   -0.1981810  
N    -4.5073960    1.9301690   -0.7189650  
C    -6.6023730    0.9885910    0.1166420  
C    -7.1467030   -0.1032710    0.7038000  
O    -8.4350140   -0.2111060    1.0647070  
C    -6.3144670   -1.3140590    1.0191510  
O    -6.8736080   -2.2628220    1.5678620  
C    -4.8793280   -1.3295950    0.6686260  
H    -7.1808480    1.8782810   -0.1059930  
H    -8.5175880   -1.1060590    1.4625690  
H    -4.3310310   -2.2345640    0.8942390  
H    -2.4177210    2.1230030   -1.2032560  
C     4.7253200    3.4336250    1.4265610  
C     4.5260670    4.7345790    1.1020510  
C     3.2705080    4.8091080    0.3822170  
C     2.7532720    3.4259620    0.3040750  
N     3.6885770    2.6398800    0.9335560  
C     1.5527230    3.0492880   -0.2624230  
C     0.7696610    4.1375860   -0.9063770  
O    -0.2200400    3.9473320   -1.5859850  
C     1.2805200    5.6187380   -0.7671730  
O     0.5805050    6.5210440   -1.1945470  
C     2.5796410    5.8585000   -0.1377880  
H     5.1767550    5.5648470    1.3343650  
H     2.9345320    6.8830510   -0.0811820  
H     5.5412790    2.9735650    1.9676440  
H     3.5349040    1.6677820    1.1591110  
