62


C    -1.2190540   -0.9985550   -0.4702580  
C     0.0868470   -1.4516050   -0.5871350  
C     0.9438210   -0.3155840   -0.5110280  
C     0.1084500    0.8218890   -0.3345170  
N    -1.1891980    0.3788480   -0.3191440  
C     0.5798860    2.1476560   -0.2041670  
C     1.9650500    2.2652470   -0.2811310  
O     2.5477040    3.5089920   -0.1951440  
C     2.8287070    1.1523150   -0.4654470  
O     4.1540690    1.5215530   -0.5549740  
C     2.3560990   -0.1511580   -0.5753050  
H     0.3822810   -2.4886500   -0.6566330  
H    -1.9904470    0.9926170   -0.2978180  
H     3.5137060    3.3774650   -0.2398260  
H     4.7315160    0.7419100   -0.5181970  
C    -2.9274340    2.8263350    2.5500560  
C    -1.7984530    2.3239540    1.9517630  
C    -1.4213400    3.2431740    0.9065890  
C    -2.3698270    4.3001720    0.9375540  
N    -3.2797060    4.0103790    1.9345760  
C    -2.3034710    5.4150160    0.0942450  
C    -1.2351680    5.4709470   -0.7847620  
O    -1.0902100    6.5338460   -1.6199520  
C    -0.2718700    4.4258720   -0.8464790  
O     0.6957790    4.6209210   -1.8087300  
C    -0.3540380    3.2890320   -0.0392410  
H    -1.2684790    1.4329630    2.2562300  
H    -4.0494060    4.6022340    2.2058030  
H    -3.0266350    6.2234320    0.1238620  
H    -0.2707330    6.3643100   -2.1228140  
H     1.5646340    4.3887890   -1.4172660  
H    -3.5014720    2.4475180    3.3840700  
C     3.1458970   -2.2430140   -1.7721110  
C     3.2621480   -1.2904420   -0.7974070  
C     4.4586720   -1.6384960   -0.0342940  
C     5.0230140   -2.8583440   -0.6656670  
N     4.1687080   -3.1749980   -1.7053790  
C     6.1478400   -3.4897680   -0.2486650  
C     6.8658170   -2.9458740    0.9039190  
O     7.8941010   -3.4385030    1.3381740  
C     6.2724240   -1.6734360    1.6098310  
O     6.8406450   -1.2181990    2.5883990  
C     5.0481890   -1.0783970    1.0592530  
H     6.5425150   -4.3831740   -0.7228270  
H     4.6340090   -0.2188880    1.5781250  
H     2.3907340   -2.3219760   -2.5430140  
H     4.2929980   -3.9487770   -2.3396620  
C    -2.4609660   -1.7207490   -0.4142760  
C    -2.7769850   -2.9814880   -0.8519560  
C    -4.1555240   -3.2344240   -0.5340350  
C    -4.6511570   -2.0110630    0.1437960  
N    -3.6003040   -1.1027030    0.1367490  
C    -5.8982490   -1.8705240    0.6534200  
C    -6.8401100   -2.9794960    0.5021520  
O    -7.9840870   -2.9377940    0.9279820  
C    -6.3514080   -4.2692680   -0.2528980  
O    -7.1335170   -5.1985450   -0.3964670  
C    -4.9756250   -4.3041080   -0.7407380  
H    -2.1158090   -3.6447650   -1.3908780  
H    -6.2420700   -0.9709440    1.1550320  
H    -4.6432090   -5.2065990   -1.2447050  
H    -3.5296040   -0.3612260    0.8222130  
