64


C     2.4689190   -1.1646800   -1.0200540  
C     3.3982000   -0.4704600   -0.2728370  
C     2.6423200    0.4939080    0.5038680  
C     1.2729610    0.3144300    0.1838370  
N     1.2003070   -0.7075040   -0.7392940  
C     0.2291120    1.1023100    0.7160960  
C     0.6246750    2.1113850    1.5956840  
O    -0.3144110    2.9188520    2.1775420  
C     1.9918960    2.3160440    1.9175990  
O     2.1997050    3.3601580    2.8018350  
C     2.9994130    1.5292140    1.3942990  
H     0.3509110   -0.9854120   -1.2081770  
H     0.1659470    3.5329120    2.7602440  
H     3.1457700    3.4328480    2.9968850  
H     4.0391350    1.7138710    1.6518430  
H     2.6239980   -1.9742040   -1.7188730  
C     6.4102020   -0.8112430   -3.5996370  
C     5.2564400   -0.6493010   -2.8782700  
C     5.6023310   -0.7690520   -1.4884950  
C     7.0022660   -1.0001450   -1.4314200  
N     7.4661520   -1.0249130   -2.7316300  
C     7.7022800   -1.1475980   -0.2275050  
C     6.9658540   -1.0627110    0.9427580  
O     7.5861600   -1.2133570    2.1523680  
C     5.5670970   -0.8346010    0.9089130  
O     4.9805180   -0.8025720    2.1634440  
C     4.8581360   -0.6824600   -0.2819250  
H     4.2753230   -0.4528620   -3.2860800  
H     8.4254790   -1.1695880   -3.0035130  
H     8.7716850   -1.3266480   -0.1812630  
H     6.8889770   -1.1721830    2.8298090  
H     4.0151690   -0.7783810    2.0531080  
H     6.5742060   -0.7905920   -4.6679020  
C    -1.8036150   -0.3711120    0.3909330  
C    -1.1783180    0.8541950    0.3524970  
C    -2.1497350    1.7870060   -0.1760990  
C    -3.3339210    1.0622350   -0.4473540  
N    -3.1103020   -0.2668610   -0.0844980  
C    -4.4876920    1.6643900   -0.9619320  
C    -4.4337560    3.0244920   -1.2207710  
O    -5.5270060    3.6638820   -1.7260700  
C    -3.2490460    3.7654170   -0.9632620  
O    -3.3535800    5.1087660   -1.2696410  
C    -2.1153570    3.1671470   -0.4495960  
H    -5.3916020    1.1110680   -1.1857200  
H    -5.2808220    4.5958570   -1.8564660  
H    -2.5031530    5.5424030   -1.1054960  
H    -1.2255060    3.7519200   -0.2352790  
H    -1.4246940   -1.3313050    0.7135040  
C    -4.4967930   -2.7155760    3.1925050  
C    -5.3068960   -3.5645860    2.5084480  
C    -5.2697610   -3.1707310    1.1149370  
C    -4.3556790   -2.0070510    1.0503700  
N    -3.9091540   -1.7895930    2.3356510  
C    -4.0461240   -1.3221900   -0.0902160  
C    -4.6521420   -1.7844510   -1.3503270  
O    -4.4011900   -1.2826240   -2.4319820  
C    -5.6590910   -2.9967790   -1.2853210  
O    -6.2087790   -3.3438110   -2.3184910  
C    -5.8934960   -3.6461920    0.0026860  
H    -5.8772560   -4.3822850    2.9240480  
H    -6.5744530   -4.4910740    0.0263300  
H    -4.2717490   -2.6835750    4.2502910  
H    -3.3118060   -1.0225460    2.6066130  
