60


C    -4.3057490   -0.0468800   -0.6987210  
C    -5.1415150   -1.1272190   -0.5570750  
C    -4.3127160   -2.2449080   -0.2016490  
C    -2.9786890   -1.7735810   -0.1220680  
N    -2.9990660   -0.4309530   -0.4425930  
C    -1.8788410   -2.5952330    0.2142560  
C    -2.1760980   -3.9385370    0.4724620  
O    -1.1858300   -4.7791750    0.8614210  
C    -3.5076350   -4.4248080    0.3958350  
O    -3.6176730   -5.7657790    0.6969960  
C    -4.5696840   -3.6039500    0.0667970  
H    -6.2179310   -1.1148050   -0.6545870  
H    -2.1878540    0.1523830   -0.5782030  
H    -1.5643140   -5.6739810    0.9228880  
H    -4.5272500   -6.0641280    0.5489070  
H    -5.5810590   -4.0018230    0.0232590  
C    -0.0289510    0.8777470    2.2734240  
C    -0.8573550   -0.1250010    1.8880310  
C    -0.1217330   -0.9710590    0.9688640  
C     1.2307600   -0.3851680    0.8708570  
N     1.2116980    0.7452200    1.6462710  
C     2.2916870   -0.9187980    0.1612230  
C     2.0306280   -2.2265230   -0.4534340  
O     2.9027180   -2.9589980   -0.9073710  
C     0.5483720   -2.7228000   -0.5774560  
O     0.3108600   -3.5864950   -1.3986320  
C    -0.4984330   -2.0866810    0.2625970  
H    -1.8730480   -0.2810790    2.2173860  
H    -0.2204960    1.7213020    2.9231010  
H     2.0468750    1.2490990    1.9100960  
C     3.5952820   -0.2904710    0.0713640  
C     3.9668590    1.0283590    0.2633090  
C     5.3795620    1.1303070    0.0200870  
C     5.8339990   -0.2381170   -0.3343810  
N     4.7168800   -1.0411600   -0.2735400  
C     7.1151520   -0.5616870   -0.6453140  
C     8.1212180    0.4962040   -0.6340830  
O     9.2977540    0.2994630   -0.8997790  
C     7.6617530    1.9544390   -0.2622050  
O     8.4934290    2.8506800   -0.2481730  
C     6.2521730    2.1773650    0.0536410  
H     3.3084710    1.8676040    0.4335640  
H     7.4291000   -1.5681890   -0.9035560  
H     5.9465580    3.1883250    0.3065430  
H     4.6319200   -2.0079300   -0.5641390  
C    -5.4647440    1.6856190   -2.0621240  
C    -5.5424000    3.0352860   -2.1449630  
C    -4.6662070    3.5845200   -1.1296220  
C    -4.0760710    2.4212260   -0.4243760  
N    -4.5886630    1.2816350   -1.0406510  
C    -3.2138080    2.5183470    0.6206860  
C    -2.7908320    3.8414590    1.0583610  
O    -1.9794860    4.0122360    1.9593750  
C    -3.4002360    5.0904140    0.3259990  
O    -3.0726220    6.2088270    0.6871140  
C    -4.3473430    4.8557090   -0.7716310  
H    -6.1357460    3.5993990   -2.8497710  
H    -2.8073670    1.6606290    1.1398840  
H    -4.7679820    5.7268800   -1.2644950  
H    -5.9494640    0.9235720   -2.6570290  
