58


C     1.2933010    0.7836190   -0.7610860  
C     2.5671720    0.6944910   -0.2970080  
C     2.4785210    0.5956500    1.1648020  
C     1.0419890    0.6375570    1.5137240  
N     0.3694380    0.7757810    0.2992130  
C     0.5383330    0.5540800    2.7667140  
C     1.4836900    0.4293510    3.8785620  
O     1.1303700    0.3359730    5.0416490  
C     3.0186600    0.4246510    3.5426660  
O     3.8258170    0.3520550    4.4523750  
C     3.4265480    0.5086300    2.1308230  
H    -0.5229360    0.5890170    2.9890730  
H     4.4893660    0.4936700    1.9128200  
H     0.9282970    0.8558800   -1.7767440  
C    -1.7505350   -0.4174110    0.0185410  
C    -3.0576670   -0.1211760   -0.2301370  
C    -3.1560400    1.3461590   -0.2749350  
C    -1.7951690    1.8691940   -0.0240040  
N    -0.9863820    0.7439340    0.1510860  
C    -1.4444510    3.1749900    0.0134840  
C    -2.4950190    4.1719940   -0.1967190  
O    -2.2816180    5.3726120   -0.1975440  
C    -3.9581970    3.6523700   -0.4263860  
O    -4.8581540    4.4595880   -0.5801990  
C    -4.1937980    2.1994310   -0.4539390  
H    -0.4318150    3.5151110    0.2016600  
H    -5.2067430    1.8662480   -0.6443610  
H    -1.2681660   -1.3817510    0.1027350  
C     4.1072500    1.7018740   -2.0219460  
C     3.7869650    0.7430340   -1.1036120  
C     4.8776110   -0.2301460   -1.1247700  
C     5.8501900    0.2587990   -2.1326200  
N     5.3123200    1.4267620   -2.6452140  
C     7.0120980   -0.3651970   -2.4474850  
C     7.3343970   -1.6175410   -1.7650750  
O     8.3562980   -2.2485090   -1.9811270  
C     6.3040230   -2.1716600   -0.7152920  
O     6.5395440   -3.2275450   -0.1522700  
C     5.0863850   -1.3927270   -0.4544680  
H     7.7123190    0.0116140   -3.1866210  
H     4.3877590   -1.7862130    0.2768080  
H     3.5546550    2.5957810   -2.2809850  
H     5.7711570    2.0278030   -3.3122010  
C    -4.1411710   -3.8669910    1.9409020  
C    -3.5414170   -2.6939670    1.6237800  
C    -4.2318060   -2.2239280    0.4265890  
C    -5.2581930   -3.2791940    0.1687240  
N    -5.1960960   -4.2369090    1.0494610  
C    -6.1832360   -3.1893790   -0.9313300  
C    -6.1023320   -2.1040950   -1.7338120  
O    -6.9066510   -1.8857380   -2.7868880  
C    -5.0740110   -1.0288780   -1.5147810  
O    -5.0555480   -0.0973720   -2.3159110  
C    -4.1107140   -1.1296250   -0.3737070  
H    -2.7469140   -2.1919700    2.1568350  
H    -6.9172860   -3.9716380   -1.0886240  
H    -6.6064590   -1.0403070   -3.1845160  
H    -3.9189320   -4.5224770    2.7744110  
