62


C    -0.7617230    0.6180570    0.4357720  
C    -1.9252030   -0.1131090    0.3372530  
C    -3.0270520    0.7811560    0.5240010  
C    -2.4729040    2.0783960    0.7197270  
N    -1.1005250    1.9575600    0.6308180  
C    -3.2469730    3.2202450    0.9293020  
C    -4.6259740    3.0575490    0.9355720  
O    -5.4377570    4.1334470    1.1617740  
C    -5.1972890    1.7866860    0.7087870  
O    -6.5984530    1.7903770    0.6971660  
C    -4.4401830    0.6305750    0.4923800  
H    -1.9732450   -1.1732980    0.1409770  
H    -0.4438510    2.6493140    0.9601690  
H    -2.8184670    4.2032920    1.0960380  
H    -6.3479900    3.7896770    1.1931090  
H    -6.9095160    0.9756880    1.1269610  
C     1.1347910   -0.9983520    0.8331940  
C     0.6275460    0.1991320    0.3747510  
C     1.7530700    0.9304220   -0.1671440  
C     2.9047580    0.1258360    0.0254190  
N     2.4994250   -1.0313100    0.6592060  
C     4.2056690    0.5264170   -0.3648490  
C     4.2760710    1.7339350   -1.0769890  
O     5.4589720    2.1530480   -1.6035780  
C     3.1250310    2.5319650   -1.2966610  
O     3.3842370    3.6948350   -2.0023170  
C     1.8775280    2.1626870   -0.8357830  
H     3.0549030   -1.8784190    0.5839540  
H     5.2851080    3.0004850   -2.0498440  
H     2.5476020    4.1114280   -2.2558210  
H     1.0099050    2.7899570   -1.0278850  
H     0.6161280   -1.8223270    1.3025420  
C     5.3064460   -3.7806350   -0.6659250  
C     6.6289400   -3.7471610   -0.3916780  
C     6.9154620   -2.3552760   -0.0666620  
C     5.5991970   -1.6500910   -0.2411980  
N     4.6669150   -2.5040230   -0.5655910  
C     5.4461450   -0.2155560   -0.0387190  
C     6.5469170    0.4120120    0.4843300  
O     6.5675120    1.6981960    0.8511430  
C     7.8652480   -0.2769350    0.7005820  
O     8.7906710    0.3928590    1.1593240  
C     8.0060800   -1.7069910    0.3797290  
H     7.3349050   -4.5657660   -0.3882920  
H     7.4848960    1.8627510    1.1655500  
H     8.9737860   -2.1678210    0.5522100  
H     4.7003200   -4.6357320   -0.9400660  
C    -7.5875890   -0.5620050   -2.3686840  
C    -7.6167180   -1.9005930   -2.1403890  
C    -6.6531180   -2.1787250   -1.0977500  
C    -6.0489130   -0.8714490   -0.7373330  
N    -6.6314950    0.0642160   -1.5768170  
C    -5.0811440   -0.6757720    0.2159570  
C    -4.6827720   -1.8861110    0.9756900  
O    -3.9362290   -1.8487740    1.9386880  
C    -5.2567460   -3.2906480    0.5487190  
O    -4.8296190   -4.2852270    1.1164170  
C    -6.2672840   -3.3382830   -0.4985480  
H    -8.2332550   -2.6281090   -2.6480140  
H    -6.6736410   -4.3066680   -0.7738590  
H    -8.1697370    0.0261320   -3.0663580  
H    -6.6366340    1.0499610   -1.3507280  
