60


C     0.9754600    1.6762110   -0.2098590  
C     1.6862860    0.4691040   -0.2195420  
C     0.7561000   -0.5926040   -0.3471040  
C    -0.5352160    0.0103940   -0.4406730  
N    -0.3695770    1.3633220   -0.3447000  
C    -1.7286890   -0.7154070   -0.6335040  
C    -1.5595750   -2.0941500   -0.7540070  
O    -2.6269830   -2.8889980   -0.9874560  
C    -0.2789250   -2.7299000   -0.6566740  
O    -0.3537570   -4.0870710   -0.7898950  
C     0.8930280   -2.0186510   -0.4164680  
H     2.7609220    0.3827380   -0.2217930  
H    -1.0884910    2.0718430   -0.3979110  
H    -2.2704220   -3.7966640   -1.0760180  
H     0.4362710   -4.3752290   -1.3163640  
C     3.9237680   -1.4370870    2.7200170  
C     4.9004440   -2.2646760    2.2734490  
C     4.4091060   -2.8927720    1.0640820  
C     3.0472940   -2.3432490    0.8328990  
N     2.8151730   -1.4802600    1.8743260  
C     2.2098350   -2.6691530   -0.2144890  
C     2.7024830   -3.7389710   -1.0786930  
O     2.0116300   -4.3075750   -1.9280320  
C     4.1832710   -4.2488080   -0.9325770  
O     4.6124540   -5.0189740   -1.7744530  
C     4.9636750   -3.7959580    0.2148100  
H     5.8598490   -2.4405600    2.7371660  
H     5.9689020   -4.1865540    0.3353570  
H     3.9026890   -0.8026830    3.5960660  
H     1.9936950   -0.8989330    1.9522340  
C    -3.3505800    0.9950420   -1.5589540  
C    -3.0404630   -0.0580810   -0.7460410  
C    -4.2585210   -0.3661310    0.0044680  
C    -5.2886340    0.5981710   -0.4526990  
N    -4.6698300    1.3941340   -1.3972270  
C    -6.5645780    0.6424890    0.0081110  
C    -6.9631020   -0.3144340    1.0353520  
O    -8.0865210   -0.3529080    1.5135760  
C    -5.8823430   -1.3347700    1.5492020  
O    -6.1891360   -2.1338280    2.4193560  
C    -4.5379380   -1.2857810    0.9620200  
H    -7.3023080    1.3570830   -0.3438880  
H    -3.8096190   -2.0089000    1.3109410  
H    -2.7215790    1.5006040   -2.2805260  
H    -5.1199840    2.1335570   -1.9135210  
C     4.8625870    3.6425740    0.9101920  
C     3.9054610    2.6904500    0.7487980  
C     2.7301680    3.4003490    0.2615510  
C     3.1752590    4.8072100    0.2019370  
N     4.4239990    4.9482770    0.5703890  
C     2.3015860    5.8770310   -0.2091850  
C     1.0238140    5.5671510   -0.5213590  
O     0.0964770    6.4774180   -0.8866090  
C     0.5253290    4.1627320   -0.4626020  
O    -0.6744460    3.9935640   -0.7162520  
C     1.4578550    3.0309070   -0.1124790  
H     3.9905280    1.6386770    0.9766190  
H     2.6710650    6.8961220   -0.2397790  
H    -0.7307090    5.9716310   -1.0254430  
H     5.8776430    3.5105490    1.2655800  
