60


C    -0.6766830   -1.1816370    0.6349200  
C    -0.0790940   -0.0759120    0.0772550  
C    -1.1262620    0.7755840   -0.4246820  
C    -2.3479480    0.1280790   -0.1231120  
N    -2.0423380   -1.0542730    0.5173410  
C    -3.6126990    0.6552280   -0.4886660  
C    -3.5780350    1.8525440   -1.2168040  
O    -4.7388380    2.4355310   -1.6377150  
C    -2.3569980    2.5087680   -1.5182090  
O    -2.5297830    3.6773000   -2.2275910  
C    -1.1367160    1.9943960   -1.1291970  
H    -2.7166540   -1.7756480    0.7255860  
H    -4.5017380    3.2767300   -2.0698850  
H    -1.7029810    4.1822370   -2.2497040  
H    -0.2122730    2.5127400   -1.3681560  
H    -0.2317450   -2.0403210    1.1163520  
C     2.2180410   -0.7053780   -0.6565570  
C     3.5025490   -0.2587750   -0.5629370  
C     3.4450150    0.9926310    0.1890300  
C     2.0187230    1.2119770    0.5274430  
N     1.3102160    0.1484720   -0.0264820  
C     1.5538130    2.2654490    1.2461150  
C     2.5078160    3.2803080    1.6873830  
O     2.1790850    4.2698710    2.3234090  
C     4.0201850    3.0885770    1.3056120  
O     4.8289220    3.9390150    1.6389030  
C     4.4001590    1.8873400    0.5517900  
H     0.5077850    2.3938540    1.5017490  
H     5.4496410    1.7578900    0.3079960  
H     1.8445010   -1.5997520   -1.1377990  
C     4.8335580   -1.2791700   -2.4493630  
C     4.6851510   -0.8892100   -1.1499540  
C     5.9183140   -1.2735800   -0.4633100  
C     6.7838100   -1.9133810   -1.4847410  
N     6.0578050   -1.8975150   -2.6612600  
C     8.0264430   -2.4021270   -1.2447920  
C     8.5555950   -2.3160000    0.1140860  
O     9.6622130   -2.7270810    0.4255460  
C     7.6433910   -1.6716840    1.2208530  
O     8.0543670   -1.6133680    2.3678680  
C     6.3214310   -1.1655990    0.8289860  
H     8.6452750   -2.8629060   -2.0086800  
H     5.7063210   -0.7169120    1.6022530  
H     4.1409130   -1.1550750   -3.2716680  
H     6.4047340   -2.2078560   -3.5553780  
C    -4.8574890   -0.0129760   -0.1223560  
C    -5.1121800   -0.8646660    0.9290650  
C    -6.4937700   -1.2645310    0.8571100  
C    -7.0540860   -0.5794550   -0.3340980  
N    -6.0143170    0.1361430   -0.8900580  
C    -8.3445750   -0.6829740   -0.7409460  
C    -9.2509720   -1.5267760    0.0333680  
O   -10.4275290   -1.6810770   -0.2571570  
C    -8.6762280   -2.2696950    1.2957190  
O    -9.4204300   -2.9847110    1.9501160  
C    -7.2664530   -2.0733960    1.6337100  
H    -4.4345590   -1.1081900    1.7341730  
H    -8.7380760   -0.1725810   -1.6145940  
H    -6.8831640   -2.5871910    2.5102900  
H    -6.1044460    0.8456120   -1.6026830  
