60


C     3.4926780   -0.5587890   -0.1017130  
C     4.1341530    0.6479240   -0.3298900  
C     5.5469710    0.4237770   -0.2594240  
C     5.7197720   -1.0225250    0.0284070  
N     4.4524280   -1.5480590    0.1222310  
C     6.9242540   -1.6355530    0.1608820  
C     8.1338870   -0.8318980    0.0171290  
O     9.2597350   -1.2968090    0.1215390  
C     7.9745090    0.7041230   -0.2851520  
O     8.9802840    1.3908550   -0.4045530  
C     6.6254610    1.2479260   -0.4094530  
H     3.6670920    1.5812540   -0.6004330  
H     7.0325330   -2.6954440    0.3689800  
H     6.5270730    2.3084560   -0.6219490  
H     4.1899660   -2.5242150    0.1884990  
C    -0.1871410    1.9309880    0.3446510  
C     1.1126710    1.4611870    0.3299290  
C     1.0708100    0.0742930    0.0217570  
C    -0.3490550   -0.2650670   -0.1461720  
N    -1.0652920    0.9216590   -0.0134830  
C    -0.8763490   -1.5177790   -0.3485400  
C     0.1225950   -2.6077610   -0.3765020  
O    -0.1758360   -3.7762620   -0.5495360  
C     1.6462920   -2.2763730   -0.1917750  
O     2.3949470   -3.2479810   -0.1162250  
C     2.0819970   -0.8833730   -0.1066030  
H     1.9899390    2.0533670    0.5258580  
H    -2.0448550    0.9244550    0.2436440  
C    -3.1990710   -0.9497180   -1.1820140  
C    -2.2923460   -1.7717380   -0.5563450  
C    -3.1175580   -2.9287710   -0.1226330  
C    -4.4924260   -2.5826430   -0.5819060  
N    -4.5187200   -1.4325560   -1.2078460  
C    -5.6196990   -3.4407130   -0.3455490  
C    -5.4061690   -4.5931380    0.3349270  
O    -6.3622450   -5.4834080    0.6336490  
C    -4.0359640   -4.9669630    0.8267070  
O    -3.9183320   -6.0200480    1.4483970  
C    -2.8886460   -4.0711400    0.5524380  
H    -6.6016620   -3.1521510   -0.7033440  
H    -5.9085470   -6.2034540    1.1250890  
H    -1.9147930   -4.4026380    0.8897600  
H    -2.9855890   -0.0179410   -1.6934130  
C     0.0673310    4.0657510    1.5113700  
C    -0.6610250    5.1953700    1.7021580  
C    -1.8870530    5.0607020    0.9546820  
C    -1.8565310    3.8012100    0.3139000  
N    -0.6423470    3.1810380    0.6755760  
C    -2.8683370    3.3835850   -0.5571930  
C    -3.9516050    4.2354930   -0.7411490  
O    -4.9558770    3.8629770   -1.5762030  
C    -4.0107680    5.4874430   -0.0783190  
O    -5.1441450    6.2129760   -0.3603630  
C    -2.9880510    5.9089580    0.7550540  
H    -0.3689680    6.0359380    2.3165700  
H    -2.8375240    2.4601430   -1.1213510  
H    -5.6134940    4.5801880   -1.5897930  
H    -5.1167380    7.0664650    0.0976150  
H    -3.0339950    6.8831370    1.2364360  
H     1.0152970    3.7607280    1.9269000  
