58


C    -0.8173790   -0.5217620   -1.7181900  
C    -2.1685220   -0.3909810   -1.7283210  
C    -2.6407410   -0.7238130   -0.4047800  
C    -1.4442590   -1.0692700    0.3918700  
N    -0.3479600   -0.9326140   -0.4672130  
C    -1.4569770   -1.3754120    1.7120590  
C    -2.7426480   -1.4023800    2.4011500  
O    -2.8569480   -1.6098670    3.5975820  
C    -4.0476540   -1.1372550    1.5656270  
O    -5.1329400   -1.2714250    2.0990940  
C    -3.8945150   -0.7468300    0.1447520  
H    -2.7725920   -0.0855390   -2.5695860  
H    -0.5659970   -1.6052890    2.2840950  
H    -0.1062950   -0.3680080   -2.5187530  
C     3.1987840    1.6025280   -0.6815530  
C     1.9262530    1.1324050   -0.6896380  
C     1.9799390   -0.2611710   -0.3208720  
C     3.4068060   -0.5828760   -0.0969520  
N     4.1198130    0.5996830   -0.3588650  
C     3.8587440   -1.7750200    0.3575730  
C     2.8880520   -2.8449100    0.5858500  
O     3.1974790   -3.9379330    1.0269300  
C     1.3790310   -2.5740340    0.2505290  
O     0.5764300   -3.4856900    0.3250080  
C     1.0012420   -1.2034650   -0.1580360  
H     1.0396980    1.7034890   -0.9219260  
H     4.9015280   -1.9928370    0.5510750  
H     3.5657650    2.5953850   -0.9023660  
C    -5.3762350   -1.2356790   -1.7954490  
C    -6.5479560   -0.8131800   -2.3278210  
C    -7.0466780    0.2538990   -1.4867890  
C    -6.0553260    0.4186490   -0.3959010  
N    -5.0472170   -0.5230510   -0.6324890  
C    -6.1446050    1.3587560    0.5750070  
C    -7.3003730    2.2562860    0.5703690  
O    -7.4526000    3.1414290    1.3974330  
C    -8.3783940    2.0768700   -0.5585900  
O    -9.3521940    2.8133390   -0.5721040  
C    -8.1554130    1.0354020   -1.5638590  
H    -7.0309500   -1.2114400   -3.2085350  
H    -5.4147620    1.4758910    1.3673940  
H    -8.8912030    0.9315490   -2.3555600  
H    -4.7150730   -2.0267260   -2.1232080  
C     6.6082500    3.6575770    1.6342690  
C     5.5175370    2.9476750    1.2529210  
C     6.0438800    1.8682870    0.4262870  
C     7.5196970    2.1016310    0.4154200  
N     7.8408450    3.1466420    1.1234570  
C     8.4277370    1.2338150   -0.2898950  
C     7.9070860    0.1826640   -0.9631670  
O     8.6399110   -0.7058880   -1.6524740  
C     6.4278130   -0.0765180   -1.0082690  
O     6.0246620   -1.0008120   -1.7051660  
C     5.5032110    0.8159870   -0.2375750  
H     4.4862340    3.1161210    1.5282650  
H     9.4932050    1.4323670   -0.2655890  
H     8.0042310   -1.3252360   -2.0695650  
H     6.6391160    4.5331620    2.2714460  
