58


C    -4.5023830   -0.4147160    0.1907110  
C    -4.7759050   -1.6759880    0.6770670  
C    -6.1252350   -2.0089700    0.3135910  
C    -6.6473360   -0.8445040   -0.4430860  
N    -5.6297000    0.0839170   -0.4667000  
C    -7.8929040   -0.7784370   -0.9787940  
C    -8.7879080   -1.9183040   -0.8005400  
O    -9.9243780   -1.9513100   -1.2466960  
C    -8.2569820   -3.1606300    0.0055020  
O    -8.9904490   -4.1236810    0.1665580  
C    -6.8901950   -3.1152280    0.5328190  
H    -4.0823270   -2.3258290    1.1868560  
H    -8.2594200    0.0805920   -1.5318180  
H    -6.5321520   -3.9791440    1.0846690  
H    -5.5930400    0.9223950   -1.0297150  
C    -0.8766220   -0.5402360    2.8088710  
C    -2.1301580   -0.7611860    2.3388890  
C    -2.2636440    0.1053310    1.1808150  
C    -0.9450010    0.8152130    1.1095610  
N    -0.1395170    0.4161970    2.0530330  
C    -0.6539530    1.8305590    0.1110290  
C    -1.6647070    2.1082740   -0.7649220  
O    -1.5429730    2.9923690   -1.7625310  
C    -2.9980770    1.4372550   -0.7074050  
O    -3.8515550    1.8362740   -1.5058540  
C    -3.2579800    0.3344560    0.2698320  
H    -2.8896240   -1.3960790    2.7684520  
H    -2.4246470    3.0535120   -2.1879120  
H    -0.4043420   -0.9877650    3.6753080  
C     3.6749920    0.6731650   -0.0549840  
C     2.2983480    0.6668500   -0.0084050  
C     1.8572740    2.0276070    0.0690850  
C     3.0890230    2.8616240    0.0555990  
N     4.1431950    1.9828600   -0.0161030  
C     3.1075670    4.2190040    0.0859190  
C     1.8366580    4.9234370    0.1402350  
O     1.7417760    6.1410310    0.1401810  
C     0.5169380    4.0740960    0.2080730  
O    -0.5382290    4.6581400    0.3806410  
C     0.6038330    2.5934880    0.1072180  
H     1.6685250   -0.2082410    0.0016150  
H     4.0218920    4.8028000    0.0525140  
H     5.1281220    2.2036840   -0.0525500  
C     4.6218630   -0.4057270   -0.1341940  
C     4.4120530   -1.7578960   -0.1773500  
C     5.7275450   -2.3466410   -0.2537410  
C     6.6641940   -1.1725670   -0.2474280  
N     6.0140690   -0.0472560   -0.1776240  
C     8.0908860   -1.3442480   -0.3129010  
C     8.5669420   -2.6104960   -0.3808940  
O     9.8649160   -2.9226160   -0.4464330  
C     7.6486620   -3.8156460   -0.3888100  
O     8.1789370   -4.9231280   -0.4529840  
C     6.1959960   -3.6155010   -0.3213400  
H     3.4688610   -2.2853440   -0.1572580  
H     8.7466410   -0.4809440   -0.3069370  
H     9.8989360   -3.9052330   -0.4852830  
H     5.5691760   -4.5016830   -0.3293810  
