60


C     3.8940950    1.5452390   -0.9265650  
C     2.5503450    1.7478840   -0.7350080  
C     1.9408950    0.4656840   -0.5446330  
C     2.9828190   -0.4866400   -0.6169080  
N     4.1742900    0.1903200   -0.8665440  
C     2.7890580   -1.8586510   -0.4113480  
C     1.5060230   -2.2882690   -0.1282160  
O     1.2626170   -3.6083890    0.0862740  
C     0.4202990   -1.3734400   -0.0567250  
O    -0.7574190   -1.9736770    0.2207730  
C     0.5993670    0.0203260   -0.2830570  
H     2.0809380    2.7179320   -0.7048420  
H     3.6007770   -2.5765390   -0.4485100  
H     0.3079650   -3.6915460    0.2658910  
H    -1.4551190   -1.2590740    0.3028610  
H     4.6870160    2.2536730   -1.1176290  
C    -0.5268110    0.9140900   -0.2688970  
C    -0.6560210    2.2388840   -0.6344540  
C    -2.0188420    2.6003380   -0.4185210  
C    -2.6585930    1.3538960    0.1121130  
N    -1.7963040    0.3856130    0.1877570  
C    -4.0584310    1.2993500    0.4723600  
C    -4.7742280    2.4478720    0.3014110  
O    -6.0655850    2.5690660    0.5949400  
C    -4.1577930    3.7152910   -0.2657610  
O    -4.9284000    4.6742700   -0.3736640  
C    -2.7508450    3.7351750   -0.6103220  
H     0.0955400    2.8822910   -1.0604450  
H    -6.2900830    3.5005410    0.3476880  
H    -2.3401880    4.6584900   -1.0046890  
C    -4.1195560   -0.6307860    2.0461380  
C    -4.8471470   -1.7509940    2.2701600  
C    -5.8956540   -1.7946740    1.2737700  
C    -5.7188180   -0.5844350    0.4335980  
N    -4.6204790    0.1002270    0.9579550  
C    -6.4930570   -0.2818850   -0.6371420  
C    -7.5852000   -1.1902390   -0.9843590  
O    -8.3282670   -0.9981180   -1.9344340  
C    -7.8037580   -2.4664580   -0.0938110  
O    -8.7170660   -3.2300840   -0.3655900  
C    -6.8884060   -2.6891410    1.0275150  
H    -4.6775370   -2.4780400    3.0511530  
H    -6.3544410    0.6020830   -1.2476080  
H    -7.0332650   -3.5824880    1.6274690  
H    -3.2581900   -0.2508240    2.5771060  
C     5.8184620   -1.3350930   -1.9148080  
C     5.4505560   -0.3821890   -1.0118770  
C     6.6194010   -0.0687230   -0.2027070  
C     7.7078280   -0.9302360   -0.7229890  
N     7.1509130   -1.6780970   -1.7464500  
C     8.9750640   -0.9345610   -0.2400220  
C     9.2975150   -0.0400620    0.8710770  
O    10.4102630    0.0276070    1.3675660  
C     8.1511600    0.8710420    1.4459240  
O     8.3987550    1.6187380    2.3771690  
C     6.8199510    0.7864340    0.8322210  
H     9.7629550   -1.5695540   -0.6332220  
H     6.0336730    1.4169860    1.2350750  
H     5.2195390   -1.8077810   -2.6813820  
H     7.6442470   -2.3680700   -2.2911550  
