60


C     0.2631750   -1.1834030    0.4915260  
C     1.4042370   -0.3790170    0.5783000  
C     2.5397930   -1.2374440    0.5798490  
C     2.0470180   -2.5709330    0.4894160  
N     0.6786860   -2.5044530    0.4508230  
C     2.8881070   -3.6874770    0.4317790  
C     4.2525030   -3.4529420    0.4607980  
O     5.1203050   -4.4986180    0.4097890  
C     4.7704600   -2.1292950    0.5567830  
O     6.1476300   -2.0953480    0.6135700  
C     3.9451750   -1.0103730    0.6191390  
H     1.4293640    0.6992900    0.5189610  
H     0.0185940   -3.2573400    0.2953820  
H     2.5153380   -4.7032580    0.3573450  
H     6.0210460   -4.1298710    0.4277000  
H     6.4648060   -1.1794110    0.5763230  
C    -1.8787050    2.5033230    1.5219440  
C    -3.1265450    2.1637340    1.1116010  
C    -3.0727820    0.8063920    0.6186770  
C    -1.6666580    0.3889070    0.7513890  
N    -0.9805330    1.4694120    1.2688610  
C    -1.1416360   -0.8413750    0.4147170  
C    -2.1401240   -1.8275950   -0.0244270  
O    -1.8940440   -3.0154560   -0.1976470  
C    -3.6224780   -1.3673410   -0.3085750  
O    -4.3570050   -2.2006660   -0.8139420  
C    -4.0458450   -0.0079970    0.0689330  
H    -4.0049900    2.7847100    1.1732110  
H    -1.5290450    3.4236730    1.9701400  
H    -0.0826410    1.3657580    1.7187870  
C    -6.9330090   -0.2326800   -3.3220410  
C    -5.8203670   -0.2806150   -2.5461030  
C    -6.1851030    0.1878660   -1.2278990  
C    -7.6275860    0.5299830   -1.3067730  
N    -8.0207500    0.2437640   -2.5963670  
C    -8.3712040    1.0431010   -0.2910320  
C    -7.7099840    1.2900730    0.9748880  
O    -8.2655880    1.7807450    1.9466940  
C    -6.1829250    0.9206140    1.1038040  
O    -5.6555530    1.0869520    2.1908030  
C    -5.4553360    0.3766650   -0.0753690  
H    -4.8501460   -0.6356650   -2.8526870  
H    -9.4228350    1.2946910   -0.3872160  
H    -7.0575390   -0.5081550   -4.3607500  
H    -8.9507870    0.3837530   -2.9578570  
C     4.1828700    1.2768590    1.6940590  
C     4.5047990    0.3485940    0.7450470  
C     5.5046150    0.9826980   -0.1138600  
C     5.7321540    2.3445230    0.4325370  
N     4.8844700    2.4621940    1.5173030  
C     6.6057530    3.2445210   -0.0836760  
C     7.3789800    2.8653430   -1.2646230  
O     8.1944900    3.6053420   -1.7912820  
C     7.1361430    1.4387430   -1.8791350  
O     7.7551760    1.1107940   -2.8778060  
C     6.1681470    0.5514030   -1.2220270  
H     6.7572230    4.2363050    0.3314380  
H     5.9971830   -0.4240160   -1.6673810  
H     3.4874550    1.1767940    2.5169830  
H     4.8487180    3.2572380    2.1359830  
