62


C     1.4288160    0.1625740   -2.1704420  
C     2.5095840    0.4104190   -1.3521920  
C     2.0385220    1.3063080   -0.3182090  
C     0.6676300    1.5571330   -0.5742470  
N     0.3298970    0.8571050   -1.7166590  
C    -0.1343850    2.4037920    0.2206220  
C     0.5004460    2.9973350    1.3128230  
O    -0.2062100    3.7882610    2.1662810  
C     1.8790570    2.7743250    1.5690800  
O     2.3518920    3.4533660    2.6775280  
C     2.6520920    1.9522450    0.7729690  
H    -0.5979690    0.8042530   -2.1073530  
H     0.4138510    4.0837290    2.8557860  
H     3.2396780    3.1342300    2.8974600  
H     3.7073500    1.8088220    0.9905760  
H     1.3549710   -0.4903850   -3.0284750  
C    -3.5017940   -0.4630090   -0.0302170  
C    -4.5006090    0.4720080   -0.3140310  
C    -3.8939810    1.7526400   -0.3705680  
C    -2.5040840    1.5676780   -0.1106340  
N    -2.2999210    0.2256380    0.0849220  
C    -1.5720200    2.6275280   -0.0710830  
C    -2.0886520    3.8982350   -0.3285550  
O    -1.2618680    4.9737540   -0.3578490  
C    -3.4772130    4.0989700   -0.5899370  
O    -3.8026200    5.4215620   -0.8207010  
C    -4.3775400    3.0577090   -0.6145730  
H    -5.5352230    0.2461550   -0.5241500  
H    -1.4210620   -0.2507390    0.2446790  
H    -1.8144760    5.7599630   -0.5115000  
H    -4.7590390    5.5023260   -0.9504730  
H    -5.4313610    3.2381130   -0.8161070  
C     4.5595230   -0.1553810   -2.7129640  
C     3.8598670   -0.1176930   -1.5431290  
C     4.7175010   -0.7491530   -0.5403230  
C     5.9691850   -1.1428490   -1.2370600  
N     5.7974560   -0.7794190   -2.5546330  
C     7.0298300   -1.7422190   -0.6354730  
C     6.9446450   -2.0382280    0.7890010  
O     7.8487040   -2.5674470    1.4194000  
C     5.6178650   -1.6548110    1.5427900  
O     5.5290790   -1.8871960    2.7385650  
C     4.5399520   -1.0165810    0.7797810  
H     7.9365000   -2.0195760   -1.1647590  
H     3.6248080   -0.7685940    1.3071210  
H     4.2687650    0.2282080   -3.6819750  
H     6.5046860   -0.8546460   -3.2684130  
C    -6.8426570   -3.3010860    0.8130560  
C    -6.0796530   -2.1831230    0.6802900  
C    -4.7398300   -2.6049310    0.3372190  
C    -4.7790190   -4.0781060    0.2908110  
N    -6.0845820   -4.4371560    0.5569490  
C    -3.7207960   -4.8977610    0.0224970  
C    -2.4358700   -4.2828990   -0.2038960  
O    -1.4126110   -4.8929410   -0.4850150  
C    -2.3353270   -2.7164710   -0.0673670  
O    -1.2132330   -2.2279940   -0.0866110  
C    -3.5730430   -1.9018160    0.0872840  
H    -6.4095950   -1.1716620    0.8544370  
H    -3.8030100   -5.9781800   -0.0379100  
H    -7.8863930   -3.3952650    1.0807610  
H    -6.4057520   -5.3875340    0.6535050  
