60


C     0.4386760    1.5111280   -0.0928510  
C     1.5051710    0.7012880    0.2423270  
C     2.7009420    1.3853400   -0.1403170  
C     2.3103510    2.6312140   -0.7036590  
N     0.9334300    2.6910690   -0.6379360  
C     3.2232150    3.5729750   -1.1886040  
C     4.5713310    3.2521220   -1.1206410  
O     5.5024660    4.1222780   -1.5990450  
C     4.9939070    2.0185600   -0.5641850  
O     6.3598980    1.8290310   -0.5402520  
C     4.0818450    1.0951270   -0.0621390  
H     1.4311750   -0.2567710    0.7352080  
H     0.3628330    3.3852120   -1.0973010  
H     2.9186650    4.5223130   -1.6162670  
H     6.3735700    3.6991300   -1.5028000  
H     6.5457630    0.8767860   -0.4946120  
C    -1.6050890    0.0631650   -0.1728500  
C    -0.9869110    1.2632040    0.0273350  
C    -2.0355740    2.2161310    0.3744710  
C    -3.3101510    1.4617770    0.3515290  
N    -2.9856170    0.1412570    0.0121660  
C    -4.5115670    1.9963630    0.6728290  
C    -4.5718040    3.4130540    1.0381220  
O    -5.6126400    3.9726720    1.3425440  
C    -3.2341750    4.2332880    1.0528270  
O    -3.2613600    5.4153590    1.3555840  
C    -1.9931920    3.5309490    0.7137790  
H    -5.4391180    1.4369230    0.6616220  
H    -1.0667040    4.0928420    0.7783210  
H    -1.1666590   -0.8751170   -0.4843520  
C    -2.9424750   -3.9453060    1.5920860  
C    -2.6799500   -2.6287450    1.3656440  
C    -3.6610720   -2.1552940    0.4177760  
C    -4.5303600   -3.3134450    0.1052550  
N    -4.0336650   -4.3673750    0.8497250  
C    -5.5999190   -3.2868110   -0.7313870  
C    -5.9229150   -2.0307680   -1.3918140  
O    -6.8926660   -1.8767390   -2.1161870  
C    -4.9692430   -0.7997650   -1.1619030  
O    -5.1412100    0.2111780   -1.8179910  
C    -3.8742580   -0.9365760   -0.1738200  
H    -1.8954950   -2.0487710    1.8274360  
H    -6.2291630   -4.1492620   -0.9258540  
H    -2.4321840   -4.6410490    2.2447800  
H    -4.4153650   -5.3004230    0.8504560  
C     5.3309810   -0.1422140    1.7204760  
C     5.5345730   -1.4139020    2.1427330  
C     4.8598560   -2.2917660    1.2101130  
C     4.2427270   -1.4105220    0.1868610  
N     4.5771970   -0.1021660    0.5347930  
C     3.5106600   -1.8573200   -0.8654650  
C     3.2892870   -3.2958630   -0.9943000  
O     2.6173570   -3.7874560   -1.8887650  
C     3.9371180   -4.2479640    0.0771570  
O     3.7565680   -5.4524050   -0.0152040  
C     4.7251100   -3.6432480    1.1534190  
H     6.0898830   -1.7171430    3.0186250  
H     3.0659170   -1.1971640   -1.6015280  
H     5.1719870   -4.3079660    1.8866260  
H     5.6556090    0.7925540    2.1580860  
