58


C    -3.6650380   -0.8895300    1.8264190  
C    -4.2578700   -0.1656380    0.8302460  
C    -5.3037860   -1.0297290    0.2692680  
C    -5.2483200   -2.3023050    1.0296640  
N    -4.2285600   -2.1522230    1.9496370  
C    -6.0594140   -3.3702940    0.8186090  
C    -7.0537240   -3.2844130   -0.2444300  
O    -7.8268860   -4.1914900   -0.5136630  
C    -7.1147210   -1.9567850   -1.0835650  
O    -7.9188370   -1.8712490   -1.9971080  
C    -6.1938910   -0.8636210   -0.7402490  
H    -5.9999820   -4.2876450    1.3964300  
H    -6.2791770    0.0576820   -1.3040910  
H    -2.8692260   -0.5889330    2.4957750  
H    -4.0002630   -2.8217830    2.6676610  
C    -0.3187720    1.5970620   -0.0560920  
C    -0.7214210    2.8858430   -0.3201080  
C    -2.1499640    2.9410840   -0.1764520  
C    -2.5850950    1.5779540    0.2030200  
N    -1.4387180    0.8228150    0.2854070  
C    -3.8834320    1.1912270    0.4121480  
C    -4.9100010    2.2387330    0.2538640  
O    -6.0995540    2.0343520    0.4371150  
C    -4.4637040    3.6936150   -0.1517870  
O    -5.3267680    4.5456820   -0.2987380  
C    -3.0421050    3.9594560   -0.3392390  
H    -0.0641150    3.6949080   -0.5925720  
H    -2.7421160    4.9648580   -0.6175220  
H    -1.4123620   -0.1794810    0.4010510  
C     3.5454590    3.4191170   -1.0668590  
C     4.3977010    2.3759280   -0.9192770  
C     3.5667030    1.2592310   -0.4867340  
C     2.1891630    1.8302080   -0.4384380  
N     2.1928080    3.0890430   -0.7734280  
C     1.0158020    1.0244240   -0.0841930  
C     1.2858020   -0.2875770    0.2045780  
O     0.3502980   -1.1896700    0.5652110  
C     2.6639020   -0.8693010    0.2188390  
O     2.7699550   -2.0154800    0.6483130  
C     3.8360580   -0.0439620   -0.2022680  
H     5.4583640    2.3507530   -1.1248730  
H     0.8551500   -2.0174890    0.7498260  
H     3.7717120    4.4287200   -1.3874680  
C     7.6954970    1.0358360    1.6934990  
C     8.4372740   -0.0255220    1.2936440  
C     7.5829580   -0.8630720    0.4761410  
C     6.2605950   -0.1880400    0.4310270  
N     6.3961760    0.9493480    1.1895790  
C     5.1539390   -0.6829160   -0.2134070  
C     5.3319310   -1.9346360   -0.9817430  
O     4.4657660   -2.3827790   -1.7115700  
C     6.7094130   -2.6786640   -0.9016740  
O     6.8299880   -3.7533550   -1.4641940  
C     7.8000440   -2.0458830   -0.1560600  
H     9.4708570   -0.2192390    1.5399060  
H     8.7537570   -2.5635100   -0.1207810  
H     7.9720780    1.8776940    2.3139460  
H     5.6757820    1.6455100    1.3110810  
