58


C    -5.5076090   -0.6009100   -0.3911550  
C    -6.2615570   -1.3441340   -1.2603640  
C    -7.6357030   -0.9340110   -1.1291410  
C    -7.6472040    0.1289130   -0.0946660  
N    -6.3231830    0.3300580    0.2746820  
C    -8.7649450    0.7440010    0.3602600  
C   -10.0517230    0.3650440   -0.2245640  
O   -11.1090640    0.8681630    0.1208460  
C   -10.0594400   -0.7300420   -1.3534220  
O   -11.1259780   -1.0482330   -1.8580880  
C    -8.7847150   -1.3310200   -1.7431140  
H    -5.8789440   -2.0661030   -1.9678080  
H    -8.7566500    1.5138630    1.1259290  
H    -8.8038210   -2.0992060   -2.5102200  
H    -6.0653990    0.7387880    1.1618540  
C    -3.3145850   -1.7956280   -0.1956520  
C    -4.0873320   -0.6687800   -0.1202630  
C    -3.1912890    0.4110910    0.2829170  
C    -1.8385040   -0.1962460    0.4181870  
N    -1.9913960   -1.5245100    0.0750380  
C    -0.6779280    0.4773710    0.7568780  
C    -0.8751490    1.9108380    1.0415310  
O     0.0341890    2.6747090    1.3528160  
C    -2.3012630    2.5653780    0.9155640  
O    -2.4049880    3.7555940    1.1573810  
C    -3.4163930    1.7332620    0.4914010  
H    -4.3826630    2.2054430    0.3529900  
H    -3.6238150   -2.8089380   -0.4158420  
H    -1.3415830   -2.2137460    0.4481690  
C     3.3521480    1.9172350   -0.4346690  
C     4.1181270    0.8133390   -0.1610260  
C     3.1985740   -0.1719920    0.4198710  
C     1.8486390    0.4549230    0.4199580  
N     2.0260660    1.7024450   -0.1306450  
C     0.6690200   -0.1442800    0.8390960  
C     0.8449300   -1.4957350    1.3891210  
O    -0.0800520   -2.1962950    1.7969200  
C     2.2752540   -2.1448030    1.4615150  
O     2.3717100   -3.2527890    1.9585340  
C     3.4133450   -1.4149360    0.9117970  
H     4.3980180   -1.8652950    0.9242330  
H     3.6572540    2.8744110   -0.8360030  
H     1.3573370    2.4450010    0.0541340  
C     5.5330810    0.6763170   -0.3939610  
C     6.3998140    1.5613740   -0.9884600  
C     7.6896560    0.9316860   -0.9535450  
C     7.4379220   -0.3907590   -0.2820210  
N     6.1847700   -0.5320090    0.0377260  
C     8.4960500   -1.3373290   -0.0526170  
C     9.7386160   -0.9941590   -0.4669610  
O    10.8207620   -1.7650430   -0.3252180  
C    10.0261920    0.3327520   -1.1490380  
O    11.1937240    0.5374880   -1.4834620  
C     8.9345940    1.2773910   -1.3700930  
H     6.1756390    2.5320010   -1.4089020  
H     8.2886670   -2.2834190    0.4346640  
H    11.5596550   -1.2458620   -0.7192620  
H     9.1763510    2.2155310   -1.8595710  
