58


C    -1.5725370    0.1023470    0.7526300  
C    -2.7898450   -0.4007390    0.3639300  
C    -3.4647020    0.6846030   -0.3408500  
C    -2.5078260    1.8181230   -0.3832110  
N    -1.3697830    1.4043590    0.3177470  
C    -2.7405840    2.9912090   -1.0158250  
C    -4.0341760    3.1895690   -1.6723610  
O    -4.3052940    4.1942740   -2.3095670  
C    -5.1064900    2.0549080   -1.5401980  
O    -6.2136170    2.2191560   -2.0295000  
C    -4.7221510    0.8210500   -0.8519760  
H    -2.0320820    3.8103970   -1.0341900  
H    -5.4879860    0.0602010   -0.7479050  
H    -0.8160540   -0.3819050    1.3501710  
C     2.8754180    0.4999470   -0.3989780  
C     1.4989340    0.4837090   -0.3854160  
C     1.0458850    1.6731540    0.2722930  
C     2.2628910    2.4204850    0.6608870  
N     3.3381720    1.6344110    0.2725730  
C     2.2729490    3.6382450    1.2543280  
C     0.9903260    4.2576670    1.5746450  
O     0.8884270    5.3694510    2.0643910  
C    -0.3255180    3.4479650    1.2806720  
O    -1.3935660    3.9047540    1.6498980  
C    -0.2029790    2.1609280    0.5722730  
H     0.8781330   -0.3164200   -0.7601500  
H     3.1817170    4.1740210    1.5092600  
H     4.2735780    1.9982620    0.1630690  
C     3.5188590   -1.2648230   -2.0492890  
C     3.7985360   -0.4428340   -0.9851140  
C     5.1851840   -0.7163500   -0.6033250  
C     5.6715650   -1.7525820   -1.5463430  
N     4.6012390   -2.0400480   -2.3833780  
C     6.9165200   -2.2842020   -1.5409520  
C     7.8670120   -1.8129390   -0.5308310  
O     9.0128430   -2.2220850   -0.4580840  
C     7.3691540   -0.7395490    0.5004490  
O     8.1343050   -0.3405050    1.3609890  
C     5.9877010   -0.2486980    0.3878770  
H     7.2456030   -3.0469930   -2.2397510  
H     5.6592770    0.4655940    1.1355450  
H     2.6019590   -1.3342510   -2.6195750  
H     4.6343780   -2.6859280   -3.1579690  
C    -5.2642920   -3.2851670   -1.9292650  
C    -5.3639860   -4.2700010   -1.0003620  
C    -4.6035600   -3.8494030    0.1564310  
C    -4.0620590   -2.5072180   -0.1686700  
N    -4.4745540   -2.2408440   -1.4609830  
C    -3.2858610   -1.7418080    0.6679280  
C    -2.8743730   -2.3998470    1.9291930  
O    -2.0446850   -1.9191390    2.6860200  
C    -3.4951610   -3.7939230    2.3158780  
O    -3.2201120   -4.2601030    3.4108190  
C    -4.3449330   -4.4640840    1.3438290  
H    -5.8976570   -5.2031650   -1.1055330  
H    -4.7413800   -5.4418470    1.5984170  
H    -5.6897730   -3.2294250   -2.9225640  
H    -4.3410540   -1.3585640   -1.9319150  
