62


C    -1.5863480   -0.7441580   -1.6359360  
C    -2.9374570   -0.7596610   -1.4302960  
C    -3.2481550    0.2498050   -0.4454130  
C    -2.0255030    0.8672870   -0.0889380  
N    -1.0237920    0.2359780   -0.8216810  
C    -1.9266650    1.9395660    0.7994600  
C    -3.1186250    2.4160360    1.3213530  
O    -3.1179230    3.4731260    2.1714810  
C    -4.3695850    1.8211120    0.9898780  
O    -5.4366540    2.4086810    1.6177940  
C    -4.4641680    0.7124450    0.1430900  
H    -3.6390580   -1.3957120   -1.9506910  
H    -0.9836110    2.4060220    1.0604200  
H    -4.0575230    3.6494650    2.3743250  
H    -6.1721010    2.4553310    0.9588000  
H    -0.9544370   -1.3302090   -2.2870620  
C     0.9433490    1.4707300   -1.6219690  
C     2.2770790    1.4594680   -1.3944160  
C     2.5511250    0.4739900   -0.3609580  
C     1.2508220   -0.1187830   -0.0023790  
N     0.3052670    0.5522340   -0.7703970  
C     1.0455500   -1.1289820    0.8843140  
C     2.2107360   -1.6908470    1.5318310  
O     2.1744600   -2.6307890    2.3140510  
C     3.6218210   -1.0668480    1.1987040  
O     4.5923280   -1.5470680    1.7574380  
C     3.7254010    0.0707650    0.2367040  
H     3.0132150    2.0557120   -1.9111760  
H     0.0643380   -1.5295020    1.1120410  
H     0.3443270    2.0438470   -2.3157810  
C     5.1327990    2.1117190   -0.1401940  
C     5.0025840    0.7375120    0.0125520  
C     6.3462830    0.1941100   -0.1109500  
C     7.2146180    1.2867660   -0.3536280  
N     6.4436240    2.4377780   -0.3578290  
C     8.5916980    1.1458460   -0.5597710  
C     9.1115500   -0.1378220   -0.5200590  
O    10.4467940   -0.3410150   -0.7025390  
C     8.2593450   -1.2489060   -0.2848280  
O     8.9189660   -2.4629440   -0.2716170  
C     6.9002870   -1.1010240   -0.0870770  
H     6.8029650    3.3769990   -0.4338160  
H     9.2495850    1.9895530   -0.7411720  
H    10.6058260   -1.2962090   -0.6052320  
H     8.3154450   -3.1527000    0.0429320  
H     6.2804680   -1.9658330    0.1219430  
H     4.3792470    2.8806660   -0.0508640  
C    -5.4725380   -3.5532050    0.3470900  
C    -6.7601200   -3.5261350   -0.0800770  
C    -7.0975810   -2.1407940   -0.3321440  
C    -5.8760510   -1.3527670   -0.0213750  
N    -4.9390330   -2.2679420    0.3928170  
C    -5.7466360    0.0150060   -0.1231340  
C    -6.9797340    0.7221480   -0.4628330  
O    -7.1073280    1.9466350   -0.3959760  
C    -8.2511940   -0.0890010   -0.9129110  
O    -9.2076960    0.5327330   -1.3446700  
C    -8.2351430   -1.5410670   -0.7707720  
H    -7.4192820   -4.3737150   -0.1966460  
H    -9.1309630   -2.0908200   -1.0408890  
H    -4.8620230   -4.3959560    0.6430320  
H    -3.9797120   -2.0340460    0.6022690  
