58


C    -1.4348620   -0.8141580    1.1373160  
C    -2.7563450   -0.9948920    0.9020800  
C    -3.2193540    0.1192280    0.1058410  
C    -2.0370630    0.9833820   -0.1165000  
N    -0.9723640    0.3810330    0.5662310  
C    -2.0302070    2.0855360   -0.9061410  
C    -3.2794200    2.4825930   -1.5487620  
O    -3.3622390    3.4420410   -2.2989220  
C    -4.5693620    1.6473950   -1.2456750  
O    -5.6435820    2.0636820   -1.6388990  
C    -4.4416770    0.4058610   -0.4392920  
H    -3.3523000   -1.8298520    1.2377970  
H    -1.1504720    2.6865170   -1.0943650  
H    -0.7377800   -1.4418940    1.6707070  
C     2.6473070   -1.8392330   -0.0810150  
C     3.6188280   -0.8753690    0.0569320  
C     2.8606540    0.3544840    0.3699050  
C     1.4467080   -0.0857460    0.3695270  
N     1.3410760   -1.3670470    0.1088010  
C     0.3562900    0.8341570    0.6295730  
C     0.6949310    2.1275520    0.9229130  
O    -0.1990160    3.0779690    1.2359670  
C     2.1133700    2.5906910    0.9151160  
O     2.3257980    3.7713810    1.1928190  
C     3.2019970    1.6319500    0.6181470  
H     0.3329460    3.8939700    1.3785130  
H     4.2269330    1.9837720    0.6224260  
H     2.7897560   -2.8879210   -0.3128590  
C     5.0393630   -1.0002780   -0.0729930  
C     5.7914960   -2.1110130   -0.3816050  
C     7.1584370   -1.6739490   -0.3769590  
C     7.0802980   -0.2115990   -0.0350660  
N     5.8500950    0.1727980    0.1396440  
C     8.2608740    0.6035130    0.0697660  
C     9.4547480    0.0041300   -0.1523040  
O    10.6342970    0.6290200   -0.0910190  
C     9.5675760   -1.4693690   -0.4994310  
O    10.7037940   -1.9086730   -0.6796310  
C     8.3540640   -2.2773750   -0.6003320  
H     5.4386800   -3.1113070   -0.5906430  
H     8.1797210    1.6559920    0.3172540  
H    11.3040770   -0.0629660   -0.2983300  
H     8.4708890   -3.3270240   -0.8507940  
C    -6.7633150   -0.9497540    3.1243390  
C    -5.8428890   -0.3823220    2.3025020  
C    -6.1943230   -0.7433610    0.9439430  
C    -7.4192560   -1.5746870    1.0462820  
N    -7.6967280   -1.6791200    2.3964040  
C    -8.1060770   -2.0857110   -0.0077600  
C    -7.6096840   -1.8115710   -1.3488080  
O    -8.1666600   -2.2014290   -2.3633200  
C    -6.2806620   -0.9862030   -1.4903280  
O    -5.7812620   -0.8702410   -2.5944150  
C    -5.6399920   -0.4304140   -0.2682220  
H    -5.0078740    0.2309410    2.6047270  
H    -9.0138000   -2.6719120    0.0974430  
H    -6.8417020   -0.9014190    4.2024670  
H    -8.5173980   -2.1213650    2.7795090  
