60


C     3.7037040    3.2516600   -1.3369470  
C     4.4060760    2.1042320   -1.0799330  
C     3.4732750    1.1406890   -0.5559310  
C     2.2091550    1.7798940   -0.5164650  
N     2.3844860    3.0683080   -0.9721310  
C     1.0105470    1.1247450   -0.1300450  
C     1.1541920   -0.2492250    0.1247130  
O     0.0751020   -1.0173840    0.4403430  
C     2.4111640   -0.9060540    0.1048320  
O     2.3272670   -2.2282620    0.4508000  
C     3.6011220   -0.2304790   -0.1779400  
H     5.4554140    1.9496770   -1.2838840  
H     1.6261330    3.6830060   -1.2266630  
H     0.4276240   -1.9271080    0.5465380  
H     2.9441860   -2.7266390   -0.1454510  
H     4.0314870    4.1927230   -1.7548410  
C    -0.2571180    1.8216310   -0.0305060  
C    -0.5309450    3.1678690    0.0807100  
C    -1.9563630    3.3340400    0.1172890  
C    -2.5319760    1.9721870    0.0427830  
N    -1.4718610    1.1198000   -0.0372320  
C    -3.8827600    1.6772340    0.0556920  
C    -4.7891220    2.8394400    0.0098930  
O    -6.0004300    2.7486360   -0.1561670  
C    -4.1955280    4.2844560    0.1767030  
O    -4.9753290    5.2207500    0.2614250  
C    -2.7495530    4.4400400    0.2061930  
H     0.1857240    3.9633980    0.2165210  
H    -2.3494940    5.4455840    0.2907150  
H    -1.5236410    0.1177380   -0.1540630  
C    -4.4032800    0.3224130    0.0816810  
C    -3.7931910   -0.8627510    0.4513270  
C    -4.7609470   -1.9164480    0.3279340  
C    -6.0118310   -1.2717470   -0.1459020  
N    -5.7233660    0.0664260   -0.2879170  
C    -7.1743620   -1.9352080   -0.3736970  
C    -7.2086120   -3.3763380   -0.1450530  
O    -8.2085890   -4.0562060   -0.3239810  
C    -5.8930400   -4.0811220    0.3542330  
O    -5.9066170   -5.2887500    0.5483320  
C    -4.7047360   -3.2583090    0.5653900  
H    -2.8028890   -0.9831480    0.8644330  
H    -8.0805740   -1.4467870   -0.7180010  
H    -3.8039900   -3.7549420    0.9138890  
H    -6.3734970    0.8250350   -0.4566000  
C     7.3131770    1.1174520    1.7526890  
C     8.1508080    0.1097580    1.4079490  
C     7.3784010   -0.8417000    0.6348160  
C     6.0001950   -0.2896010    0.5506140  
N     6.0296650    0.8852040    1.2548940  
C     4.9307850   -0.8788320   -0.0943410  
C     5.1993160   -2.2036300   -0.6468050  
O     4.3267210   -2.9536130   -1.0913940  
C     6.6710350   -2.7560720   -0.6760640  
O     6.8862600   -3.7917880   -1.2804400  
C     7.7081350   -2.0161510    0.0400440  
H     9.1948480    0.0189580    1.6689200  
H     8.7118370   -2.4285500    0.0528180  
H     7.5069940    2.0092550    2.3334220  
H     5.2559590    1.5321320    1.3024710  
