62


C     1.8140800   -0.0996260   -0.8418050  
C     0.9167330    0.7825510   -0.2811820  
C     1.6981660    1.9134120    0.2006280  
C     3.0571320    1.6449090   -0.0762590  
N     3.0998020    0.4104970   -0.7249040  
C     4.1064750    2.5000590    0.2693070  
C     3.7678460    3.6765100    0.9203290  
O     4.7391590    4.5607280    1.2774620  
C     2.4093730    3.9715590    1.2126080  
O     2.2302550    5.1786520    1.8572740  
C     1.3836180    3.1121290    0.8694000  
H     5.1447340    2.2776190    0.0500010  
H     4.2970430    5.3204260    1.6954330  
H     1.2839270    5.3811130    1.9076630  
H     0.3525730    3.3769090    1.0770310  
H     1.6517720   -1.0351950   -1.3557400  
C    -1.4757000   -2.8616660    0.5652850  
C    -0.4719210   -1.9554580    0.4248090  
C    -1.0745920   -0.6839450    0.0801940  
C    -2.5337500   -0.9263430    0.0482150  
N    -2.7076690   -2.2671540    0.3372370  
C    -3.5061990    0.0009560   -0.2116950  
C    -3.0315140    1.3731440   -0.4324080  
O    -3.7727930    2.3350960   -0.5375860  
C    -1.4786870    1.6443390   -0.4903970  
O    -1.1215520    2.7747540   -0.7829930  
C    -0.5274050    0.5493270   -0.1972220  
H     0.5799630   -2.1460050    0.5698500  
H    -1.4214900   -3.9110110    0.8233850  
H    -3.6066950   -2.7228530    0.3749620  
C    -6.1428860   -1.6660730    2.9436400  
C    -7.3054470   -1.6825360    2.2209830  
C    -6.9991180   -1.1755220    0.9116660  
C    -5.6141590   -0.8707010    0.8983240  
N    -5.1090220   -1.2046330    2.1432020  
C    -4.9493580   -0.3170280   -0.2180420  
C    -5.7400060   -0.0776000   -1.3448850  
O    -5.1662210    0.4129110   -2.4766730  
C    -7.1261630   -0.3806140   -1.3477740  
O    -7.7513380   -0.0963560   -2.5479640  
C    -7.7595960   -0.9260170   -0.2472140  
H    -8.2701520   -2.0180360    2.5763720  
H    -4.1985380   -0.9283510    2.4783070  
H    -5.8831590    0.5920080   -3.1097430  
H    -8.7095650   -0.1901090   -2.4431240  
H    -8.8236390   -1.1515720   -0.2790250  
H    -5.9517260   -1.9603700    3.9660210  
C     4.7824130    0.0233980   -2.4718020  
C     5.8633450   -0.7696500   -2.6612240  
C     6.0378980   -1.5706940   -1.4633550  
C     4.9545120   -1.1762740   -0.5317370  
N     4.2271160   -0.1961670   -1.2014250  
C     4.7552450   -1.7014980    0.7005140  
C     5.6753440   -2.7422620    1.1572410  
O     5.5748230   -3.2890800    2.2440990  
C     6.8426430   -3.1746990    0.1941490  
O     7.6223900   -4.0389390    0.5609840  
C     6.9436740   -2.5214880   -1.1156650  
H     6.4866840   -0.8015690   -3.5431250  
H     3.9534260   -1.3855100    1.3592170  
H     7.7511230   -2.8312040   -1.7722750  
H     4.3223760    0.7581740   -3.1185460  
