62


C    -3.7223910    0.1023260   -0.0985710  
C    -2.3382680    0.2917000   -0.0070220  
C    -2.0744970    1.6800180   -0.1118050  
C    -3.3427090    2.3239520   -0.2482030  
N    -4.3054020    1.3517080   -0.2541530  
C    -3.4846210    3.7116200   -0.3196640  
C    -2.3243150    4.4631380   -0.2178260  
O    -2.3836440    5.8159540   -0.2577720  
C    -1.0419680    3.8537950   -0.0682630  
O    -0.0161910    4.7641680   -0.0104360  
C    -0.8773970    2.4676660   -0.0538520  
H    -1.6116990   -0.4813960    0.1810340  
H    -5.3116160    1.4673400   -0.2374580  
H    -4.4465160    4.2031500   -0.4172280  
H    -1.4657430    6.1252640   -0.1259070  
H     0.6138870    4.4477220    0.6787850  
C     1.0168730   -0.7357130   -2.4840800  
C     0.1870000    0.2194380   -1.9872110  
C     0.8328930    0.7917770   -0.8277750  
C     2.1298790    0.0847180   -0.6943280  
N     2.1613530   -0.8476930   -1.7049150  
C     3.0860990    0.2957370    0.2769900  
C     2.7029980    1.2901870    1.2654830  
O     3.2929620    1.4840170    2.3298820  
C     1.4633690    2.2150830    0.9953140  
O     1.4242700    3.2578290    1.6455940  
C     0.4448470    1.8106200    0.0189960  
H    -0.7731080    0.5075730   -2.3841550  
H     0.8929370   -1.3700660   -3.3517850  
H     2.9937380   -1.3662500   -1.9498030  
C     6.1860690   -0.6277400   -2.8476660  
C     5.1120360   -0.1132560   -2.1643170  
C     5.1603280   -0.6433320   -0.8249040  
C     6.3116800   -1.4725330   -0.7620230  
N     6.9031290   -1.4553370   -2.0097950  
C     6.7239910   -2.1229690    0.4056750  
C     5.9641470   -1.9042680    1.5426940  
O     6.3141720   -2.4821620    2.7218160  
C     4.8027610   -1.0824400    1.5153880  
O     4.1572130   -1.0080780    2.7256770  
C     4.3529990   -0.4706840    0.3410950  
H     4.4033900    0.6001770   -2.5603260  
H     7.7630160   -1.9240960   -2.2486700  
H     7.6092700   -2.7485770    0.4545570  
H     5.6662500   -2.1552350    3.3759530  
H     3.8679320   -0.0725360    2.8455510  
H     6.5063650   -0.4624090   -3.8666140  
C    -2.7416700   -4.2447560   -0.4570420  
C    -2.6926190   -2.8856270   -0.5055710  
C    -3.9995850   -2.3859650   -0.1421460  
C    -4.8305190   -3.5773190    0.1084750  
N    -4.0055360   -4.6689680   -0.0716030  
C    -6.1510550   -3.5752220    0.4542440  
C    -6.8175740   -2.3005080    0.5512430  
O    -7.9937550   -2.1521200    0.8551130  
C    -5.9804860   -1.0050520    0.2284000  
O    -6.5984470    0.0509350    0.1787400  
C    -4.5125930   -1.1033150   -0.0136340  
H    -1.8397580   -2.3017580   -0.8118900  
H    -6.7160800   -4.4791660    0.6573920  
H    -1.9690630   -4.9699470   -0.6741140  
H    -4.3048360   -5.6285720    0.0004680  
