60


C    -1.1312180   -0.2642950   -1.6548170  
C    -0.0100170   -1.0171520   -1.4870540  
C    -0.2039870   -1.8468330   -0.3221350  
C    -1.4973110   -1.5596640    0.1771230  
N    -2.0623200   -0.5786000   -0.6575650  
C    -2.0233080   -2.1816100    1.3139290  
C    -1.2449230   -3.1682140    1.9031690  
O    -1.7094050   -3.8369080    2.9874650  
C     0.0433210   -3.5000750    1.4056520  
O     0.6732410   -4.4833620    2.1189410  
C     0.6120000   -2.8182440    0.3239630  
H     0.8466320   -1.0123550   -2.1450010  
H    -2.9843300   -1.9321710    1.7458500  
H    -1.0236140   -4.4972210    3.2078500  
H     1.1384490   -5.0628690    1.4662410  
H    -1.3974510    0.4407910   -2.4274810  
C     3.9136390   -0.0006470   -0.4087400  
C     4.8656600   -0.8752670   -0.8733950  
C     4.2944450   -2.1934870   -0.8408360  
C     2.9066660   -2.0372450   -0.3260060  
N     2.7474170   -0.6996310   -0.0889200  
C     2.0048470   -3.0605600   -0.1286760  
C     2.5392950   -4.4029620   -0.3437100  
O     1.9535860   -5.4340740   -0.0052790  
C     3.9503420   -4.5887990   -1.0110940  
O     4.2929250   -5.7138660   -1.3366600  
C     4.7941460   -3.4128120   -1.1859030  
H     5.8666280   -0.6236240   -1.1923540  
H     5.7869610   -3.5517710   -1.6013760  
H     1.9145990   -0.2396180    0.2540190  
C     3.9439510    1.4251960   -0.2131460  
C     4.9544250    2.3185460   -0.4410140  
C     4.4178850    3.6058760   -0.0602600  
C     3.0178860    3.3085130    0.3931580  
N     2.7494510    2.0383800    0.3001640  
C     2.1381400    4.3464140    0.8597240  
C     2.6169060    5.6135800    0.8773120  
O     1.9146300    6.6750440    1.2841730  
C     4.0238680    5.9462380    0.4263240  
O     4.3678570    7.1243420    0.4780550  
C     4.9052770    4.8675990   -0.0464340  
H     5.9469200    2.1202970   -0.8205770  
H     1.1321390    4.1055480    1.1841820  
H     2.5152620    7.4476800    1.1861810  
H     5.9068370    5.1440510   -0.3608080  
C    -3.3120530    0.0034960   -0.5741200  
C    -3.7056230    1.2518700   -0.9736250  
C    -5.1228050    1.3501230   -0.7477320  
C    -5.5407710    0.0471980   -0.1741030  
N    -4.3838480   -0.7169340   -0.0378620  
C    -6.8159810   -0.2821360    0.1344040  
C    -7.8613240    0.7221530   -0.0780950  
O    -9.0365870    0.5125380    0.1758920  
C    -7.4368810    2.1263060   -0.6438430  
O    -8.3003050    2.9749660   -0.8156410  
C    -6.0275000    2.3483590   -0.9523620  
H    -3.0568420    2.0375630   -1.3310620  
H    -7.1047030   -1.2445510    0.5458630  
H    -5.7481350    3.3151520   -1.3598300  
H    -4.3957670   -1.7276340   -0.0239370  
