58


C    -4.1810890   -0.8486730    1.8763050  
C    -4.9049290   -1.9810590    2.0456730  
C    -5.9270730   -2.0004580    1.0233640  
C    -5.7455810   -0.7589200    0.2326530  
N    -4.6594460   -0.0791450    0.8054500  
C    -6.4834750   -0.4458890   -0.8585740  
C    -7.5465500   -1.3664000   -1.2694510  
O    -8.2474450   -1.1663050   -2.2484810  
C    -7.7794550   -2.6658880   -0.4196920  
O    -8.6691910   -3.4369320   -0.7433910  
C    -6.8960570   -2.9042960    0.7229590  
H    -4.7551000   -2.7258110    2.8141030  
H    -6.3484900    0.4590460   -1.4378680  
H    -7.0383960   -3.8191420    1.2901980  
H    -3.3443840   -0.4754470    2.4502910  
C    -0.4848710    1.0793580    0.0469240  
C    -1.6472950    0.3769080    0.3018590  
C    -2.7397920    1.2977860    0.2354740  
C    -2.1570010    2.6215660   -0.0790970  
N    -0.7998940    2.4247280   -0.1684010  
C    -2.8685400    3.7661510   -0.2597110  
C    -4.3132440    3.7057100   -0.1287410  
O    -5.0550360    4.6572730   -0.3174540  
C    -4.9709650    2.3346970    0.2804490  
O    -6.1644190    2.3016610    0.5204210  
C    -4.0989730    1.1413100    0.3941370  
H    -1.6840030   -0.6829740    0.4909660  
H    -2.4114000    4.7185350   -0.5074110  
H    -0.1133610    3.1277610   -0.3989340  
C     1.1519600   -2.9371120    0.7287820  
C     2.4696220   -2.7420300    0.4780530  
C     2.5924550   -1.3347940    0.1221250  
C     1.2072790   -0.8153660    0.2255520  
N     0.3745760   -1.7578370    0.5733230  
C     0.8768670    0.5925860   -0.0259940  
C     1.9509730    1.3931210   -0.3230240  
O     1.8572380    2.7193000   -0.5616710  
C     3.3497540    0.8949590   -0.4369940  
O     4.2066690    1.7312280   -0.7366700  
C     3.6551840   -0.5490410   -0.2290880  
H     3.2725820   -3.4588240    0.5708940  
H     2.7788730    3.0078710   -0.7632250  
H     0.6546710   -3.8485900    1.0362230  
C     5.2325630   -2.2512880   -1.1261550  
C     4.9943240   -1.0554790   -0.4892280  
C     6.3151070   -0.5002980   -0.1599080  
C     7.3078000   -1.4844790   -0.6566210  
N     6.5743420   -2.5125260   -1.2329690  
C     8.6525740   -1.3668330   -0.5458810  
C     9.1897110   -0.1863840    0.1300680  
O    10.3843450    0.0112230    0.2762670  
C     8.1637050    0.8569730    0.6954070  
O     8.5795690    1.8394420    1.2855010  
C     6.7267730    0.6146680    0.4935830  
H     9.3505920   -2.1083590   -0.9219910  
H     6.0436030    1.3680510    0.8646560  
H     4.5085980   -2.9335240   -1.5511930  
H     6.9747780   -3.2968780   -1.7259650  
