58


C     3.1604400   -0.7959400   -2.2869360  
C     3.1138640   -2.0843090   -2.7025630  
C     3.6441220   -2.9042990   -1.6350290  
C     4.0196710   -1.9713970   -0.5437440  
N     3.7142170   -0.6842220   -1.0025440  
C     4.4993520   -2.3682660    0.6593040  
C     4.6904110   -3.7997940    0.8957510  
O     5.1025450   -4.2437000    1.9559330  
C     4.3331800   -4.8007960   -0.2609840  
O     4.4886220   -5.9981240   -0.0787730  
C     3.8025520   -4.2479810   -1.5086460  
H     2.7603100   -2.4340200   -3.6618600  
H     4.7640560   -1.6844210    1.4567800  
H     3.5321810   -4.9454210   -2.2957290  
H     2.8649450    0.1078430   -2.8024750  
C     0.8818990    2.5850700   -0.0549690  
C     1.3920160    1.3758600   -0.4801890  
C     2.7880120    1.4021850   -0.1498420  
C     2.9886720    2.7306240    0.5064950  
N     1.8867420    3.4183340    0.5521950  
C     4.2683610    3.1318270    1.0338300  
C     5.3035550    2.2726150    0.8957900  
O     6.5455180    2.5117240    1.3414020  
C     5.1585400    0.9392810    0.2035180  
O     6.1709050    0.2521760    0.0804540  
C     3.8286190    0.5308420   -0.3002170  
H     0.8676150    0.5928130   -1.0076320  
H     4.3768070    4.0960780    1.5170050  
H     7.0798240    1.7329170    1.0700460  
C    -3.0297710    0.4881860    0.3848770  
C    -1.6904110    0.8098860    0.2997210  
C    -1.5755260    2.2101810    0.0444590  
C    -2.9599200    2.7251800   -0.0037140  
N    -3.7965210    1.6268030    0.1426400  
C    -3.3047310    4.0302730   -0.1245620  
C    -2.2324740    5.0164600   -0.2322130  
O    -2.4408880    6.2176070   -0.2689590  
C    -0.7559720    4.4972710   -0.3375610  
O     0.1019390    5.2921280   -0.6711460  
C    -0.4831230    3.0538150   -0.1026150  
H    -0.8759310    0.1082460    0.3866530  
H    -4.3320240    4.3819610   -0.1202440  
H    -4.7643290    1.7088420    0.4193490  
C    -3.0560750   -1.8017890    1.3856370  
C    -3.6470700   -0.7821560    0.6776450  
C    -4.9867000   -1.2498000    0.3185450  
C    -5.1106080   -2.6125810    0.8905780  
N    -3.8968970   -2.8778190    1.5121540  
C    -6.2062680   -3.4007490    0.7880710  
C    -7.3652610   -2.8842300    0.0553150  
O    -8.3994010   -3.5153750   -0.0772150  
C    -7.2498420   -1.4576510   -0.5889890  
O    -8.1920400   -1.0110210   -1.2200810  
C    -5.9997000   -0.7063470   -0.4053960  
H    -6.2691480   -4.3981760    1.2118780  
H    -5.9349950    0.2620460   -0.8903130  
H    -2.0733880   -1.8221480    1.8382780  
H    -3.6851990   -3.7203770    2.0260330  
