62


C    -1.7451010   -0.2844640    0.4642380  
C    -1.1427710    0.9322890    0.2392280  
C    -2.1247200    1.7493230   -0.4400850  
C    -3.2910760    0.9661840   -0.6061720  
N    -3.0467540   -0.2846860   -0.0363170  
C    -4.4491610    1.4564350   -1.2202070  
C    -4.4176800    2.7603080   -1.6880430  
O    -5.5163160    3.2899610   -2.2980570  
C    -3.2509260    3.5570080   -1.5379570  
O    -3.3769370    4.8336090   -2.0517790  
C    -2.1128210    3.0700490   -0.9259480  
H    -5.3392640    0.8563130   -1.3641750  
H    -5.2862430    4.1951910   -2.5696950  
H    -2.5380060    5.3060250   -1.9457930  
H    -1.2371130    3.6994310   -0.7964390  
H    -1.3520210   -1.1728110    0.9395940  
C     2.5284390   -1.1904820   -0.7901760  
C     3.4535800   -0.3950970   -0.1240100  
C     2.6821880    0.6672380    0.5059730  
C     1.3211460    0.4307550    0.1935320  
N     1.2674930   -0.7155450   -0.5799530  
C     0.2526990    1.2658990    0.5790810  
C     0.6123560    2.4080530    1.2973230  
O    -0.3496540    3.2784870    1.7321140  
C     1.9681420    2.6776330    1.6028760  
O     2.1515780    3.8493320    2.3186410  
C     2.9978970    1.8364790    1.2249010  
H     0.4247500   -1.0653210   -1.0121690  
H     0.1106150    3.9723440    2.2364130  
H     3.0811480    3.9190180    2.5817160  
H     4.0221590    2.0663700    1.4941520  
H     2.7062250   -2.0563190   -1.4064160  
C     5.9507510   -2.3667700   -3.1451500  
C     7.1869910   -2.2711290   -2.6091990  
C     6.9951910   -1.5857490   -1.3350020  
C     5.5211930   -1.3295290   -1.2658670  
N     4.9263170   -1.7857700   -2.3296970  
C     4.8915580   -0.6401900   -0.1288520  
C     5.7567690   -0.2877270    0.8756590  
O     5.3665290    0.2961460    2.0361130  
C     7.2184390   -0.5302610    0.8265400  
O     7.9010450   -0.1789760    1.7967610  
C     7.8178050   -1.1978520   -0.3461260  
H     8.1263100   -2.6167530   -3.0181420  
H     6.2024570    0.3955930    2.5459110  
H     8.8930210   -1.3499710   -0.3380330  
H     5.6609400   -2.8145500   -4.0881320  
C    -4.3882600   -2.2154960    3.5873880  
C    -5.1837050   -3.1747490    3.0465950  
C    -5.1547400   -3.0019480    1.6087790  
C    -4.2616360   -1.8467900    1.3606480  
N    -3.8191450   -1.4232890    2.5951330  
C    -3.9643650   -1.3432640    0.1260010  
C    -4.5630340   -2.0073800   -1.0442980  
O    -4.3215430   -1.6767270   -2.1919970  
C    -5.5490750   -3.2115340   -0.7875450  
O    -6.0936110   -3.7242730   -1.7523680  
C    -5.7710740   -3.6558780    0.5864470  
H    -5.7391480   -3.9275960    3.5863780  
H    -6.4371290   -4.4982470    0.7441310  
H    -4.1626190   -2.0155750    4.6264720  
H    -3.2301760   -0.6167730    2.7412280  
