60


C    -2.0581400   -2.4577470   -0.0390280  
C    -3.2051550   -1.7591250   -0.3784690  
C    -4.3275200   -2.6361070   -0.2082630  
C    -3.7707540   -3.9292480    0.2621030  
N    -2.4100060   -3.7494050    0.3548220  
C    -4.5177980   -5.0311250    0.5297730  
C    -5.9637480   -4.9513800    0.3487650  
O    -6.7149670   -5.8914760    0.5648980  
C    -6.5763690   -3.5895950   -0.1476090  
O    -7.7876960   -3.5089810   -0.3014370  
C    -5.6686590   -2.4755510   -0.4035800  
H    -3.2643450   -0.7710950   -0.8094540  
H    -4.0925540   -5.9697650    0.8712540  
H    -6.1021220   -1.5414920   -0.7486270  
H    -1.7029270   -4.4552930    0.5224640  
C    -0.2330770    1.5363870   -0.1021720  
C     1.0944310    1.1605180   -0.1754460  
C     1.1528540   -0.2632590   -0.1468250  
C    -0.2397640   -0.7329740   -0.0902430  
N    -1.0160080    0.3829630   -0.0520370  
C    -0.6653120   -2.0605560   -0.0598450  
C     0.3968370   -3.0507660   -0.0136010  
O     0.2392070   -4.2532630    0.1873660  
C     1.8738500   -2.5916610   -0.2647320  
O     2.6802680   -3.4742890   -0.5262240  
C     2.2337560   -1.1535190   -0.1683490  
H     1.9242300    1.8392030   -0.2870070  
H    -2.0141040    0.4232710    0.1038590  
C    -0.8775290    2.8110690   -0.0816340  
C    -0.3472400    4.0783540   -0.1332070  
C    -1.4756220    4.9667310   -0.0736980  
C    -2.6667840    4.0561870    0.0181530  
N    -2.3098660    2.8027420    0.0131200  
C    -4.0058510    4.5718440    0.0988100  
C    -4.1584860    5.9183060    0.0879670  
O    -5.3385130    6.5406480    0.1561750  
C    -2.9777430    6.8650670   -0.0044760  
O    -3.2308710    8.0706930   -0.0060930  
C    -1.6248920    6.3169180   -0.0848710  
H     0.6937940    4.3605250   -0.2048430  
H    -4.8507440    3.8957170    0.1652010  
H    -5.1277310    7.5021970    0.1272090  
H    -0.8021080    7.0218710   -0.1498120  
C     3.6109500   -0.7757750   -0.0976410  
C     4.2136760    0.4357780    0.2988460  
C     5.6095890    0.2656360    0.2393490  
C     5.8485780   -1.0773240   -0.2011430  
N     4.6338750   -1.6713140   -0.3890460  
C     7.1369780   -1.5933620   -0.3731930  
C     8.1998910   -0.7493100   -0.0934190  
O     9.4693530   -1.1928540   -0.2391990  
C     7.9816530    0.5966460    0.3538810  
O     9.1514110    1.2828940    0.5825770  
C     6.7165870    1.1056350    0.5222480  
H     3.6942970    1.3104290    0.6578140  
H     4.4349540   -2.6311580   -0.6464480  
H     7.3270320   -2.6080060   -0.7052130  
H    10.0704380   -0.4670010    0.0069630  
H     8.9565090    2.1803740    0.8918260  
H     6.5687650    2.1281890    0.8615800  
