58


C     1.4511300    1.2854770   -1.1501280  
C     0.7958830    0.3483000   -0.4063730  
C     1.7877210   -0.3525730    0.3949260  
C     3.0831370    0.2666340    0.0530770  
N     2.8014670    1.2838340   -0.8502890  
C     4.2990290   -0.1176780    0.5465510  
C     4.2832910   -1.2507080    1.5020520  
O     5.2963410   -1.6911990    2.0153660  
C     2.9041250   -1.9057790    1.8905810  
O     2.9074840   -2.8402050    2.6742500  
C     1.6849100   -1.3751160    1.2847290  
H     0.7374730   -1.8270520    1.5603180  
H     1.0463480    1.9833280   -1.8708480  
H     3.5122240    1.7599190   -1.3862910  
C    -1.2040500   -1.0855720   -0.7888320  
C    -2.5526830   -1.0202160   -0.6446990  
C    -2.8734440    0.2856250   -0.1182590  
C    -1.5836830    0.9943520    0.0257620  
N    -0.5904100    0.1057930   -0.3901300  
C    -1.4414780    2.2744420    0.4541090  
C    -2.6445040    3.0253160    0.7885420  
O    -2.6246920    4.2017220    1.1150240  
C    -4.0227550    2.2770140    0.7401490  
O    -4.9932230    2.8336140    1.2147420  
C    -4.0708230    0.8906120    0.1930650  
H    -3.2567500   -1.7955330   -0.9032390  
H    -0.4820140    2.7739160    0.5322250  
H    -0.5889650   -1.8925460   -1.1641910  
C     5.7583650    1.9212100    0.2645230  
C     5.5526900    0.5686830    0.2186510  
C     6.8222720   -0.0221440   -0.2202260  
C     7.7584150    1.1090700   -0.4246460  
N     7.0436810    2.2565440   -0.1233920  
C     9.0462770    0.9874520   -0.8321050  
C     9.5594680   -0.3511310   -1.1119430  
O    10.7016920   -0.5628480   -1.4870190  
C     8.5785780   -1.5648400   -0.9295070  
O     8.9731970   -2.6897500   -1.1860140  
C     7.2102670   -1.2988120   -0.4610870  
H     9.7125640    1.8336850   -0.9685560  
H     6.5615170   -2.1526730   -0.3043770  
H     5.0723070    2.6960360    0.5828990  
H     7.4422040    3.1812350   -0.0662070  
C    -5.3566700    0.2272190    0.0561460  
C    -5.6727650   -1.0802700    0.3149820  
C    -7.0807660   -1.2120940    0.0090190  
C    -7.4804270    0.1534050   -0.4613480  
N    -6.4848440    0.9868910   -0.4291050  
C    -8.8274650    0.4363150   -0.8903070  
C    -9.7306750   -0.5699650   -0.8330850  
O   -11.0178910   -0.4512770   -1.1905340  
C    -9.3595720   -1.9518810   -0.3490990  
O   -10.2482680   -2.8033750   -0.3361320  
C    -7.9770740   -2.2229040    0.0699640  
H    -5.0341720   -1.8434840    0.7369040  
H    -9.0903000    1.4313760   -1.2312430  
H   -11.4122770   -1.3388590   -1.0370670  
H    -7.7468730   -3.2308780    0.4015210  
