60


C    -2.4486880   -0.0017330    3.2108360  
C    -1.2788070   -0.1009690    2.5076880  
C    -1.6173520   -0.1503520    1.1134940  
C    -3.0312670   -0.0553820    1.0358220  
N    -3.5116640    0.0458880    2.3263160  
C    -3.7599090   -0.0565820   -0.1718890  
C    -2.9938610   -0.1269940   -1.3372880  
O    -3.6017730   -0.0742980   -2.5479810  
C    -1.5784390   -0.1937060   -1.2956490  
O    -0.9945270   -0.2742950   -2.5418250  
C    -0.8607660   -0.2373110   -0.0907230  
H    -0.2903930   -0.1558340    2.9363620  
H    -4.4860990   -0.0163180    2.5778460  
H    -2.8872430   -0.1580930   -3.2080250  
H    -0.2753730    0.3912720   -2.5853260  
H    -2.6194570    0.0459030    4.2769590  
C     1.8019570   -3.0117200    2.0593150  
C     3.0293390   -2.6326030    1.6271970  
C     2.7810870   -1.5335960    0.7008100  
C     1.3032340   -1.3732750    0.7086800  
N     0.7429140   -2.2449710    1.4983320  
C     0.6083730   -0.3622420   -0.0963140  
C     1.4252770    0.3940450   -0.8853840  
O     0.9554310    1.3666860   -1.7240310  
C     2.8964600    0.2697290   -0.9359080  
O     3.5123060    0.9947220   -1.7204210  
C     3.5763140   -0.7401770   -0.0642990  
H     3.9889760   -3.0357380    1.9177720  
H     1.7574190    1.7298010   -2.1650670  
H     1.5546370   -3.7959720    2.7641040  
C     5.5645960   -2.1827490   -0.3123470  
C     6.9125720   -2.0876240   -0.3567380  
C     7.2591660   -0.6885040   -0.2337200  
C     5.9781880    0.0502770   -0.1236150  
N     4.9563890   -0.9186160   -0.1971700  
C     5.8982840    1.3840620    0.0851160  
C     7.1425110    2.1584070    0.1515500  
O     7.1512640    3.3644140    0.3346280  
C     8.5046180    1.3995710   -0.0160810  
O     9.5472600    2.0323220    0.0210110  
C     8.4588440   -0.0537080   -0.1933220  
H     7.6052110   -2.9075730   -0.4820110  
H     4.9673710    1.9278710    0.1805290  
H     9.4030130   -0.5842530   -0.2691740  
H     4.9312010   -3.0549750   -0.3916800  
C    -6.5091630    3.0252830    1.3215320  
C    -7.6975950    2.4840680    0.9474880  
C    -7.4112340    1.2240590    0.2928640  
C    -5.9366250    1.0725740    0.3215870  
N    -5.4517260    2.1900110    0.9797180  
C    -5.2332800    0.0341140   -0.2199900  
C    -6.0328010   -1.0424350   -0.8492670  
O    -5.5370610   -2.0652010   -1.2850540  
C    -7.5979700   -0.8817180   -0.9173160  
O    -8.2482680   -1.7451550   -1.4858710  
C    -8.2080970    0.2903890   -0.2936320  
H    -8.6764630    2.9133900    1.1037710  
H    -9.2886870    0.3849710   -0.3402030  
H    -6.3105910    3.9615220    1.8266850  
H    -4.4717480    2.4150970    1.0604550  
