60


C     1.1653170    1.8377420   -0.1474590  
C     1.7950130    3.0583310   -0.2771730  
C     3.2022390    2.8131740   -0.2909500  
C     3.3865680    1.4074610   -0.1554650  
N     2.1334940    0.8505890   -0.0398830  
C     4.6647240    0.7873270   -0.1018000  
C     5.7409250    1.6720600   -0.2589700  
O     7.0379530    1.2039070   -0.2574930  
C     5.5694040    3.0702860   -0.4053820  
O     6.7637790    3.7640270   -0.5255080  
C     4.3219860    3.6557680   -0.4118010  
H     1.3023370    4.0141820   -0.3912260  
H     1.9689350   -0.1364790   -0.1746720  
H     7.6002230    1.9606430   -0.5084790  
H     6.5894960    4.6472870   -0.8827990  
H     4.2110640    4.7333960   -0.5077840  
C    -1.2102020    2.3022410    0.5003350  
C    -0.2567080    1.5345000   -0.1005040  
C    -0.9650650    0.4026840   -0.7083050  
C    -2.4001360    0.6014420   -0.4066060  
N    -2.4828440    1.7798680    0.2910620  
C    -3.4206730   -0.2649100   -0.7357610  
C    -3.0399810   -1.4492090   -1.5413860  
O    -3.8456020   -2.2194340   -2.0269370  
C    -1.5188500   -1.6772530   -1.8594700  
O    -1.1940440   -2.6803370   -2.4694810  
C    -0.5390640   -0.6715620   -1.4240770  
H     0.4995830   -0.8520820   -1.6863860  
H    -1.0838030    3.2096510    1.0748320  
H    -3.3220980    2.0695180    0.7748170  
C    -4.7961490   -0.0302150   -0.3467290  
C    -5.4558120    1.1711550   -0.2080690  
C    -6.7874220    0.8398400    0.2367810  
C    -6.7686550   -0.6550110    0.3550060  
N    -5.6196760   -1.1561100    0.0109010  
C    -7.9237790   -1.3880720    0.8072430  
C    -9.0414980   -0.6815360    1.0959700  
O   -10.1923770   -1.2249910    1.5170640  
C    -9.0959260    0.8246840    0.9669210  
O   -10.1606200    1.3731490    1.2578390  
C    -7.9046160    1.5515240    0.5227020  
H    -5.1117770    2.1530620   -0.5050710  
H    -7.8818850   -2.4681230    0.8919240  
H   -10.8051130   -0.4642260    1.6365150  
H    -7.9786260    2.6325030    0.4525120  
C     7.4522620   -1.4160850    2.5372520  
C     7.0538460   -2.6892780    2.2997290  
C     5.9862940   -2.6250220    1.3246750  
C     5.7886360   -1.1817840    1.0202260  
N     6.6788610   -0.4994220    1.8238860  
C     4.8621710   -0.6658770    0.1391760  
C     4.0199510   -1.6702730   -0.5295520  
O     3.0991750   -1.3864160   -1.2898420  
C     4.2522490   -3.2061620   -0.2584070  
O     3.5706430   -4.0055020   -0.8784370  
C     5.2495710   -3.5964610    0.7278070  
H     7.4462890   -3.5876730    2.7534300  
H     5.3826180   -4.6538220    0.9336350  
H     8.2338700   -1.0533610    3.1922420  
H     7.0290750    0.4067560    1.5313660  
