60


C    -2.5913240    1.5431100    2.6174610  
C    -3.7482530    1.1084390    2.0276450  
C    -3.3800940    0.2423390    0.9400800  
C    -1.9612850    0.1885340    0.9380930  
N    -1.5074090    0.9929250    1.9592810  
C    -1.2380170   -0.6122930    0.0367100  
C    -1.9765620   -1.4009080   -0.8411000  
O    -1.3425330   -2.2296150   -1.7103020  
C    -3.3953720   -1.3738120   -0.8418350  
O    -3.9455280   -2.1994030   -1.7903220  
C    -4.1263390   -0.5328430    0.0030330  
H    -4.7485830    1.3688250    2.3387180  
H    -0.5390800    1.1481470    2.1919810  
H    -2.0578330   -2.6944340   -2.1901190  
H    -4.7124450   -2.6521480   -1.3629030  
H    -2.4426320    2.2028030    3.4602660  
C     0.9410620   -1.8243320    0.1564320  
C     2.2766060   -1.5593900    0.0690690  
C     2.4280190   -0.1473570   -0.1364290  
C     1.0512210    0.3982900   -0.1842870  
N     0.1831620   -0.6669580    0.0470660  
C     0.7333030    1.6982240   -0.4187480  
C     1.8218600    2.6312520   -0.6599460  
O     1.6537390    3.8239870   -0.8569020  
C     3.2898300    2.0750880   -0.6773010  
O     4.1698020    2.8529680   -1.0262550  
C     3.5407120    0.6667540   -0.2958080  
H     3.0609250   -2.2979320    0.0939860  
H    -0.2853140    2.0669740   -0.4513660  
H     0.4371650   -2.7721550    0.2804900  
C     4.9044190    0.1963150   -0.1258610  
C     5.3803550   -0.9109520    0.5512040  
C     6.8125290   -0.9013980    0.4713930  
C     7.1723300    0.3096320   -0.3082090  
N     5.9838190    0.9129910   -0.6484380  
C     8.4465350    0.6849250   -0.5907290  
C     9.5411270   -0.1495820   -0.1060450  
O    10.7183100    0.1081920   -0.3107240  
C     9.1823030   -1.4413210    0.7181590  
O    10.0885220   -2.1519780    1.1295860  
C     7.7719110   -1.7391600    0.9602710  
H     4.7923850   -1.6228200    1.1079770  
H     8.6920890    1.5755960   -1.1605690  
H     7.5356880   -2.6311570    1.5329110  
H     5.8558860    1.8311800   -1.0551090  
C    -6.8830740    2.9386660   -0.2672420  
C    -5.7952140    2.1217830   -0.2523990  
C    -6.2702730    0.7673950   -0.1004200  
C    -7.7521460    0.8641550   -0.0302700  
N    -8.0538190    2.2092270   -0.1146620  
C    -8.5957830   -0.1887090    0.1114720  
C    -8.0052600   -1.5158230    0.1595110  
O    -8.6475840   -2.5388690    0.3289130  
C    -6.4510280   -1.6431900   -0.0498460  
O    -6.0180250   -2.7800170   -0.2387680  
C    -5.6053640   -0.4403340   -0.0446050  
H    -4.7658040    2.4289630   -0.3445370  
H    -9.6721430   -0.0931450    0.2101930  
H    -6.9290030    4.0139830   -0.3784440  
H    -8.9875980    2.5869210   -0.1547110  
