60


C     1.0555890   -0.0089310   -1.1926780  
C     0.6467720    1.1028890   -0.4746910  
C     1.8557750    1.6772680    0.0954740  
C     2.9349120    0.8627490   -0.3308280  
N     2.4174360   -0.1364140   -1.1301490  
C     4.2674370    1.0971320    0.0535860  
C     4.5131410    2.1848270    0.8901420  
O     5.7879300    2.4646470    1.2836680  
C     3.4430390    3.0052320    1.3188590  
O     3.8448180    4.0424050    2.1377030  
C     2.1336020    2.7647650    0.9462740  
H     2.9435980   -0.9155260   -1.4963230  
H     5.7400140    3.2431510    1.8665160  
H     3.0702780    4.5527070    2.4171480  
H     1.3407990    3.4253410    1.2769420  
H     0.4552630   -0.7225600   -1.7324220  
C    -2.9628170   -1.3219710   -0.4361700  
C    -3.9733110   -0.4140080   -0.2689600  
C    -3.2649810    0.8887900   -0.2253300  
C    -1.8242380    0.5340740   -0.3621920  
N    -1.6737350   -0.7577810   -0.4935750  
C    -0.7471420    1.5277370   -0.3440690  
C    -1.1655180    2.8243060   -0.2040310  
O    -0.3359420    3.8935540   -0.2118940  
C    -2.5918850    3.2045360   -0.0481520  
O    -2.8599520    4.4039060    0.0741460  
C    -3.6454090    2.1673470   -0.0655900  
H    -0.9385930    4.6665820   -0.1178350  
H    -4.6724160    2.5000460    0.0145530  
H    -3.0628250   -2.3930760   -0.5607660  
C    -6.1263070   -3.7424510    1.7175610  
C    -5.1812010   -2.8653980    1.2855550  
C    -5.8540800   -1.8389750    0.5206330  
C    -7.2923440   -2.1902980    0.5519820  
N    -7.3857420   -3.3645790    1.2714640  
C    -8.2928930   -1.4683240   -0.0203830  
C    -7.9353090   -0.2407600   -0.7036120  
O    -8.7460360    0.5015150   -1.2370410  
C    -6.4143540    0.1694080   -0.7533870  
O    -6.1326430    1.2112370   -1.3214590  
C    -5.3913600   -0.7128830   -0.1309060  
H    -4.1255750   -2.9174880    1.5008110  
H    -9.3383650   -1.7572930    0.0191880  
H    -6.0117840   -4.6303760    2.3248230  
H    -8.2505800   -3.8293670    1.4995700  
C     6.4648920    0.7440340   -1.0878180  
C     7.3228910   -0.2630830   -1.3816660  
C     6.7548410   -1.4821070   -0.8498320  
C     5.4738740   -1.0916740   -0.2053750  
N     5.3363960    0.2782550   -0.3986580  
C     4.6487510   -1.9593750    0.4395650  
C     5.0278650   -3.3692460    0.4941920  
O     4.3497590   -4.2184050    1.0532130  
C     6.3678880   -3.8063230   -0.2027300  
O     6.6886000   -4.9847700   -0.1823430  
C     7.1799150   -2.7731970   -0.8487240  
H     8.2604280   -0.1727590   -1.9107830  
H     3.7366840   -1.6536400    0.9405080  
H     8.1141130   -3.0814940   -1.3085420  
H     6.5380030    1.8001420   -1.3050970  
