60


C    -0.8142740   -0.2454290    1.7571720  
C    -2.1609730   -0.4047460    1.5751590  
C    -2.4377130   -0.1897310    0.1772250  
C    -1.1938850    0.0861630   -0.4438380  
N    -0.2087280    0.0616940    0.5430870  
C    -1.0503480    0.2678680   -1.8229230  
C    -2.1995260    0.1540380   -2.5880770  
O    -2.1386380    0.2943710   -3.9371490  
C    -3.4665650   -0.1118970   -1.9966420  
O    -4.4932440   -0.1653710   -2.9039730  
C    -3.6250000   -0.2521380   -0.6143190  
H    -2.8673900   -0.6779900    2.3458700  
H    -0.0946630    0.4563310   -2.2983550  
H    -3.0475550    0.1369480   -4.2592920  
H    -5.0824710   -0.9105950   -2.6319030  
H    -0.2123170   -0.3119310    2.6521620  
C     2.1518620   -0.6419550    0.5705340  
C     1.1684210    0.2700280    0.3516590  
C     1.7990160    1.5136820   -0.0565800  
C     3.2547670    1.2453030   -0.0565020  
N     3.4179340   -0.0809690    0.3702400  
C     4.1841740    2.1469420   -0.4540140  
C     3.7341820    3.4826870   -0.8543460  
O     4.5074470    4.3520680   -1.2228190  
C     2.1981520    3.8011370   -0.7981610  
O     1.8118520    4.9210550   -1.0904910  
C     1.2883890    2.7230120   -0.4004290  
H     5.2470810    1.9466170   -0.4750760  
H     0.2221360    2.9236270   -0.4113380  
H     2.0632780   -1.6778310    0.8590790  
C     4.4178660   -4.0394430   -1.0526230  
C     5.7141610   -4.1441990   -0.6843390  
C     6.0253840   -2.8893650   -0.0046050  
C     4.7444770   -2.1224350   -0.0665900  
N     3.8127510   -2.7941720   -0.6714570  
C     4.6270680   -0.7871560    0.5039130  
C     5.7228810   -0.2864660    1.1453800  
O     5.7483460    0.9035780    1.7657830  
C     7.0156800   -1.0386780    1.2050990  
O     7.9502440   -0.5067820    1.8030460  
C     7.1187290   -2.3784150    0.5910290  
H     6.3935610   -4.9681100   -0.8518960  
H     6.6639190    0.9925680    2.1160250  
H     8.0757570   -2.8852320    0.6667490  
H     3.8089580   -4.7615270   -1.5820490  
C    -5.4349130    1.8542920    2.7790460  
C    -6.6049420    1.1769430    2.8996140  
C    -6.6296450    0.1778310    1.8521550  
C    -5.3528380    0.3264570    1.1070040  
N    -4.6876390    1.3666700    1.7115840  
C    -4.9518650   -0.4270660    0.0257770  
C    -5.9538930   -1.3737980   -0.4626180  
O    -5.8568630   -1.9846450   -1.5289000  
C    -7.2627030   -1.6349000    0.3732160  
O    -7.9982850   -2.5424930    0.0212020  
C    -7.5448950   -0.7671850    1.5105360  
H    -7.3823400    1.3561110    3.6276900  
H    -8.4696390   -0.9238560    2.0564290  
H    -5.0517930    2.6769890    3.3681470  
H    -3.7410210    1.6327800    1.4825010  
