60


C     3.4455450   -0.8133320    1.7194560  
C     2.6898120   -1.5049970    0.8147620  
C     3.6008220   -2.4598980    0.1731740  
C     4.9341310   -2.2464060    0.7879840  
N     4.7678560   -1.2362550    1.7141720  
C     6.0586790   -2.9342870    0.4624820  
C     5.9706590   -3.9520700   -0.5776470  
O     6.9255340   -4.6212050   -0.9434650  
C     4.5734340   -4.1827370   -1.2600140  
O     4.4800280   -5.0109700   -2.1513420  
C     3.4272350   -3.3848220   -0.8035120  
H     7.0213110   -2.7603300    0.9336610  
H     2.4651930   -3.5845040   -1.2603000  
H     3.1335080   -0.0399030    2.4093450  
H     5.4926580   -0.8844370    2.3197370  
C     0.4324120    2.2005360    0.1475250  
C    -0.8227940    1.6448060   -0.0383810  
C    -0.7151420    0.2251760    0.0630810  
C     0.7028280   -0.0561620    0.3494030  
N     1.3371900    1.1604440    0.3791020  
C     1.2628760   -1.2989820    0.5364880  
C     0.3371060   -2.4247840    0.4973970  
O     0.6659030   -3.5877780    0.6826670  
C    -1.1950230   -2.1557070    0.2343630  
O    -1.9388810   -3.1196000    0.2814840  
C    -1.6691240   -0.7788530   -0.0715830  
H    -1.7279370    2.1942640   -0.2316170  
H     2.3372470    1.3117180    0.3963800  
C    -1.6820360    6.1713030    0.2642670  
C    -1.4547550    4.8318700    0.3727530  
C    -0.0314820    4.6650740    0.1536540  
C     0.4545220    6.0530840   -0.0670610  
N    -0.5174730    6.9285300   -0.0167130  
C     1.8409950    6.3514440   -0.2996500  
C     2.7239150    5.3263630   -0.2741230  
O     4.0521150    5.4773740   -0.4375590  
C     2.2849240    3.9195240   -0.0308570  
O     3.1812330    3.0685300    0.0477940  
C     0.8302460    3.5890100    0.1041150  
H    -2.1753460    4.0716390    0.6335960  
H     2.1545520    7.3763350   -0.4645850  
H     4.4360070    4.5796290   -0.3511040  
H    -2.6251890    6.6922780    0.3811390  
C    -3.3118950    0.4329000   -1.5114100  
C    -3.0136230   -0.5390600   -0.5510300  
C    -4.2841270   -1.1761890   -0.2289340  
C    -5.2789930   -0.5281230   -1.0002810  
N    -4.6462820    0.4357350   -1.7742880  
C    -6.6394900   -0.8386340   -0.9292290  
C    -7.0153890   -1.8418660   -0.0480140  
O    -8.3229360   -2.1985030    0.0595110  
C    -6.0384430   -2.5018610    0.7424130  
O    -6.5595200   -3.4751280    1.5682480  
C    -4.6956720   -2.1825670    0.6670380  
H    -5.0958060    0.9981360   -2.4816320  
H    -7.3918650   -0.3345710   -1.5267650  
H    -8.3720130   -2.9271310    0.7032930  
H    -5.8372500   -3.9688060    1.9854220  
H    -3.9685130   -2.7273120    1.2571240  
H    -2.6363150    1.0635210   -2.0701020  
