60


C     3.8408290    1.1994550    0.1292430  
C     2.5920300    0.7754950   -0.3032530  
C     1.7252480    1.9043520   -0.2910080  
C     2.4907450    3.0066460    0.1796660  
N     3.7703210    2.5569230    0.4035620  
C     1.9527580    4.2841680    0.3675750  
C     0.6113420    4.4602560    0.0692810  
O     0.0429360    5.6837540    0.2189090  
C    -0.1819550    3.3805030   -0.4073840  
O    -1.4781350    3.7387500   -0.6874940  
C     0.3460590    2.0985110   -0.6015610  
H     2.3463440   -0.2267610   -0.6221740  
H     4.5040780    3.0878900    0.8479070  
H     2.5386480    5.1254650    0.7221170  
H    -0.8808110    5.6184420   -0.0811950  
H    -1.9310530    2.9858250   -1.1150090  
C    -0.4788280    1.0219540   -1.1320430  
C    -0.1716780    0.0096810   -1.9957060  
C    -1.3530200   -0.7851830   -2.2218920  
C    -2.4182240   -0.1719980   -1.4075370  
N    -1.8731480    0.9881540   -0.8269960  
C    -3.6749340   -0.6720940   -1.2411130  
C    -3.9915130   -1.9013420   -2.0147090  
O    -5.0892110   -2.4274410   -1.9799940  
C    -2.8843600   -2.5324230   -2.9365200  
O    -3.1639400   -3.5424420   -3.5632930  
C    -1.5744510   -1.8962930   -2.9779860  
H     0.7827890   -0.1320220   -2.4822040  
H    -0.8049900   -2.3535460   -3.5919070  
H    -2.1686460    1.2131750    0.1206910  
C    -5.0365100    1.2895770   -0.4127120  
C    -4.7014490   -0.0362920   -0.4060880  
C    -5.5612980   -0.6677910    0.6025150  
C    -6.4053370    0.4134900    1.1656990  
N    -6.0296190    1.5724500    0.5089890  
C    -7.3396540    0.2460350    2.1347920  
C    -7.5291440   -1.0913830    2.6888870  
O    -8.3411610   -1.3421730    3.5655530  
C    -6.6278780   -2.2500120    2.1287840  
O    -6.7444560   -3.3701500    2.5967780  
C    -5.6655330   -1.9396930    1.0612690  
H    -7.9477200    1.0565520    2.5247340  
H    -5.0815540   -2.7610500    0.6629840  
H    -4.6483360    2.0795520   -1.0421810  
H    -6.4829050    2.4665770    0.6172100  
C     5.0641030    0.4609300    0.2821500  
C     6.3546630    0.9103440    0.4149310  
C     7.2150480   -0.2346980    0.5515350  
C     6.3273640   -1.4223610    0.4979650  
N     5.0455990   -0.9404740    0.2831990  
C     6.7511850   -2.7017540    0.6396630  
C     8.1809120   -2.9425110    0.8315450  
O     8.6520920   -4.0609050    0.9660730  
C     9.1454500   -1.7009540    0.8537010  
O    10.3440540   -1.8870370    1.0030530  
C     8.5622420   -0.3684140    0.7036260  
H     6.6818670    1.9392760    0.3590840  
H     6.0872330   -3.5601880    0.6052800  
H     9.2359870    0.4825460    0.7338830  
H     4.2142930   -1.4771460    0.4829430  
