58


C    -4.1612980    0.2671730   -0.1239030  
C    -4.1549770   -0.7805920    0.7788590  
C    -5.3781530   -1.5165580    0.6130750  
C    -6.1279240   -0.8262650   -0.4664180  
N    -5.3348000    0.2229740   -0.8746510  
C    -7.3510240   -1.2097760   -0.9134980  
C    -7.9788560   -2.3778320   -0.3031960  
O    -9.0758690   -2.7976140   -0.6409860  
C    -7.2005560   -3.1267100    0.8412610  
O    -7.7136020   -4.1074940    1.3609260  
C    -5.8894800   -2.6157400    1.2367170  
H    -3.4309470   -0.9568960    1.5606160  
H    -7.8858020   -0.6910660   -1.7029580  
H    -5.3630980   -3.1389330    2.0295430  
H    -5.5924390    0.9888600   -1.4856940  
C     0.1241830    0.4069760    0.7700450  
C     0.4122160    1.7061290    0.4408690  
C    -0.8341100    2.2786470   -0.0758350  
C    -1.8613310    1.2159160    0.0404280  
N    -1.2221580    0.1327410    0.5780270  
C    -3.1836650    1.3175450   -0.3482040  
C    -3.5421550    2.5473890   -1.0723330  
O    -4.6184640    2.7210820   -1.6328820  
C    -2.4888190    3.7046020   -1.1596220  
O    -2.8310130    4.7603290   -1.6653360  
C    -1.1386070    3.4727190   -0.6487620  
H    -0.4267960    4.2824360   -0.7351400  
H     0.7916430   -0.3675660    1.1196270  
H    -1.6271910   -0.7925300    0.6141120  
C     4.2916110   -0.2419010    0.2231650  
C     5.1547260    0.8178700    0.3770070  
C     4.3218020    1.9864820    0.5400340  
C     2.9257000    1.4614360    0.4280350  
N     2.9178640    0.1797580    0.2325560  
C     1.7420200    2.3124270    0.5416170  
C     2.0052150    3.6284190    0.8009070  
O     1.0588840    4.5583240    1.0156740  
C     3.3979810    4.1853110    0.9057390  
O     3.5007040    5.3928820    1.1344570  
C     4.5568290    3.2994790    0.7583770  
H     6.2289540    0.7900970    0.5016610  
H     1.5573530    5.3938010    1.1758510  
H     5.5422880    3.7465760    0.8432090  
C     7.6602920   -2.2374710   -1.7451960  
C     7.3041230   -3.5315310   -1.5567210  
C     6.0540080   -3.5294010   -0.8240060  
C     5.7156860   -2.1085150   -0.5855170  
N     6.7357880   -1.3799630   -1.1433010  
C     4.5757550   -1.6493320    0.0412370  
C     3.6456750   -2.6888000    0.5462820  
O     2.6565410   -2.4510110    1.2157180  
C     3.9758910   -4.2000280    0.2569430  
O     3.1683320   -5.0470240    0.5987100  
C     5.2363750   -4.5328110   -0.4089270  
H     7.8431730   -4.4048040   -1.8935260  
H     5.4574810   -5.5819990   -0.5793250  
H     8.5191960   -1.8238220   -2.2562850  
H     6.6904120   -0.3800490   -1.2811250  
