58


C     0.3278180    1.6122040   -0.0284200  
C     0.7375390    2.9281380    0.0919310  
C     2.1660390    2.9632750   -0.0654340  
C     2.5892030    1.5637480   -0.2935930  
N     1.4374400    0.8087760   -0.2612990  
C     3.8789450    1.1449930   -0.4910880  
C     4.9123690    2.2019000   -0.4733300  
O     6.0951710    1.9731090   -0.6654120  
C     4.4803650    3.6949720   -0.2152940  
O     5.3527350    4.5497620   -0.1721570  
C     3.0659300    3.9885250   -0.0342510  
H     0.1036310    3.8000560    0.1605030  
H     2.7770050    5.0221000    0.1293920  
H     1.3534960   -0.1881070   -0.4088010  
C    -3.3629630    3.0478970    1.8654810  
C    -4.2191670    2.0722900    1.4745220  
C    -3.4626410    1.1291200    0.6780380  
C    -2.0792950    1.6500000    0.6302390  
N    -2.0906700    2.8259650    1.3342010  
C    -1.0003710    1.0318080    0.0266660  
C    -1.2662950   -0.3095600   -0.5105500  
O    -0.3929490   -1.0837890   -0.8851600  
C    -2.7488460   -0.7947650   -0.6346540  
O    -2.9772480   -1.7495500   -1.3526810  
C    -3.8146030   -0.0525370    0.0775720  
H    -5.2691670    2.0051820    1.7138450  
H    -3.5411090    3.9170920    2.4839280  
H    -1.2469140    3.2905880    1.6405770  
C     3.5655690   -1.0868350   -1.6255070  
C     4.2302760   -0.2517110   -0.7687950  
C     5.3081850   -1.0542700   -0.1769240  
C     5.1910530   -2.4106190   -0.7674480  
N     4.1203450   -2.3556440   -1.6382970  
C     5.9988430   -3.4608930   -0.4722700  
C     7.0585790   -3.2640230    0.5096990  
O     7.8341900   -4.1465810    0.8450460  
C     7.1903530   -1.8430700    1.1675470  
O     8.0503050   -1.6603990    2.0136600  
C     6.2646340   -0.7822390    0.7454970  
H     5.8903620   -4.4416370   -0.9252260  
H     6.3986470    0.1997720    1.1827210  
H     2.7238010   -0.8662640   -2.2694370  
H     3.7959470   -3.1242950   -2.2043130  
C    -7.8938810    1.3810580   -1.1566150  
C    -6.5613050    1.3672670   -0.9046240  
C    -6.2934090    0.0454100   -0.3547330  
C    -7.6366690   -0.6249140   -0.3599660  
N    -8.5629910    0.1629800   -0.8267930  
C    -7.8119170   -1.9803380    0.0865520  
C    -6.7169020   -2.6491450    0.5175650  
O    -6.7382220   -3.9098900    0.9715270  
C    -5.3575040   -2.0040420    0.5642200  
O    -4.4450270   -2.6469550    1.0711130  
C    -5.1751270   -0.6053200    0.0617690  
H    -5.8427680    2.1542890   -1.0810880  
H    -8.7965230   -2.4339880    0.0699320  
H    -5.8159080   -4.1154660    1.2390150  
H    -8.4798340    2.1905530   -1.5760330  
