60


C     1.5300900   -2.0280830   -0.2055790  
C     2.7411620   -1.3980300   -0.3769660  
C     3.7759370   -2.3909280   -0.2820560  
C     3.0900100   -3.6847870   -0.0429420  
N     1.7456510   -3.3997860   -0.0009550  
C     3.7290690   -4.8754920    0.0976760  
C     5.1847750   -4.8961030    0.0139360  
O     5.8467980   -5.9177790    0.1263650  
C     5.9337110   -3.5333630   -0.2315610  
O     7.1541030   -3.5333580   -0.3011340  
C     5.1337830   -2.3154160   -0.3681780  
H     2.8753530   -0.3462890   -0.5622940  
H     3.2112790   -5.8137850    0.2714730  
H     5.6581160   -1.3787050   -0.5315480  
H     1.0010530   -4.0728390    0.0970080  
C     0.1538570    2.1217050   -0.2923550  
C    -1.2144050    1.9593520   -0.4126570  
C    -1.4294440    0.5562280   -0.4006300  
C    -0.0557770   -0.0313300   -0.2790860  
N     0.8565270    0.8961610   -0.2105710  
C     0.1881150   -1.4723720   -0.2307560  
C    -0.9531370   -2.2276670   -0.1950440  
O    -0.9654420   -3.5660580   -0.1077030  
C    -2.3529430   -1.6637230   -0.2817840  
O    -3.2499810   -2.5182380   -0.2520580  
C    -2.5738290   -0.2259030   -0.4210950  
H    -1.9702870    2.7276010   -0.4301450  
H    -1.9286850   -3.8017070   -0.1221880  
C    -4.2272980    1.4125110   -1.3814940  
C    -3.9078340    0.3090640   -0.6288640  
C    -5.2173910   -0.1269560   -0.0804470  
C    -6.1862300    0.8654560   -0.6299420  
N    -5.5929370    1.7462880   -1.3956750  
C    -7.5889710    0.8190970   -0.3255810  
C    -8.0244890   -0.1555090    0.5095590  
O    -9.3014100   -0.3154540    0.8857330  
C    -7.0748150   -1.1593700    1.0984790  
O    -7.5370530   -2.0108390    1.8550530  
C    -5.6365650   -1.0967770    0.7542190  
H    -8.2583090    1.5567070   -0.7540120  
H    -9.3032430   -1.0925000    1.4872020  
H    -4.9980390   -1.8609130    1.1785340  
H    -3.5449900    2.0046630   -1.9784330  
C     0.3063290    4.5397140   -0.5869400  
C     1.2522550    5.5087600   -0.4855730  
C     2.4822540    4.8799150   -0.0689190  
C     2.2263320    3.4964410    0.0681790  
N     0.8648350    3.2902560   -0.2655640  
C     3.2044560    2.6014510    0.5064020  
C     4.4711240    3.1115160    0.7719920  
O     5.4531460    2.2656350    1.1863590  
C     4.7462240    4.4918460    0.6203490  
O     6.0414710    4.8444560    0.9224060  
C     3.7628400    5.3790680    0.2087690  
H     1.1022410    6.5597930   -0.6924840  
H     3.0085590    1.5484390    0.6440950  
H     6.2598100    2.7915750    1.3245760  
H     6.1628670    5.7976560    0.7986210  
H     3.9819460    6.4399580    0.1100640  
H    -0.7244300    4.6010820   -0.8979510  
