58


C    -4.0184680    0.7910320   -1.7766740  
C    -4.7648660    1.9173350   -1.8623600  
C    -5.7727380    1.8535280   -0.8267470  
C    -5.5543830    0.5705100   -0.1149780  
N    -4.4741270   -0.0519060   -0.7497340  
C    -6.2730130    0.1689110    0.9615620  
C    -7.3539470    1.0329390    1.4389380  
O    -8.0482680    0.7471850    2.4016460  
C    -7.6231440    2.3795770    0.6775420  
O    -8.5300410    3.1041990    1.0551630  
C    -6.7572560    2.7130630   -0.4559130  
H    -4.6334090    2.7179360   -2.5759980  
H    -6.1032270   -0.7629400    1.4854290  
H    -6.9289440    3.6586860   -0.9611280  
H    -3.1726770    0.4772240   -2.3701400  
C    -0.3049910   -0.9969970   -0.0734430  
C    -0.3885320   -2.3270750    0.2424340  
C    -1.7880610   -2.6596590    0.1639350  
C    -2.4509020   -1.3761880   -0.2295980  
N    -1.5891850   -0.4143590   -0.3662970  
C    -3.8897610   -1.2869180   -0.4158190  
C    -4.6071680   -2.4348110   -0.2399280  
O    -5.9311680   -2.5160810   -0.4092330  
C    -3.9611560   -3.7278320    0.1751060  
O    -4.7050610   -4.7011370    0.3072760  
C    -2.5091190   -3.7879720    0.3689120  
H     0.4168220   -2.9968910    0.5085420  
H    -6.1605790   -3.4517490   -0.2009080  
H    -2.0832550   -4.7422570    0.6614480  
C     0.8372320   -0.1306440   -0.1467080  
C     2.1754260   -0.3945900    0.0449870  
C     2.8966490    0.8286070   -0.1511030  
C     1.8770840    1.8629710   -0.4680380  
N     0.6635730    1.2161680   -0.4588780  
C     2.1430630    3.1764360   -0.6880040  
C     3.5262290    3.6166760   -0.6251590  
O     3.8728530    4.7783480   -0.7750010  
C     4.6371320    2.5383120   -0.3590490  
O     5.8034870    2.8755310   -0.4489450  
C     4.2338940    1.1355860   -0.0563670  
H     2.6071580   -1.3584170    0.2614390  
H     1.3732480    3.9144080   -0.8898100  
H    -0.2470420    1.6285740   -0.5985620  
C     5.3443090   -2.7408550   -1.8807540  
C     6.4682160   -3.0601920   -1.2006770  
C     6.6445840   -1.9834590   -0.2321650  
C     5.4841350   -1.0650370   -0.4887470  
N     4.7317220   -1.5189970   -1.4480640  
C     5.2956920    0.1686480    0.2632490  
C     6.2166730    0.4157710    1.2435530  
O     6.1506130    1.4626750    2.0695060  
C     7.3808020   -0.4981840    1.5244770  
O     8.1435930   -0.1793560    2.4337220  
C     7.5575730   -1.7199940    0.7211950  
H     7.1138290   -3.9170870   -1.3332520  
H     6.9475270    1.4020090    2.6427060  
H     8.4155830   -2.3459680    0.9464090  
H     4.8758980   -3.2877400   -2.6904010  
