62


C     1.7607150   -0.2763250   -0.5098910  
C     1.1486890    0.9442820   -0.3577820  
C     2.1307310    1.8155370    0.2537270  
C     3.3045850    1.0558470    0.4652950  
N     3.0657930   -0.2364700   -0.0183120  
C     4.4650050    1.6062900    1.0201590  
C     4.4261430    2.9421600    1.3877930  
O     5.5299320    3.5268970    1.9358740  
C     3.2498990    3.7129110    1.1956760  
O     3.3669430    5.0261950    1.6081190  
C     2.1091710    3.1677790    0.6382710  
H     5.3674660    1.0336570    1.1925510  
H     5.3007680    4.4528350    2.1259120  
H     2.5381120    5.4938840    1.4276160  
H     1.2265180    3.7772070    0.4677130  
H     1.3788410   -1.1918290   -0.9384920  
C    -2.4791960   -1.1970080    0.8129480  
C    -3.4211520   -0.4287460    0.1433420  
C    -2.6728570    0.6084340   -0.5423380  
C    -1.3048040    0.4040520   -0.2423090  
N    -1.2200040   -0.7090450    0.5708410  
C    -0.2567840    1.2380250   -0.6913320  
C    -0.6517220    2.3271830   -1.4681200  
O     0.2822830    3.1892800   -1.9691950  
C    -2.0192590    2.5516190   -1.7769350  
O    -2.2298230    3.6685030   -2.5673740  
C    -3.0258640    1.7182870   -1.3344160  
H    -0.3582780   -1.0532750    0.9678000  
H    -0.1974920    3.8201920   -2.5351420  
H    -3.1337320    3.6464280   -2.9158650  
H    -4.0574010    1.8976700   -1.6168730  
H    -2.6165370   -2.1046540    1.3842750  
C    -6.0224120   -1.5685460    3.4720690  
C    -7.2112960   -1.6707760    2.8206660  
C    -6.9719760   -1.3464200    1.4313830  
C    -5.5269630   -1.0528080    1.3220710  
N    -4.9989530   -1.2480060    2.5906690  
C    -4.8677990   -0.6568960    0.1870000  
C    -5.7170160   -0.5126300   -1.0165730  
O    -5.2836220   -0.1481970   -2.0982540  
C    -7.2583400   -0.8471010   -0.9253090  
O    -7.9307900   -0.7171930   -1.9385920  
C    -7.8034790   -1.2704660    0.3534530  
H    -8.1614840   -1.9435040    3.2565190  
H    -8.8645670   -1.4916870    0.4109180  
H    -5.8003620   -1.7179030    4.5207740  
H    -4.0833010   -0.9123820    2.8539040  
C     4.2175220   -2.8548030   -3.3359700  
C     3.6841460   -1.8527170   -2.5897650  
C     4.1710370   -2.0212040   -1.2370190  
C     5.0429210   -3.2172280   -1.2538250  
N     5.0159420   -3.6826360   -2.5531800  
C     5.7323310   -3.7040290   -0.1865050  
C     5.6037050   -3.0120070    1.0821730  
O     6.2119340   -3.3248490    2.0949970  
C     4.6218970   -1.7819760    1.1645120  
O     4.4022130   -1.2803800    2.2516890  
C     3.9697140   -1.3087480   -0.0831300  
H     3.0337560   -1.0670450   -2.9425340  
H     6.3807880   -4.5726020   -0.2403210  
H     4.1015930   -3.0597460   -4.3918290  
H     5.5495280   -4.4680340   -2.8910730  
