60


C     1.8969390   -0.7020370   -0.6782250  
C     3.1944750   -0.2609660   -0.7030060  
C     3.1610990    1.1451830   -0.3483580  
C     1.8082670    1.4955020   -0.1343140  
N     1.0332020    0.3428210   -0.3574330  
C     1.4257730    2.7701030    0.2916540  
C     2.4250400    3.7206700    0.4583840  
O     2.0943620    4.9773340    0.8684810  
C     3.7803820    3.3977030    0.2071250  
O     4.6533590    4.4466260    0.3998540  
C     4.1557510    2.1259140   -0.1939320  
H     0.3983360    3.0475400    0.4807940  
H     2.9213330    5.4841310    0.9461240  
H     5.5667980    4.1335020    0.3194930  
H     5.2023280    1.8927020   -0.3706850  
H     1.5055700   -1.6941840   -0.8320160  
C    -1.2176260   -2.7418450    1.6350710  
C    -2.4916230   -2.3096980    1.4607920  
C    -2.3841380   -1.0920960    0.6727520  
C    -0.9169210   -0.9296870    0.4730210  
N    -0.2456040   -1.9038210    1.0186670  
C    -0.3546140    0.2118230   -0.2369770  
C    -1.2442780    1.1231950   -0.7374150  
O    -0.8712520    2.2097600   -1.4442120  
C    -2.7000880    0.9991690   -0.5304060  
O    -3.4056230    1.9192230   -0.9730960  
C    -3.2835680   -0.2092620    0.1405170  
H    -3.3911010   -2.7405320    1.8729250  
H    -1.7039400    2.6912720   -1.6400870  
H    -0.8770190   -3.6127530    2.1813920  
C    -4.7275250   -0.3817570    0.1652960  
C    -5.4496490   -1.5442580    0.3396910  
C    -6.8451020   -1.2187790    0.2369180  
C    -6.9097820    0.2403730   -0.0235030  
N    -5.6062060    0.6856670   -0.0347080  
C    -8.0634970    0.9323130   -0.2055520  
C    -9.3285410    0.2067380   -0.1352100  
O   -10.4156290    0.7426240   -0.2858770  
C    -9.2829200   -1.3397040    0.1498850  
O   -10.3296150   -1.9650540    0.2147460  
C    -7.9738960   -1.9770340    0.3243860  
H    -5.0420510   -2.5344690    0.4678370  
H    -8.0941380    2.0000460   -0.3980270  
H    -7.9529430   -3.0455940    0.5162280  
H    -5.2782010    1.5855290   -0.3597410  
C     4.4449330   -1.9232500   -2.1278190  
C     4.3538120   -1.0750790   -1.0618310  
C     5.6241890   -1.1861800   -0.3461290  
C     6.4507200   -2.1622650   -1.1010320  
N     5.6680220   -2.5842720   -2.1561760  
C     7.7134190   -2.5279420   -0.7620330  
C     8.3098590   -1.9396920    0.4329400  
O     9.4409180   -2.2008650    0.8135380  
C     7.4427420   -0.9262060    1.2660280  
O     7.9216470   -0.4223560    2.2697930  
C     6.0880710   -0.6154390    0.7963870  
H     8.2999270   -3.2440940   -1.3295120  
H     5.4961750    0.0760830    1.3867720  
H     3.7119920   -2.1084820   -2.9019240  
H     5.9754820   -3.2048730   -2.8884670  
