58


C     1.9643830   -0.2195450    0.4451170  
C     1.3741130    0.9918820    0.2103860  
C     2.4269330    1.8813550   -0.2729940  
C     3.6749650    1.0799060   -0.2689400  
N     3.3207910   -0.2098620    0.1378440  
C     4.8996320    1.5709400   -0.5897980  
C     5.0044270    2.9682770   -1.0167140  
O     6.0667360    3.4871740   -1.3166040  
C     3.6861340    3.8107720   -1.1025820  
O     3.7384520    4.9623300   -1.4989700  
C     2.4284030    3.1738980   -0.6896410  
H     5.8150960    0.9949330   -0.5179710  
H     1.5291950    3.7779270   -0.7479460  
H     1.5195180   -1.1191410    0.8413590  
C     6.3384210   -2.0341100   -2.4654230  
C     6.7916000   -2.9847150   -1.6132940  
C     6.0248430   -2.8718590   -0.3887280  
C     5.0782090   -1.7483240   -0.6049400  
N     5.3011520   -1.2982180   -1.8823830  
C     4.1890060   -1.3083650    0.3399660  
C     4.1175300   -2.0373470    1.6135820  
O     3.3056230   -1.7655490    2.4840240  
C     5.1135480   -3.2327770    1.8431480  
O     5.0580500   -3.8295010    2.9042980  
C     6.0443500   -3.5806660    0.7706660  
H     7.5723840   -3.7048870   -1.8084850  
H     6.7261490   -4.4073750    0.9420350  
H     6.6539260   -1.8019490   -3.4735890  
H     4.8853320   -0.4698360   -2.2815210  
C    -0.0275160    1.2882910    0.4118060  
C    -1.1100050    0.4462420    0.3721090  
C    -2.2938060    1.2132210    0.6553040  
C    -1.8327570    2.6031500    0.8670060  
N    -0.4594790    2.5954260    0.6716450  
C    -2.6326810    3.6527410    1.1797330  
C    -4.0647550    3.4114230    1.2759860  
O    -4.8782700    4.2874390    1.5232280  
C    -4.5931230    1.9488610    1.0337810  
O    -5.7928340    1.7505310    1.1342160  
C    -3.6256290    0.8697640    0.7261410  
H    -1.0824220   -0.5951410    0.0876230  
H    -2.2650960    4.6620570    1.3359750  
H     0.1474410    3.3169610    1.0328450  
C    -3.5320440   -1.5935810    1.2226930  
C    -4.0955900   -0.5120850    0.6036010  
C    -5.2146670   -1.0369430   -0.1889620  
C    -5.2285240   -2.5045250    0.0297280  
N    -4.1775990   -2.7727480    0.8874920  
C    -6.1144190   -3.3673260   -0.5291470  
C    -7.1237180   -2.8314820   -1.4356940  
O    -7.9602230   -3.5264340   -1.9922780  
C    -7.1115120   -1.2843490   -1.7102720  
O    -7.9249150   -0.8160780   -2.4897900  
C    -6.1131020   -0.4544120   -1.0213710  
H    -6.1028120   -4.4371880   -0.3442190  
H    -6.1496540    0.6147650   -1.1925630  
H    -2.7028440   -1.6113420    1.9175540  
H    -3.9970990   -3.6711340    1.3082120  
