62


C     2.0418760   -0.7088930    0.4658070  
C     3.0339410    0.2012130    0.1342520  
C     2.3560470    1.4371410   -0.1937360  
C     0.9713570    1.2065930   -0.0443530  
N     0.8180700   -0.1082180    0.3579490  
C    -0.0229620    2.1971490   -0.2546850  
C     0.4546340    3.4584470   -0.6538670  
O    -0.4012980    4.4625940   -0.9406710  
C     1.8473330    3.6883270   -0.8319260  
O     2.1363790    4.9684510   -1.2530770  
C     2.7935670    2.7072210   -0.6155140  
H    -0.0658990   -0.5263580    0.6116880  
H     0.1329230    5.2344750   -1.2013290  
H     3.0914670    5.0686930   -1.3800300  
H     3.8471010    2.9104910   -0.7858490  
H     2.1269740   -1.7294060    0.8110980  
C    -1.4352170    1.9032010   -0.0578130  
C    -2.0730680    0.7001650   -0.2457640  
C    -3.4467900    0.9142450    0.1421350  
C    -3.4856680    2.3488610    0.5527540  
N    -2.3203680    2.9195970    0.4416710  
C    -4.7030240    2.9710520    1.0047320  
C    -5.8180160    2.2059520    1.0325710  
O    -7.0233280    2.6468160    1.4200130  
C    -5.8056770    0.7383900    0.6585540  
O    -6.8562580    0.1239080    0.8199000  
C    -4.5462420    0.1079640    0.1805150  
H    -1.6855730   -0.1942180   -0.7122670  
H    -4.7082770    4.0156240    1.2949620  
H    -7.6117670    1.8596770    1.3708750  
C    -2.1523460   -3.1751010    1.9246330  
C    -2.6496900   -4.1940520    1.1569310  
C    -3.6122030   -3.6175530    0.2592270  
C    -3.6490730   -2.2260980    0.5271480  
N    -2.7345520   -1.9786650    1.5331000  
C    -4.5220370   -1.3327040   -0.1344900  
C    -5.3588440   -1.8915020   -1.1033360  
O    -6.1870460   -1.0869540   -1.8218500  
C    -5.3221870   -3.2806250   -1.3908240  
O    -6.2028870   -3.6591660   -2.3853140  
C    -4.4680660   -4.1421340   -0.7294820  
H    -2.3691920   -5.2362550    1.2239290  
H    -2.6434320   -1.0970760    2.0143970  
H    -6.7153790   -1.6600730   -2.4044970  
H    -6.1754450   -4.6208680   -2.4967510  
H    -4.4630400   -5.2037450   -0.9680750  
H    -1.4242760   -3.1931020    2.7236310  
C     4.4502840   -0.0640900    0.1449530  
C     5.5199280    0.7843750    0.2903300  
C     6.7284350    0.0079410    0.2284650  
C     6.2998680   -1.3974180    0.0195470  
N     4.9137130   -1.3888080    0.0387290  
C     7.1490770   -2.4395220   -0.1510540  
C     8.5869020   -2.1809170   -0.0941340  
O     9.4238220   -3.0598620   -0.2340230  
C     9.0646390   -0.7063040    0.1727500  
O    10.2651230   -0.4796960    0.2345300  
C     8.0493000    0.3316500    0.3233580  
H     5.4609840    1.8424620    0.4983420  
H     6.8182490   -3.4613510   -0.3115230  
H     8.3911220    1.3484620    0.4920720  
H     4.3628820   -2.1113360   -0.4029860  
