58


C    -4.8449470    0.7152830   -2.1867830  
C    -3.6676510    0.2132620   -1.7279040  
C    -3.9677100   -0.5948900   -0.5624880  
C    -5.4378570   -0.5226460   -0.3833310  
N    -5.9040680    0.3117280   -1.3844090  
C    -6.1403370   -1.1829750    0.5719240  
C    -5.4060130   -2.0337760    1.4999630  
O    -5.9464100   -2.6956260    2.3715600  
C    -3.8413560   -2.0901770    1.3733910  
O    -3.2091380   -2.6980760    2.2168860  
C    -3.1807570   -1.3540530    0.2625040  
H    -2.6926020    0.3596710   -2.1672770  
H    -7.2204070   -1.1278620    0.6665780  
H    -5.0328070    1.3441850   -3.0473310  
H    -6.8785250    0.4821310   -1.5783910  
C     0.2340360    1.5702780    0.1806030  
C    -1.0287090    1.0271590    0.2824980  
C    -0.8580590   -0.3964560    0.1411030  
C     0.6171080   -0.5683950   -0.0349290  
N     1.2412040    0.5713360   -0.0316660  
C     1.2268280   -1.8733280   -0.2060300  
C     0.3775430   -2.9354320   -0.2208060  
O     0.7778630   -4.2036280   -0.3680450  
C    -1.1170090   -2.7927970   -0.0798410  
O    -1.7839030   -3.8183040   -0.1973720  
C    -1.7195280   -1.4528280    0.1285360  
H    -1.9483330    1.5266520    0.5528130  
H    -0.0485650   -4.7376380   -0.3592130  
C     4.4473740   -0.8597260    2.5871980  
C     5.5590420   -1.1347900    1.8687280  
C     5.0682360   -1.6463560    0.5923060  
C     3.5770860   -1.5846450    0.7272870  
N     3.2221320   -1.1489610    1.8964170  
C     2.6912020   -2.0072100   -0.3462020  
C     3.2836790   -2.5177760   -1.4580530  
O     2.6094910   -2.9496030   -2.5361320  
C     4.7786100   -2.6116990   -1.6058650  
O     5.2128780   -3.0781370   -2.6590570  
C     5.6509120   -2.1441140   -0.5153020  
H     6.5933590   -1.0128360    2.1583600  
H     3.3037670   -3.2496890   -3.1648350  
H     6.7227780   -2.2345400   -0.6631310  
H     4.3832610   -0.4579890    3.5910230  
C    -1.9343190    5.1329520   -1.1484670  
C    -1.0089760    6.0844350   -0.8684610  
C     0.1323410    5.4116320   -0.2826320  
C    -0.2139060    3.9743380   -0.2326260  
N    -1.4854560    3.8754590   -0.7500730  
C     0.6160000    2.9668980    0.2101270  
C     1.9347130    3.3990520    0.7460110  
O     2.7022090    2.6543660    1.3221660  
C     2.3354010    4.9158760    0.6318190  
O     3.4611060    5.2502590    0.9640000  
C     1.3413910    5.8693770    0.1409430  
H    -1.0990090    7.1455400   -1.0494150  
H     1.6205090    6.9178390    0.0989550  
H    -2.9130610    5.2344590   -1.5981330  
H    -1.9260260    2.9943020   -0.9752670  
