60


C    -2.6576840   -1.2500840    2.9893490  
C    -1.4618570   -1.0823610    2.3465440  
C    -1.7462780   -0.5846740    1.0296940  
C    -3.1564120   -0.4516960    0.9426120  
N    -3.6870490   -0.8491990    2.1544770  
C    -3.8387200    0.0207570   -0.1982350  
C    -3.0279590    0.3952230   -1.2711430  
O    -3.5874310    0.9191850   -2.3898750  
C    -1.6144260    0.3010730   -1.2062600  
O    -0.9843460    0.7019950   -2.3653380  
C    -0.9429040   -0.2092080   -0.0855280  
H    -0.4901730   -1.3111270    2.7550740  
H    -4.6687760   -1.0103210    2.3188520  
H    -2.8457520    1.0860920   -3.0026270  
H    -0.2656140    1.3237760   -2.1224530  
H    -2.8696610   -1.6179700    3.9832660  
C     1.6755160   -3.5943600    0.9753590  
C     2.9108450   -3.0779380    0.7663590  
C     2.6842240   -1.7177200    0.2911220  
C     1.2060530   -1.5716680    0.3121530  
N     0.6259970   -2.6750670    0.6929040  
C     0.5270340   -0.3340780   -0.0836800  
C     1.3663570    0.6602770   -0.4931370  
O     0.9188130    1.8855420   -0.9062690  
C     2.8411690    0.5575040   -0.5198520  
O     3.4671850    1.5621440   -0.8786830  
C     3.5169560   -0.7219830   -0.1363400  
H     3.8654480   -3.5560680    0.9306280  
H     1.7387650    2.3892800   -1.1170390  
H     1.4136450   -4.5840430    1.3289160  
C     5.5877170   -2.0155700   -0.7244550  
C     4.9500860   -0.8712610   -0.3106250  
C     6.0577700    0.0856480   -0.0896390  
C     7.2840420   -0.7056820   -0.4111260  
N     6.9880350   -1.9233120   -0.7915570  
C     8.6050200   -0.1542440   -0.3006050  
C     8.7201770    1.1276000    0.1239390  
O     9.8834280    1.7713710    0.2774690  
C     7.5065750    1.9508850    0.4696190  
O     7.6909800    3.1016710    0.8564990  
C     6.1576500    1.3587270    0.3368760  
H     9.4669980   -0.7633210   -0.5484240  
H     9.6493450    2.6710870    0.5967670  
H     5.3144230    1.9962990    0.5703730  
H     5.1121500   -2.9381350   -1.0348680  
C    -6.6429730    2.3064920    2.2887080  
C    -7.8163810    1.9769080    1.6881360  
C    -7.5052160    1.0734500    0.5996740  
C    -6.0332400    0.8985560    0.6196800  
N    -5.5738090    1.6602040    1.6810700  
C    -5.3091330    0.1451020   -0.2602590  
C    -6.0851720   -0.5858380   -1.2892220  
O    -5.5751540   -1.3677310   -2.0703100  
C    -7.6458480   -0.3811760   -1.3486350  
O    -8.2731080   -0.9377080   -2.2369310  
C    -8.2791280    0.4608560   -0.3368820  
H    -8.8002590    2.3260560    1.9656720  
H    -9.3567260    0.5854530   -0.3823400  
H    -6.4642910    2.9629190    3.1303740  
H    -4.5978470    1.8027850    1.8918740  
