58


C     3.4769560   -0.7871690   -0.0513440  
C     3.0192860   -2.0752040   -0.0806070  
C     4.1598840   -2.9307310   -0.2866330  
C     5.3377390   -2.0350540   -0.3752410  
N     4.8684380   -0.7370220   -0.1693410  
C     6.6021080   -2.4501680   -0.6150090  
C     6.8402210   -3.8884650   -0.7708790  
O     7.9473050   -4.3519010   -0.9884240  
C     5.6132790   -4.8616790   -0.6384990  
O     5.7993990   -6.0632740   -0.7560440  
C     4.2936270   -4.2813600   -0.3930960  
H     2.0014180   -2.3959960    0.0850160  
H     7.4525340   -1.7788330   -0.6842090  
H     3.4503410   -4.9612980   -0.3213190  
H     5.3505950    0.0766630   -0.5263880  
C     1.4304310    0.5136320   -0.4063690  
C     0.9390270    1.7698480   -0.2217050  
C     2.0018070    2.5374310    0.4387160  
C     3.1416470    1.6096950    0.6235140  
N     2.7471940    0.3848240    0.0571770  
C     4.2901040    1.9262650    1.2703550  
C     4.4453160    3.2876890    1.7914470  
O     5.4505870    3.6552440    2.3757600  
C     3.2611930    4.2904860    1.5897280  
O     3.3639440    5.4292760    2.0121870  
C     2.0545380    3.8092730    0.9025080  
H     5.0918260    1.2225950    1.4592790  
H     1.2390100    4.5114650    0.7817870  
H     0.9657280   -0.3277250   -0.9000320  
C    -3.1487330   -0.0474930    0.0882220  
C    -1.7876100    0.1821300    0.2205710  
C    -1.5323270    1.4279350   -0.4187270  
C    -2.8803680    1.8699440   -0.9161850  
N    -3.8108250    1.0069690   -0.6240440  
C    -3.0646920    3.1102140   -1.6156180  
C    -1.9700880    3.8829020   -1.8024790  
O    -1.9842550    5.0641860   -2.4246340  
C    -0.5896520    3.4712980   -1.3235230  
O     0.3255590    4.2546590   -1.5891590  
C    -0.4051840    2.1986440   -0.6121120  
H    -1.0717870   -0.4401660    0.7377230  
H    -4.0481160    3.4037490   -1.9646490  
H    -1.0485710    5.3724740   -2.4198000  
C    -3.5240390   -2.2606870    1.2615460  
C    -3.9291330   -1.1412060    0.5568270  
C    -5.3848370   -1.3374310    0.3970990  
C    -5.6512960   -2.6335220    1.0759550  
N    -4.5454170   -3.1531900    1.5733970  
C    -6.9615080   -3.2008820    1.1517300  
C    -7.9775590   -2.5077010    0.5739570  
O    -9.2505500   -2.9118050    0.5647370  
C    -7.7418630   -1.1889060   -0.1233860  
O    -8.7160630   -0.6296880   -0.6182980  
C    -6.3730450   -0.6306660   -0.1825250  
H    -7.1194820   -4.1481480    1.6548270  
H    -9.7491410   -2.2152540    0.0812090  
H    -6.2138630    0.3168130   -0.6838780  
H    -2.5150210   -2.4953340    1.5816840  
