58


C     4.7428110   -1.9555650   -1.3916070  
C     5.8884070   -2.6671440   -1.2796920  
C     6.8095350   -1.8891690   -0.4781210  
C     6.1000700   -0.6352910   -0.1296870  
N     4.8294020   -0.7228430   -0.7213430  
C     6.6165980    0.3310960    0.6644360  
C     7.9735690    0.1511320    1.1882710  
O     8.5087490    0.9677530    1.9196490  
C     8.7558010   -1.1528460    0.7982790  
O     9.8900970   -1.3141000    1.2177770  
C     8.0729340   -2.1370880   -0.0465620  
H     6.0873990   -3.6311920   -1.7254850  
H     6.0939020    1.2440440    0.9233000  
H     8.6060640   -3.0511930   -0.2893780  
H     3.8359190   -2.1908230   -1.9319270  
C     0.6300250   -1.1448270    0.3736820  
C     1.9504590   -1.3523920    0.1678620  
C     2.5207520   -0.1101060   -0.3068990  
C     1.4123840    0.8636310   -0.3762590  
N     0.2682900    0.1792730    0.0701370  
C     1.5353030    2.1439450   -0.8119670  
C     2.8625260    2.6178490   -1.1931800  
O     3.0867020    3.7663880   -1.5338000  
C     4.0615750    1.6052600   -1.1609640  
O     5.1468010    1.9589970   -1.5767870  
C     3.7987800    0.2278210   -0.6649830  
H     2.4848550   -2.2701060    0.3631590  
H     0.7065750    2.8333720   -0.9138970  
H    -0.1250690   -1.8150830    0.7587060  
C    -1.0297610    0.6555480    0.1878500  
C    -2.2013420   -0.0348750    0.0519120  
C    -3.2761640    0.8874580    0.3252820  
C    -2.6376800    2.1869090    0.6312040  
N    -1.2618600    1.9960360    0.4938430  
C    -3.2985120    3.3219760    0.9546640  
C    -4.7605220    3.2789920    0.9825230  
O    -5.4455870    4.2532450    1.2427590  
C    -5.4697240    1.9146190    0.6648610  
O    -6.6791310    1.8455830    0.7867260  
C    -4.6386240    0.7407420    0.2998770  
H    -2.3067760   -1.0532260   -0.2901100  
H    -2.8059170    4.2667720    1.1622120  
H    -0.5797830    2.5804650    0.9568550  
C    -4.6853060   -3.2202250    2.2472440  
C    -5.5187390   -3.8779140    1.4026290  
C    -5.8967830   -2.9485190    0.3566840  
C    -5.1966800   -1.6783100    0.6643880  
N    -4.4429980   -1.9214660    1.8012640  
C    -5.3207080   -0.5195120   -0.0447830  
C    -6.1957400   -0.5609560   -1.2378220  
O    -6.3155920    0.3857140   -1.9943370  
C    -6.9494120   -1.8987530   -1.5753490  
O    -7.6904150   -1.9240530   -2.5445030  
C    -6.7246530   -3.0611230   -0.7157300  
H    -5.8474780   -4.9030110    1.4930330  
H    -7.2541040   -3.9779240   -0.9561890  
H    -4.2098920   -3.5720960    3.1535500  
H    -4.0355840   -1.1873850    2.3607610  
