58


C     4.6091140    0.4590870   -0.0172950  
C     5.9781450    0.3222620   -0.0472500  
C     6.2727740   -1.0790460   -0.1688340  
C     4.9607290   -1.7784980   -0.2128140  
N     4.0041650   -0.7931750   -0.1107740  
C     4.8158930   -3.1232060   -0.3295540  
C     6.0177160   -3.9480010   -0.4117490  
O     5.9863290   -5.1649410   -0.5128970  
C     7.4165710   -3.2297310   -0.3637310  
O     8.4332830   -3.9036970   -0.4306180  
C     7.4454930   -1.7706760   -0.2396820  
H     6.7002620    1.1233510    0.0176140  
H     3.8504400   -3.6182260   -0.3624390  
H     8.4163300   -1.2853300   -0.2092960  
H     3.0017150   -0.9097390   -0.1387970  
C     3.7857630    1.6344590    0.0932220  
C     4.1356090    2.9538470    0.1428420  
C     2.8909360    3.6782600    0.2452080  
C     1.8311540    2.6174420    0.2508300  
N     2.3617920    1.4354490    0.1556490  
C     0.4017870    2.9320190    0.3343590  
C     0.1125130    4.2689880    0.4139880  
O    -1.1362420    4.7556600    0.5367910  
C     1.1523290    5.3454430    0.4060940  
O     0.7608100    6.5118500    0.4973080  
C     2.5735880    4.9891860    0.3118600  
H     5.1266720    3.3832870    0.1005540  
H    -1.0216380    5.7334260    0.5844570  
H     3.2956630    5.7995230    0.3048300  
C    -0.4101160    0.5934120    0.8428090  
C    -0.5850730    1.8592020    0.3492830  
C    -1.9609890    1.8379510   -0.1918600  
C    -2.4473470    0.4520860    0.1001090  
N    -1.5305940   -0.2525050    0.7090110  
C    -3.7651700   -0.0149370   -0.2853320  
C    -4.5473340    0.8836440   -0.9536720  
O    -5.7996380    0.6282900   -1.3428840  
C    -4.0753430    2.2681670   -1.2898240  
O    -4.8513420    3.0034800   -1.8969570  
C    -2.7253050    2.7040250   -0.8817700  
H    -6.0997720    1.4337150   -1.8199950  
H    -2.4342850    3.7146800   -1.1368270  
H     0.4811380    0.2036040    1.3132120  
C    -4.1996960   -2.5451570    3.3675320  
C    -3.9569370   -1.5252250    2.5051120  
C    -4.2453740   -2.0065520    1.1721070  
C    -4.6901150   -3.4147570    1.3341110  
N    -4.6331100   -3.6787150    2.6878790  
C    -5.0838320   -4.2296420    0.3225130  
C    -5.0693750   -3.6962080   -1.0312790  
O    -5.4264900   -4.3356520   -2.0085620  
C    -4.5645610   -2.2223950   -1.2439110  
O    -4.4642030   -1.8056670   -2.3841840  
C    -4.1984320   -1.4072460   -0.0574540  
H    -3.5934200   -0.5433190    2.7629950  
H    -5.4215790   -5.2504090    0.4726940  
H    -4.0965140   -2.5715610    4.4442880  
H    -4.8915190   -4.5542080    3.1145660  
