58


C    -4.1899580   -0.3297530    0.1343560  
C    -4.8880320   -1.4526030    0.4690690  
C    -6.2315800   -1.2839830   -0.0314580  
C    -6.2644600    0.0439450   -0.6885250  
N    -4.9996830    0.6110790   -0.5086960  
C    -7.3386960    0.5582780   -1.3279840  
C    -8.5733400   -0.2335350   -1.3527210  
O    -9.5902110    0.1515910   -1.9039960  
C    -8.5752420   -1.6260890   -0.6245330  
O    -9.5981730   -2.2918340   -0.6264880  
C    -7.3372480   -2.0741870    0.0174560  
H    -4.5237810   -2.2811980    1.0587450  
H    -7.3434240    1.5304780   -1.8111340  
H    -7.3445640   -3.0454050    0.5024080  
H    -4.6222250    1.2940290   -1.1521180  
C    -1.8496750   -1.0331850    0.3557330  
C    -0.6176760   -0.5061470    0.6046250  
C    -0.8034370    0.9326790    0.7871830  
C    -2.2517090    1.1929090    0.6314110  
N    -2.8444190   -0.0522000    0.3482450  
C    -2.8254120    2.4089490    0.7951580  
C    -1.9599680    3.5548460    1.1091530  
O    -2.3967970    4.6832090    1.2509560  
C    -0.4241240    3.2977460    1.2747320  
O     0.3158750    4.2241500    1.5611290  
C     0.0663800    1.9270760    1.0947390  
H    -3.8924480    2.5870820    0.7342490  
H     1.1265230    1.7535300    1.2412670  
H    -2.1181330   -2.0549300    0.1264510  
C     0.6318450   -1.2382800    0.6830470  
C     0.8804360   -2.5038190    1.1379750  
C     2.2973870   -2.7538480    1.0160430  
C     2.8811310   -1.5224800    0.4423710  
N     1.8350320   -0.6179690    0.3098750  
C     4.1914770   -1.3504310    0.1018010  
C     5.1065520   -2.4728200    0.4321610  
O     6.3146400   -2.3812410    0.3261300  
C     4.4986530   -3.7984010    1.0177210  
O     5.2430180   -4.7448040    1.2176670  
C     3.0656620   -3.8400360    1.3040800  
H     0.1548740   -3.1739670    1.5770760  
H     2.6569900   -4.7586720    1.7134360  
H     1.8770570    0.1522560   -0.3436410  
C     4.0768580    2.9440590    1.2139500  
C     4.7509010    3.4583730    0.1569250  
C     5.1127740    2.3547850   -0.7097290  
C     4.5786760    1.1319520   -0.0631930  
N     3.9220840    1.5589640    1.0825530  
C     4.7294250   -0.1405980   -0.5399880  
C     5.4339540   -0.2782830   -1.8388640  
O     5.4931330   -1.3352220   -2.4394720  
C     6.0541830    1.0018180   -2.5047970  
O     6.7039910    0.8712140   -3.5293020  
C     5.8103290    2.2987610   -1.8752260  
H     4.9707610    4.5017290   -0.0165670  
H     6.2221150    3.1808160   -2.3558500  
H     3.6382040    3.4528690    2.0621850  
H     3.7067340    0.9395600    1.8506340  
