60


C     5.2224620   -0.4378430    2.3490170  
C     3.9770050   -0.6227460    1.8358590  
C     4.1077550   -1.5010780    0.6902220  
C     5.5519630   -1.8194400    0.5831260  
N     6.1743490   -1.1184280    1.6013910  
C     6.0996920   -2.6584800   -0.3324130  
C     5.2119540   -3.3042920   -1.2912570  
O     5.5998910   -4.1015930   -2.1300640  
C     3.6846750   -2.9423870   -1.2461160  
O     2.9591630   -3.3616300   -2.1280490  
C     3.1885570   -2.0458110   -0.1672390  
H     3.0556560   -0.2178530    2.2261480  
H     7.1592810   -2.8915000   -0.3723060  
H     5.5288440    0.1358830    3.2140440  
H     7.1489780   -1.2074000    1.8432080  
C     0.6445440    1.6514010   -0.2743230  
C     1.7236860    0.7975480   -0.3074250  
C     1.1857850   -0.5307820   -0.1535970  
C    -0.2862810   -0.3217400   -0.0513990  
N    -0.5886770    0.9398880   -0.1070130  
C    -1.2260550   -1.4402520    0.0920230  
C    -0.6342950   -2.6802610    0.1594200  
O    -1.3440550   -3.8297290    0.3207120  
C     0.8163380   -2.9165170    0.0886950  
O     1.2190830   -4.0791100    0.2333920  
C     1.7471470   -1.7698380   -0.0964000  
H     2.7544950    1.0329810   -0.5309540  
H    -0.6568070   -4.5357720    0.3450660  
C     3.6322410    4.5813240    1.0092870  
C     2.9871220    5.7287900    0.6814260  
C     1.7172920    5.3532350    0.0947950  
C     1.6808570    3.8754250    0.0951810  
N     2.8802410    3.4689350    0.6378050  
C     0.6265850    3.0987410   -0.3361500  
C    -0.5382260    3.8395590   -0.8898390  
O    -1.4887680    3.3024450   -1.4249550  
C    -0.5284750    5.4135550   -0.8414320  
O    -1.5284240    6.0123160   -1.2047230  
C     0.6729460    6.0941110   -0.3666250  
H     3.3464300    6.7365260    0.8304140  
H     0.6761370    7.1798280   -0.3654570  
H     4.5985200    4.4429620    1.4758070  
H     3.0682030    2.5158670    0.9156980  
C    -2.6493100   -1.2148850    0.1408310  
C    -3.3795640   -0.0345050   -0.0165580  
C    -4.7522000   -0.3661240    0.0913960  
C    -4.8321790   -1.7732820    0.3202380  
N    -3.5516570   -2.2578880    0.3472540  
C    -6.0530820   -2.4414660    0.4743890  
C    -7.2088730   -1.6807070    0.3944160  
O    -8.4247520   -2.2756740    0.5339130  
C    -7.1485540   -0.2726200    0.1652160  
O    -8.3916010    0.3287210    0.1148260  
C    -5.9485930    0.3852460    0.0153970  
H    -2.9448930    0.9348950   -0.2042110  
H    -3.2671430   -3.2208240    0.4523030  
H    -6.1241320   -3.5103160    0.6462180  
H    -9.0990010   -1.5807840    0.4342710  
H    -8.2864380    1.2702550   -0.0875350  
H    -5.9197290    1.4584470   -0.1601760  
