60


C    -1.3208570   -1.8954140   -0.0233430  
C    -2.1115650   -0.7901470    0.2907070  
C    -3.4408980   -1.0880180   -0.1102180  
C    -3.4281270   -2.4042450   -0.6623080  
N    -2.1389250   -2.8602550   -0.5937980  
C    -4.5761600   -3.0383130   -1.1510850  
C    -5.7663780   -2.3294480   -1.1043700  
O    -6.9102430   -2.8863500   -1.5839740  
C    -5.8102200   -1.0126330   -0.5699640  
O    -7.0599160   -0.4282820   -0.5765410  
C    -4.6750430   -0.3941500   -0.0623360  
H    -1.7773400    0.1024010    0.7941930  
H    -1.7933250   -3.7904200   -0.7968140  
H    -4.5611930   -4.0400510   -1.5663830  
H    -7.6148690   -2.2191850   -1.5066030  
H    -6.9578300    0.5375590   -0.5620510  
C     2.1442090    0.8500270    0.5197530  
C     0.9212300    0.3290930    0.2428250  
C     1.0199330   -1.1071220    0.3566950  
C     2.4241300   -1.3911140    0.7094890  
N     3.0633170   -0.1582760    0.8320470  
C     2.9618690   -2.6300660    0.8800440  
C     2.1032160   -3.7744140    0.6618250  
O     2.4573020   -4.9359530    0.8023910  
C     0.6235270   -3.5097350    0.1986470  
O    -0.0337070   -4.4813670   -0.1531660  
C     0.0944460   -2.1214530    0.1848760  
H     0.0563590    0.8961680   -0.0630470  
H     3.9946530   -2.7976960    1.1634460  
H     2.4710450    1.8811410    0.5207100  
C     5.0590790   -0.1425850    2.2932390  
C     4.4317200    0.0436670    1.0967160  
C     5.4368870    0.4737510    0.1347150  
C     6.7116150    0.5237960    0.8880660  
N     6.4094940    0.1320300    2.1841410  
C     7.9025590    0.8877820    0.3531150  
C     7.9425140    1.2537400   -1.0633070  
O     8.9670080    1.5968590   -1.6299370  
C     6.6002570    1.1983580   -1.8820890  
O     6.6160940    1.4930370   -3.0650680  
C     5.3741270    0.7910670   -1.1834320  
H     8.8286430    0.9211090    0.9187050  
H     4.4524120    0.7545710   -1.7558670  
H     4.6343260   -0.4619810    3.2355960  
H     7.0813090    0.0445920    2.9308280  
C    -5.5631450    1.1829030    1.6660730  
C    -5.3853070    2.4587680    2.0860420  
C    -4.4277270    3.0777580    1.1937110  
C    -4.0631410    2.0406110    0.1959790  
N    -4.8009430    0.9021500    0.5179280  
C    -3.1771410    2.2316140   -0.8151520  
C    -2.5051420    3.5254830   -0.9118010  
O    -1.6460490    3.7664240   -1.7470120  
C    -2.8956870    4.6466710    0.1194030  
O    -2.3620850    5.7416580    0.0343240  
C    -3.8826380    4.3220560    1.1522790  
H    -5.8610330    2.9257810    2.9363920  
H    -2.9217610    1.4616050   -1.5342620  
H    -4.1417670    5.0995780    1.8646140  
H    -6.1802940    0.3973560    2.0814210  
