62


C    -0.3233310   -0.2309080    0.3845830  
C     0.0272970    1.0988160    0.6277530  
C    -1.1578320    1.8813590    0.5441270  
C    -2.2253190    0.9907780    0.2399230  
N    -1.6919370   -0.2715190    0.1544860  
C    -3.5616820    1.4129260    0.0614190  
C    -3.7932710    2.7810120    0.2237930  
O    -5.0568080    3.2631740    0.1333080  
C    -2.7337600    3.6839890    0.5273750  
O    -3.1515030    4.9931510    0.6540950  
C    -1.4326050    3.2586170    0.6873710  
H     1.0038790    1.4708850    0.9001120  
H    -2.1703540   -1.1427200   -0.0393950  
H    -5.0059520    4.2341110    0.1777960  
H    -2.3814620    5.5738650    0.7436920  
H    -0.6415350    3.9681280    0.9203580  
C     4.0353340   -0.8371100    0.0908170  
C     4.0411580   -2.2033240    0.1672450  
C     2.6867050   -2.6668000    0.3131740  
C     1.8447100   -1.4642550    0.3182890  
N     2.7024250   -0.3609030    0.2588690  
C     0.4730610   -1.4430030    0.3637900  
C    -0.1695990   -2.7819590    0.3797670  
O    -1.3813940   -2.9419070    0.3013700  
C     0.7222830   -4.0737010    0.5124750  
O     0.1447160   -5.1439250    0.6502550  
C     2.1594600   -3.9222800    0.4404870  
H     4.9232680   -2.8266860    0.1807960  
H     2.7726750   -4.8166880    0.4763610  
H     2.3984870    0.4383300   -0.2936920  
C     7.9620690   -0.9961140   -2.0794870  
C     6.7203190   -1.3006540   -1.5796780  
C     6.3011090   -0.1858290   -0.7819460  
C     7.3398510    0.7794120   -0.8456630  
N     8.3403040    0.2539900   -1.6364400  
C     7.2694480    2.0214590   -0.2060480  
C     6.1217450    2.3053760    0.5177690  
O     6.0128090    3.4947500    1.1742680  
C     5.0610410    1.3696890    0.5960930  
O     4.0119800    1.7968920    1.3809090  
C     5.1233000    0.1179500   -0.0391650  
H     6.1676670   -2.2064500   -1.7793070  
H     9.2027080    0.7206350   -1.8701000  
H     8.0693680    2.7535580   -0.2495620  
H     5.1680550    3.4795450    1.6573180  
H     3.3962920    1.0537240    1.5301740  
H     8.6129930   -1.5726830   -2.7212310  
C    -5.0279640   -2.2936120    1.9444960  
C    -6.0148530   -2.6221020    1.0718060  
C    -6.0427180   -1.6001670    0.0473570  
C    -4.9733050   -0.6331740    0.4004790  
N    -4.4050130   -1.1092690    1.5675300  
C    -4.6535350    0.4889080   -0.3105660  
C    -5.4227150    0.7171970   -1.5544510  
O    -5.1589360    1.6086540   -2.3419010  
C    -6.6095270   -0.2566310   -1.9020580  
O    -7.2996490   -0.0071060   -2.8789810  
C    -6.8285980   -1.4200140   -1.0482810  
H    -6.6566130   -3.4892260    1.1248460  
H    -7.6294100   -2.1027300   -1.3152740  
H    -4.6955350   -2.8139300    2.8328420  
H    -3.6343590   -0.6723250    2.0483100  
