62


C     3.9020750    0.5796020   -0.4722000  
C     4.5524360    1.7866880   -0.3063240  
C     3.5634650    2.7710730    0.0073930  
C     2.3074750    2.1060180    0.0313660  
N     2.5451730    0.7823170   -0.2633550  
C     1.0772830    2.7589320    0.2826300  
C     1.1802110    4.1323510    0.5004510  
O     0.0368820    4.8767730    0.7251760  
C     2.4205590    4.8146250    0.4947300  
O     2.3045160    6.1703940    0.7424660  
C     3.6109850    4.1566260    0.2584640  
H     5.6220810    1.9365120   -0.3616830  
H     1.8239800    0.0844430   -0.3672520  
H     0.3205720    5.7973240    0.8746940  
H     3.1837210    6.5761460    0.7581250  
H     4.5537040    4.6992640    0.2514610  
C    -0.2587260   -1.0652210    2.2331650  
C     0.4250240    0.0760500    1.8984800  
C    -0.3933030    0.8083400    0.9674120  
C    -1.5881920    0.0597260    0.8014080  
N    -1.4669270   -1.0802370    1.5664360  
C    -2.6503480    0.4671070   -0.0372170  
C    -2.4783890    1.7022340   -0.6685260  
O    -3.4798380    2.2238900   -1.4207030  
C    -1.2905180    2.4639120   -0.5205980  
O    -1.2913270    3.6317830   -1.2533370  
C    -0.2147290    2.0277390    0.2545860  
H     1.3872440    0.3748970    2.2881380  
H    -2.1794150   -1.7873960    1.6657590  
H    -3.1375810    3.0751690   -1.7568650  
H    -0.9323490    4.3445440   -0.6812820  
H     0.0243880   -1.8858580    2.8768420  
C    -5.7335270   -1.4247680    2.6199330  
C    -4.6510510   -0.7204270    2.2061200  
C    -4.6582670   -0.8329290    0.7493900  
C    -5.8640800   -1.6632140    0.4627040  
N    -6.4868210   -2.0066350    1.5570270  
C    -6.2600940   -1.9928550   -0.8825480  
C    -5.4920960   -1.5273730   -1.8926570  
O    -5.7332960   -1.7596710   -3.1942690  
C    -4.2425520   -0.7233580   -1.6406050  
O    -3.5477680   -0.4594870   -2.6155520  
C    -3.8661010   -0.3366130   -0.2390620  
H    -3.9453100   -0.1651190    2.8072190  
H    -7.1458900   -2.5935490   -1.0566780  
H    -4.9830320   -1.3432540   -3.6730100  
H    -6.0784760   -1.5745480    3.6364650  
C     5.4908470   -0.9998290   -1.6218200  
C     4.4335680   -0.7344730   -0.7989500  
C     3.9813740   -2.0273820   -0.2842650  
C     4.8694060   -3.0532230   -0.8863540  
N     5.7721140   -2.3601520   -1.6675690  
C     4.7620930   -4.3883190   -0.6644260  
C     3.7176600   -4.8627600    0.2389860  
O     3.5416570   -6.0439520    0.4956290  
C     2.7872760   -3.7904210    0.9139770  
O     1.9201780   -4.1589630    1.6920370  
C     2.9972570   -2.3777020    0.5837480  
H     5.4200100   -5.1233380   -1.1179040  
H     2.3404820   -1.6578700    1.0601990  
H     6.0826190   -0.3042790   -2.2016220  
H     6.4682930   -2.7872340   -2.2582880  
