58


C    -0.4874650    2.1075420   -0.1257910  
C    -1.0106100    3.3562140   -0.3062980  
C    -2.4396520    3.2498320   -0.1480840  
C    -2.7166460    1.8306740    0.1536850  
N    -1.4788990    1.1841970    0.2177460  
C    -3.9513990    1.2747330    0.3143100  
C    -5.0997590    2.2089100    0.2051690  
O    -6.2534770    1.8439860    0.3440020  
C    -4.8218280    3.7326640   -0.0751060  
O    -5.7797640    4.4848220   -0.1651550  
C    -3.4411180    4.1692010   -0.2340130  
H    -0.4542380    4.2661830   -0.4771420  
H    -3.2602610    5.2185220   -0.4438870  
H    -1.4006690    0.1990840   -0.0050840  
C     1.7579010    2.3096170   -1.1142520  
C     2.9646640    1.7078500   -1.0458000  
C     2.8743060    0.6310720   -0.0826110  
C     1.4808590    0.6517010    0.4228970  
N     0.8296440    1.6931530   -0.2519050  
C     1.0007250   -0.1767610    1.3833420  
C     1.8852780   -1.2113210    1.9045860  
O     1.5349880   -2.0118700    2.7556580  
C     3.3436690   -1.3084070    1.3336480  
O     4.0582480   -2.2055100    1.7385460  
C     3.7933640   -0.2937350    0.3390690  
H     3.8365460    1.9819380   -1.6182060  
H     0.0019810   -0.1089770    1.7951510  
H     1.4269070    3.1311600   -1.7333010  
C    -3.5080580   -0.8472100    1.6094770  
C    -4.1619010   -0.1418040    0.6357700  
C    -5.0828620   -1.0886100   -0.0034200  
C    -4.8884610   -2.3875300    0.6857050  
N    -3.9196080   -2.1675440    1.6488320  
C    -5.5515200   -3.5326620    0.3864200  
C    -6.5223040   -3.5047970   -0.7035620  
O    -7.1650280   -4.4832420   -1.0509320  
C    -6.7305080   -2.1458980   -1.4647430  
O    -7.5144300   -2.1041470   -2.3982660  
C    -5.9624820   -0.9706650   -1.0289250  
H    -5.3921860   -4.4695290    0.9113660  
H    -6.1482690   -0.0344150   -1.5420350  
H    -2.7771230   -0.4908170    2.3239360  
H    -3.6096490   -2.8513490    2.3222180  
C     6.5707410   -3.3398720   -1.4248120  
C     5.4589560   -2.7613690   -0.9167010  
C     5.8544890   -1.3976630   -0.5809200  
C     7.3009070   -1.3384540   -0.9764320  
N     7.7105500   -2.4691230   -1.4696270  
C     8.0853310   -0.1425740   -0.8185920  
C     7.4686710    0.9496030   -0.3140790  
O     8.0776340    2.1294770   -0.1093250  
C     6.0131210    0.9388650    0.0649200  
O     5.5453150    1.9867450    0.5069580  
C     5.1998820   -0.3072910   -0.0979060  
H     4.4889970   -3.2085140   -0.7622840  
H     9.1323240   -0.1381850   -1.1002650  
H     7.3909270    2.7212320    0.2670690  
H     6.6872780   -4.3543270   -1.7864290  
