60


C     0.5989610    3.9899170   -0.4612330  
C     1.5800580    4.9200200   -0.4660690  
C     2.8289600    4.2458920   -0.1809970  
C     2.4990290    2.8101940   -0.0161510  
N     1.1028430    2.7030160   -0.2003960  
C     3.4149250    1.8597210    0.2849470  
C     4.8073080    2.2698450    0.4780320  
O     5.6790720    1.4792770    0.8104140  
C     5.1828330    3.7771480    0.2684100  
O     6.3459770    4.1263390    0.3885330  
C     4.0986650    4.7095580   -0.0554930  
H     1.4545180    5.9765670   -0.6555780  
H     3.1589440    0.8166360    0.4016100  
H     4.3534740    5.7577980   -0.1779610  
H    -0.4587270    4.1083990   -0.6462040  
C     0.3030170    1.5852890   -0.0836770  
C    -1.0688950    1.5323450    0.0061730  
C    -1.3759760    0.1405020    0.1174440  
C    -0.0392380   -0.5434250    0.0669490  
N     0.9330670    0.3194410   -0.0540290  
C     0.1130600   -1.9829330    0.1312580  
C    -1.0453800   -2.6672250    0.3504800  
O    -1.0919790   -3.9865040    0.5251220  
C    -2.3973740   -1.9935270    0.4887390  
O    -3.3280320   -2.7628740    0.7844880  
C    -2.5554310   -0.5526310    0.2745420  
H    -1.7788120    2.3431080    0.0347460  
H    -2.0410600   -4.2028620    0.6704520  
C     4.2142110   -1.6114450    1.8836310  
C     2.8768030   -1.5210170    1.6554240  
C     2.5647900   -2.3901580    0.5437050  
C     3.8484400   -3.0342770    0.1613810  
N     4.8028710   -2.5246680    1.0196940  
C     3.9976290   -3.9450870   -0.8336330  
C     2.8169740   -4.3280650   -1.5928240  
O     2.8326310   -5.1660900   -2.4812050  
C     1.4547870   -3.6162980   -1.2589760  
O     0.4929910   -3.8551780   -1.9680740  
C     1.3997900   -2.6561890   -0.1269700  
H     2.1792790   -0.8961710    2.1901630  
H     4.9465110   -4.4104660   -1.0816920  
H     4.8245570   -1.0837440    2.6036340  
H     5.7950270   -2.6805160    0.9322040  
C    -4.3999120    2.2579590   -2.6981600  
C    -3.5580640    1.3956650   -2.0432780  
C    -4.2225370    0.9793860   -0.8392570  
C    -5.4885260    1.6268250   -0.8310250  
N    -5.5588660    2.4125510   -1.9635890  
C    -6.4458130    1.4231490    0.1656920  
C    -6.1266290    0.5168780    1.1662750  
O    -7.0179310    0.2558760    2.1590510  
C    -4.8779170   -0.1570350    1.1827730  
O    -4.7197500   -1.0003720    2.2628740  
C    -3.8908300    0.0784900    0.2183060  
H    -2.5808360    1.0904230   -2.3861040  
H    -6.3664030    2.9427280   -2.2510180  
H    -7.4130750    1.9152170    0.1678590  
H    -6.5951360   -0.4248910    2.7174810  
H    -4.3585450   -1.8446170    1.9164350  
H    -4.2692720    2.7793790   -3.6359380  
