60


C     1.3845740   -0.7064300   -2.1209450  
C     2.7326660   -0.5038680   -2.0293390  
C     3.0015060    0.0079870   -0.7129480  
C     1.7589480    0.0871380   -0.0385430  
N     0.7705510   -0.3482930   -0.9208930  
C     1.6408060    0.4944350    1.2946630  
C     2.8079450    0.8480000    1.9527070  
O     2.7527810    1.2611660    3.2491450  
C     4.0639600    0.7978630    1.2923950  
O     5.1088090    1.2229450    2.0852070  
C     4.1911010    0.3808180   -0.0324800  
H     3.4537340   -0.7051030   -2.8088280  
H     0.6930520    0.5388530    1.8189220  
H     3.6629470    1.4630480    3.5282800  
H     5.9510370    1.1239470    1.6145120  
H     0.7791110   -1.0594450   -2.9434700  
C    -1.3609290   -1.5714520   -0.6708310  
C    -0.6043530   -0.4391290   -0.6526770  
C    -1.5004780    0.6762530   -0.3743280  
C    -2.8433810    0.0846280   -0.2165050  
N    -2.6891090   -1.2721970   -0.3940870  
C    -4.0006210    0.7928710    0.0116320  
C    -3.8501010    2.2629680    0.1618730  
O    -4.7519770    2.9927480    0.5231420  
C    -2.4366060    2.9041640   -0.0888730  
O    -2.3354810    4.1191930   -0.0902800  
C    -1.2905180    2.0165550   -0.3050760  
H    -0.3105670    2.4642290   -0.4346820  
H    -1.0518170   -2.5913280   -0.8546470  
H    -3.4693780   -1.9073720   -0.4884720  
C    -5.2995700    0.1563710    0.1138050  
C    -5.6067470   -1.0777380    0.6382720  
C    -7.0316490   -1.2355210    0.4596280  
C    -7.4509180    0.0222630   -0.2405990  
N    -6.4486520    0.8273340   -0.4347660  
C    -8.8200520    0.2469060   -0.6283500  
C    -9.7263960   -0.7082350   -0.3142300  
O   -11.0328860   -0.6334190   -0.6020510  
C    -9.3359550   -1.9783350    0.4080280  
O   -10.2325970   -2.7879970    0.6454110  
C    -7.9327330   -2.1940740    0.7784820  
H    -4.9580940   -1.7411430    1.1950630  
H    -9.0958690    1.1620130   -1.1400880  
H   -11.4235480   -1.4646890   -0.2497450  
H    -7.6898480   -3.1221760    1.2869130  
C     5.8049590    0.9236260   -1.9123070  
C     5.5023510    0.3533660   -0.7078390  
C     6.7294110   -0.2985600   -0.2517650  
C     7.7579380   -0.0413200   -1.2919730  
N     7.1251210    0.6958290   -2.2739000  
C     9.0404060   -0.4788820   -1.2310400  
C     9.4528000   -1.2659800   -0.0708570  
O    10.5870420   -1.6935630    0.0739370  
C     8.3756570   -1.5748930    1.0318290  
O     8.6931280   -2.2502200    1.9971610  
C     7.0217070   -1.0360210    0.8552100  
H     9.7768950   -0.2795540   -2.0035190  
H     6.2848930   -1.2699500    1.6174310  
H     5.1581310    1.5006270   -2.5599750  
H     7.5690280    1.0478750   -3.1076710  
