60


C     3.1642790   -0.1398560    0.3696770  
C     1.8708090    0.2762660    0.1334050  
C     1.8308460    1.6986060    0.2750980  
C     3.1543120    2.1120780    0.5849990  
N     3.9462560    0.9833490    0.6203400  
C     3.5186390    3.4481140    0.7719780  
C     2.5241670    4.3990300    0.6081940  
O     2.8079110    5.7194330    0.7650860  
C     1.1979200    4.0257140    0.2642120  
O     0.3306760    5.0934280    0.1616530  
C     0.8136510    2.6857320    0.1183060  
H     1.0521140   -0.3737180   -0.1361030  
H     4.8905880    0.9537810    0.9730990  
H     4.5303880    3.7564730    1.0144680  
H     1.9723490    6.1907380    0.5836920  
H    -0.1620720    5.0066370   -0.6817190  
C    -1.9322260   -0.1563550    2.0621930  
C    -3.0561480   -0.0851040    1.2890040  
C    -2.7136850    0.9290170    0.2634100  
C    -1.3102220    1.3178360    0.5774720  
N    -0.8815970    0.6891050    1.6372590  
C    -0.5842400    2.3282260   -0.1928920  
C    -1.3254440    2.9474140   -1.1603360  
O    -0.8291740    3.9360370   -1.9595700  
C    -2.7351250    2.6191030   -1.4669760  
O    -3.2945810    3.2340010   -2.3801630  
C    -3.4177810    1.5636260   -0.6894030  
H    -1.5751620    4.1695920   -2.5597860  
H    -4.4596120    1.3713580   -0.9249660  
H    -1.7721890   -0.7926160    2.9243900  
C    -4.9093200   -1.1054200    2.6667970  
C    -4.3103950   -0.7766360    1.4815310  
C    -5.2122340   -1.3537210    0.4581830  
C    -6.3097680   -1.9818820    1.2515960  
N    -6.1158220   -1.8327400    2.5350200  
C    -7.4028860   -2.6692430    0.6207790  
C    -7.4001480   -2.7612250   -0.7319200  
O    -8.3545690   -3.3750210   -1.4475130  
C    -6.2911290   -2.1732080   -1.5575170  
O    -6.3478650   -2.3032950   -2.7779380  
C    -5.1798270   -1.4636510   -0.8827210  
H    -8.1900740   -3.1039960    1.2266480  
H    -8.0811860   -3.2871480   -2.3867370  
H    -4.3935670   -1.0700360   -1.5190820  
H    -4.5655190   -0.8434800    3.6605360  
C     3.0856750   -2.6131290    0.8127300  
C     3.7238820   -1.4799700    0.3939480  
C     5.0567040   -1.8975500   -0.0407370  
C     5.1260010   -3.3661020    0.1714330  
N     3.8911990   -3.7361040    0.6640450  
C     6.2150160   -4.1317920   -0.0935990  
C     7.4045090   -3.4851660   -0.6386870  
O     8.4333570   -4.0894680   -0.8998320  
C     7.3437390   -1.9370870   -0.9051580  
O     8.3205610   -1.3767570   -1.3754560  
C     6.1073440   -1.2195540   -0.5723200  
H     6.2439940   -5.2045740    0.0711990  
H     6.0772460   -0.1554220   -0.7836250  
H     2.0900100   -2.7088140    1.2243290  
H     3.6504010   -4.6655450    0.9708100  
