62


C    -1.0169270   -0.0179290    0.6944520  
C    -1.5771900    1.1656540    0.2694120  
C    -2.6618910    0.8039650   -0.6170970  
C    -2.6964530   -0.6083950   -0.6926220  
N    -1.6839050   -1.1027420    0.1296430  
C    -3.6368070   -1.3023170   -1.4626110  
C    -4.5501160   -0.5492270   -2.1821500  
O    -5.4877000   -1.1714020   -2.9520270  
C    -4.5235010    0.8703950   -2.1253940  
O    -5.4986010    1.4774790   -2.8934890  
C    -3.5972730    1.5498900   -1.3589880  
H    -3.6570280   -2.3829930   -1.5343360  
H    -6.0084550   -0.4763990   -3.3901620  
H    -5.3926760    2.4390620   -2.8456000  
H    -3.6068370    2.6347830   -1.3081670  
H    -0.1857660   -0.1881620    1.3649220  
C     2.4943110    2.8140490    0.0004730  
C     2.2058500    4.0828720    0.4820650  
C     0.8151020    4.1283160    0.7891880  
C     0.2799550    2.8478850    0.4820700  
N     1.3223920    2.0589030    0.0400170  
C    -1.0827500    2.5115180    0.6141390  
C    -1.9079530    3.5335690    1.0901080  
O    -3.2425750    3.3054620    1.2686020  
C    -1.3886860    4.8168900    1.4176360  
O    -2.3514250    5.6937530    1.8825310  
C    -0.0510070    5.1266550    1.2832560  
H     2.9317640    4.8693620    0.6373200  
H     1.1765270    1.2034800   -0.4776860  
H    -3.6240120    4.1244410    1.6313310  
H    -1.9340180    6.5324190    2.1286890  
H     0.3183810    6.1179710    1.5365170  
C     4.8340520    2.9090880   -0.9646810  
C     3.7399410    2.2609180   -0.4607850  
C     4.1426000    0.8315690   -0.4548170  
C     5.5190800    0.8393060   -1.0147800  
N     5.9098780    2.0557090   -1.2973210  
C     6.2732270   -0.3733380   -1.1745840  
C     5.7064270   -1.5380150   -0.7703360  
O     6.3050150   -2.7402660   -0.8618490  
C     4.3408990   -1.5737330   -0.1635330  
O     3.8900630   -2.6597750    0.2032090  
C     3.5795770   -0.3115590   -0.0210510  
H     7.2706040   -0.3376930   -1.5989610  
H     5.6589500   -3.3810760   -0.4934170  
H     2.6008000   -0.3863190    0.4422190  
H     4.9384790    3.9725190   -1.1419020  
C    -1.6378460   -3.2173860    3.8983570  
C    -1.2050300   -4.4298570    3.4672670  
C    -1.0303050   -4.3426680    2.0313450  
C    -1.4030270   -2.9566640    1.6643710  
N    -1.7462690   -2.3214710    2.8373300  
C    -1.3840140   -2.4566060    0.3937400  
C    -0.9435430   -3.3528750   -0.6883450  
O    -0.8315760   -2.9912350   -1.8465350  
C    -0.5926300   -4.8436780   -0.3144430  
O    -0.2992440   -5.6102900   -1.2173050  
C    -0.6421760   -5.2454330    1.0908800  
H    -1.0234710   -5.3015430    4.0786850  
H    -0.3728450   -6.2684900    1.3334380  
H    -1.8852070   -2.8921830    4.9001430  
H    -2.1029030   -1.3789330    2.8889470  
