58


C     2.7658520   -0.4649650   -2.1542970  
C     3.2111920   -0.5866570   -0.8620030  
C     3.5108970   -2.0114650   -0.6681530  
C     3.1923600   -2.6786090   -1.9547850  
N     2.7434520   -1.6790660   -2.8040040  
C     3.3258980   -4.0045770   -2.2017230  
C     3.8044760   -4.8648280   -1.1215540  
O     3.9618730   -6.0682680   -1.2474630  
C     4.1141280   -4.1922890    0.2624930  
O     4.4864250   -4.8894820    1.1913060  
C     3.9429610   -2.7378780    0.3928810  
H     3.0869830   -4.4614610   -3.1571560  
H     4.1992080   -2.2940190    1.3469810  
H     2.4833270    0.4382470   -2.6787540  
H     2.5404090   -1.8079790   -3.7837960  
C     0.6648430    2.9860110    0.0498970  
C     1.0775480    1.7583360   -0.4141770  
C     2.3834330    1.5348060    0.1653990  
C     2.6063200    2.7399360    1.0113750  
N     1.6191330    3.5869580    0.9311280  
C     3.7881010    2.8975310    1.8195330  
C     4.7092160    1.9092760    1.7777560  
O     5.8492750    1.9133410    2.4845300  
C     4.5359130    0.6900760    0.9082990  
O     5.4471190   -0.1353660    0.9260230  
C     3.3143800    0.5351600    0.0661210  
H     0.5759570    1.1262060   -1.1344380  
H     3.9141360    3.7838570    2.4308210  
H     6.3198120    1.0878080    2.2355820  
C    -3.4417290    1.4472240   -0.1856150  
C    -4.0930320    2.6210510   -0.4574220  
C    -3.1075640    3.6714450   -0.4955810  
C    -1.8013190    3.0255700   -0.2466260  
N    -2.0703120    1.6893530   -0.0421410  
C    -0.5914510    3.6719300   -0.2038500  
C    -0.6190560    5.1365510   -0.4464710  
O     0.3874610    5.8065630   -0.5716020  
C    -2.0111470    5.8461460   -0.6177820  
O    -2.0412110    7.0622770   -0.7159990  
C    -3.2154060    5.0187190   -0.6723700  
H    -5.1614500    2.7432950   -0.5600280  
H    -4.1666510    5.5158190   -0.8355470  
H    -1.3564590    0.9824050    0.0530220  
C    -3.9789680    0.1176040   -0.0128050  
C    -5.1167610   -0.4250560   -0.5421950  
C    -5.2115690   -1.7898430   -0.0867150  
C    -4.0273050   -2.0185620    0.7743600  
N    -3.2719910   -0.8459730    0.7326720  
C    -3.7821380   -3.1667090    1.4474680  
C    -4.7272970   -4.2762420    1.2948580  
O    -4.5872120   -5.3464040    1.8624480  
C    -5.9637980   -4.0719630    0.3460440  
O    -6.7515910   -4.9911070    0.1920470  
C    -6.1265920   -2.7714460   -0.3111990  
H    -5.7896050    0.0664030   -1.2304260  
H    -2.9161800   -3.3169980    2.0848750  
H    -6.9953520   -2.6321760   -0.9472620  
H    -2.6875400   -0.5804390    1.5152640  
