60


C     2.3746800   -1.7638210   -0.2036470  
C     3.4252930   -0.8924270   -0.0215900  
C     4.6403940   -1.6586720   -0.0457000  
C     4.2412280   -3.0727900   -0.2593890  
N     2.8708950   -3.0697450   -0.3507210  
C     5.1146450   -4.1111060   -0.3382290  
C     6.5393880   -3.8328760   -0.2069570  
O     7.3994930   -4.7002410   -0.2636390  
C     6.9861470   -2.3405210    0.0185670  
O     8.1773530   -2.0889850    0.1308770  
C     5.9512460   -1.3083740    0.0857420  
H     3.3258480    0.1710900    0.1252930  
H     4.8048870   -5.1398260   -0.4948040  
H     6.2697700   -0.2819750    0.2410200  
H     2.2811070   -3.8797270   -0.4665590  
C     0.2184870    2.0468350    0.0519970  
C    -1.0854230    1.6145090   -0.0889540  
C    -1.0286400    0.1892940   -0.2251790  
C     0.4282660   -0.1209850   -0.1585110  
N     1.1403290    0.9521000   -0.0005420  
C     0.9508550   -1.4883080   -0.2508760  
C    -0.0117810   -2.4556070   -0.3589590  
O     0.2508290   -3.7752190   -0.4391090  
C    -1.4842950   -2.1743440   -0.3984420  
O    -2.2101760   -3.1730310   -0.4945410  
C    -1.9908220   -0.7904110   -0.3528910  
H    -1.9835450    2.2037110    0.0235400  
H    -0.6392400   -4.1996910   -0.5092770  
C    -3.9557920    0.5618890   -1.1557750  
C    -3.4088470   -0.5204700   -0.5124700  
C    -4.5942220   -1.2660610   -0.0222000  
C    -5.7519000   -0.4407890   -0.4763190  
N    -5.3596040    0.6134170   -1.1474370  
C    -7.1115850   -0.8001810   -0.1871220  
C    -7.3282380   -1.9226450    0.5410350  
O    -8.5398590   -2.3756200    0.8899310  
C    -6.1856340   -2.7688410    1.0309050  
O    -6.4565080   -3.7682440    1.6923210  
C    -4.7949560   -2.3806170    0.7059000  
H    -7.9226400   -0.1744820   -0.5424140  
H    -8.3769600   -3.1939770    1.4091960  
H    -4.0080320   -3.0369550    1.0550500  
H    -3.4127610    1.3320450   -1.6892640  
C    -1.4271800    5.8449520   -1.4487480  
C    -0.4805340    6.6792620   -0.9147980  
C     0.4527290    5.8527940   -0.2058830  
C     0.0110670    4.5136060   -0.3329190  
N    -1.1416850    4.5415940   -1.0857530  
C     0.7139020    3.3978660    0.2004280  
C     1.9132450    3.7070540    0.8834450  
O     2.6442110    2.7395290    1.4833160  
C     2.3516060    5.0503770    1.0209810  
O     3.5276590    5.1676110    1.7351500  
C     1.6445080    6.1145200    0.4982070  
H    -0.4474120    7.7550480   -1.0167180  
H    -1.5999490    3.7197650   -1.4481860  
H     3.4026470    3.1787850    1.9105430  
H     3.7739910    6.1005310    1.8178500  
H     2.0076200    7.1324680    0.6235990  
H    -2.2959030    6.0665680   -2.0520310  
