60


C    -0.7646840    0.7757870    0.7884750  
C    -1.9849650    0.7342970    0.1438920  
C    -2.0805330    1.9516910   -0.6364590  
C    -0.8912120    2.6824960   -0.4116500  
N    -0.0940510    1.9395220    0.4672910  
C    -0.6161190    3.8948410   -1.0511560  
C    -1.5700970    4.3849690   -1.9288170  
O    -1.3543080    5.5642390   -2.5716870  
C    -2.7676690    3.6607870   -2.1751410  
O    -3.6058910    4.2670250   -3.0844350  
C    -3.0296100    2.4566560   -1.5472500  
H     0.2883250    4.4627390   -0.8729110  
H    -2.1294410    5.7400270   -3.1326630  
H    -4.3968140    3.7239230   -3.2190080  
H    -3.9339130    1.9011270   -1.7829200  
H    -0.3546370    0.0945840    1.5203130  
C     3.5875180   -0.3498570    0.2928650  
C     4.3912710    0.5209620    0.9941750  
C     3.6050440    1.6724530    1.3451060  
C     2.2520420    1.4185890    0.8020600  
N     2.3037250    0.1981660    0.1792970  
C     1.1950850    2.2753010    0.9401300  
C     1.4120920    3.5255870    1.6854150  
O     0.5238800    4.3284440    1.9107830  
C     2.8640140    3.8250040    2.2178650  
O     3.0660850    4.8905290    2.7768810  
C     3.9055580    2.8190090    2.0184770  
H     5.4159760    0.3499080    1.2838440  
H     4.8938540    3.0265590    2.4161340  
H     1.5215740   -0.3169640   -0.2011560  
C     7.3645360   -2.4682760   -0.8467820  
C     6.5042820   -1.4794500   -0.4914390  
C     5.1864040   -2.0894350   -0.5238020  
C     5.4590170   -3.5019880   -0.9510300  
N     6.7314960   -3.7180490   -1.1211710  
C     4.4049170   -4.4599810   -1.1385110  
C     3.1319510   -4.0411340   -0.9535920  
O     2.0572890   -4.8236450   -1.1306240  
C     2.8149220   -2.6313260   -0.5458780  
O     1.6201960   -2.3346320   -0.4697010  
C     3.9156660   -1.6574260   -0.2549280  
H     6.7432870   -0.4484630   -0.2811520  
H     4.6400800   -5.4740170   -1.4414070  
H     1.2717470   -4.2626780   -0.9601420  
H     8.4411280   -2.4028560   -0.9500060  
C    -2.9497250   -0.3297820    0.2756710  
C    -2.7626700   -1.6632170    0.5445060  
C    -4.0500440   -2.2968650    0.6135850  
C    -5.0459290   -1.2239060    0.3671150  
N    -4.3211080   -0.0690880    0.1076790  
C    -6.3883600   -1.4024480    0.4035060  
C    -6.9042150   -2.7459880    0.6651330  
O    -8.0985120   -2.9987290    0.7072880  
C    -5.8678200   -3.9081740    0.8855160  
O    -6.2880140   -5.0380260    1.0942560  
C    -4.4462760   -3.5819240    0.8417040  
H    -1.8040790   -2.1565070    0.6229560  
H    -7.1038360   -0.6034430    0.2331190  
H    -3.7403520   -4.3885300    1.0156450  
H    -4.7054650    0.8555810    0.2430040  
