58


C    -0.9759200   -1.7946030   -0.5057390  
C    -2.3234110   -1.8040830   -0.3731900  
C    -2.7178170   -0.5491820    0.2289340  
C    -1.4640560    0.2101370    0.4399810  
N    -0.4285300   -0.5862530   -0.0406780  
C    -1.3943270    1.4433440    1.0172320  
C    -2.6365920    2.0866950    1.4121580  
O    -2.6868950    3.1992820    1.9142340  
C    -3.9860390    1.3171970    1.1711480  
O    -5.0245050    1.8652920    1.4960850  
C    -3.9459730   -0.0496710    0.5883790  
H    -2.9833460   -2.5982860   -0.6870880  
H    -0.4632570    1.9528740    1.2364030  
H    -0.3150580   -2.5479110   -0.9059440  
C     1.7238860    2.9134250   -1.5114460  
C     2.9838260    2.5435740   -1.1659710  
C     2.9050500    1.2429190   -0.5363190  
C     1.4746040    0.8817540   -0.5510120  
N     0.8127510    1.9220490   -1.1557140  
C     0.9506280   -0.2871760   -0.0503040  
C     1.8925090   -1.2825700    0.4408030  
O     1.5616710   -2.3945210    0.8260380  
C     3.4281890   -0.9269280    0.4418040  
O     4.1853570   -1.7905740    0.8474930  
C     3.8828510    0.4041540   -0.0317960  
H     3.8842920    3.1026550   -1.3651690  
H     1.3777490    3.8082300   -2.0102150  
H    -0.1920440    2.0143110   -1.1903970  
C    -5.3038990   -2.1388400    0.9006260  
C    -5.1778460   -0.8360120    0.4996110  
C    -6.4905810   -0.4449060   -0.0286910  
C    -7.3625120   -1.6385900    0.1011500  
N    -6.5770010   -2.6252910    0.6701030  
C    -8.6625920   -1.6999320   -0.2813010  
C    -9.2617420   -0.5155400   -0.8880360  
O   -10.4219820   -0.4724060   -1.2668590  
C    -8.3520800    0.7525670   -1.0668650  
O    -8.8185770    1.7449950   -1.6017110  
C    -6.9638680    0.6966070   -0.5880090  
H    -9.2764210   -2.5883310   -0.1683830  
H    -6.3684330    1.5964630   -0.6833490  
H    -4.5611640   -2.7696310    1.3709030  
H    -6.9121090   -3.5320330    0.9571490  
C     5.7321490    2.0629470    0.3905750  
C     5.2725740    0.8002380    0.1014690  
C     6.5179110    0.0070860   -0.0568440  
C     7.6079670    1.0024580    0.1608270  
N     7.1300030    2.1911570    0.4336630  
C     8.9976650    0.6524000    0.0744270  
C     9.3087430   -0.6302000   -0.2340960  
O    10.5584220   -1.0975770   -0.3554440  
C     8.2370480   -1.6567920   -0.4767230  
O     8.5929110   -2.7967450   -0.7653430  
C     6.8123580   -1.2706800   -0.3627890  
H     9.7561220    1.4078530    0.2464250  
H    10.4633940   -2.0485110   -0.5850380  
H     6.0784330   -2.0530850   -0.5074500  
H     5.1278470    2.9310170    0.6246370  
