62


C    -1.2526900   -0.9066160   -0.2618490  
C     0.0101410   -1.4201490   -0.4690940  
C     0.9291650   -0.3223960   -0.4525450  
C     0.1615930    0.8533260   -0.2510230  
N    -1.1710990    0.4848820   -0.1803970  
C     0.7242930    2.1450420   -0.1647920  
C     2.1274080    2.1879800   -0.2016190  
O     2.7791860    3.3659350   -0.0166900  
C     2.9067190    1.0244950   -0.4242130  
O     4.2587600    1.2967720   -0.5113710  
C     2.3410060   -0.2393130   -0.5734950  
H     0.2429410   -2.4625150   -0.6337800  
H    -1.7767130    1.0285150    0.4358250  
H     3.7314070    3.1775080   -0.0973830  
H     4.7709640    0.4732190   -0.5238130  
C    -2.5286990   -1.5748980   -0.1583940  
C    -2.8408580   -2.8760320    0.1844340  
C    -4.2633930   -3.0116700    0.1221970  
C    -4.7856700   -1.7479070   -0.2672050  
N    -3.7156970   -0.8848350   -0.4010080  
C    -6.1544200   -1.5176400   -0.4436340  
C    -7.0173370   -2.5791030   -0.2144940  
O    -8.3629130   -2.4090990   -0.3740200  
C    -6.5160450   -3.8451490    0.1897550  
O    -7.5004320   -4.7971560    0.3854490  
C    -5.1632240   -4.0709630    0.3614580  
H    -2.1279620   -3.6292060    0.4908780  
H    -3.7508890    0.0088840   -0.8682550  
H    -6.5568740   -0.5557750   -0.7448250  
H    -8.7857770   -3.2592050   -0.1627250  
H    -7.0917830   -5.6295770    0.6647210  
H    -4.8037320   -5.0507340    0.6703250  
C     2.9563360   -2.3442300   -1.8421240  
C     3.1624310   -1.4319900   -0.8455460  
C     4.3391640   -1.8959740   -0.1133910  
C     4.7974460   -3.1374620   -0.7888570  
N     3.9072120   -3.3553220   -1.8212320  
C     5.8755940   -3.8674500   -0.4082770  
C     6.6476800   -3.4190240    0.7482270  
O     7.6395350   -4.0042370    1.1537740  
C     6.1649000   -2.1261670    1.5010330  
O     6.7804590   -1.7493670    2.4849210  
C     4.9855720   -1.4193140    0.9874580  
H     6.1919870   -4.7737490   -0.9156760  
H     4.6486310   -0.5441430    1.5349620  
H     2.1807420   -2.3451330   -2.5964540  
H     3.9573520   -4.1205570   -2.4753710  
C    -2.7301680    3.3267750    2.3792740  
C    -2.8320030    4.6472190    2.1105640  
C    -1.8290210    4.9067100    1.0851840  
C    -1.1581510    3.5791290    0.8714840  
N    -1.7159580    2.6643240    1.6177650  
C    -0.0590470    3.3983040   -0.0665120  
C     0.2065130    4.4849060   -0.8587480  
O     1.0952090    4.4791080   -1.8578040  
C    -0.4731030    5.8155000   -0.6891800  
O    -0.1404980    6.7257870   -1.4483130  
C    -1.5054850    5.9837880    0.3465260  
H    -3.5142020    5.3682690    2.5385490  
H     1.0819090    5.3931880   -2.2213370  
H    -1.9723780    6.9597030    0.4367340  
H    -3.3111280    2.7376510    3.0785520  
