60


C    -2.2326180    1.2271360    2.8752200  
C    -1.0890020    1.0422520    2.1396390  
C    -1.4786340    0.4758810    0.8730890  
C    -2.8923010    0.3592440    0.9023730  
N    -3.3212370    0.8208190    2.1313770  
C    -3.6626840   -0.1284880   -0.1728600  
C    -2.9434920   -0.4738140   -1.3171400  
O    -3.5997110   -0.8947850   -2.4244800  
C    -1.5274010   -0.3635850   -1.3790560  
O    -1.0011980   -0.7608380   -2.5826510  
C    -0.7615650    0.0654360   -0.2913070  
H    -0.0924980    1.3228600    2.4493400  
H    -4.2773140    0.7947610    2.4506720  
H    -2.9081330   -1.0638130   -3.0940750  
H    -0.2950630   -0.1111640   -2.8177470  
H    -2.3642590    1.6343770    3.8676780  
C     2.0985140   -1.5176140    2.6124930  
C     3.2734720   -1.1253150    2.0544810  
C     2.9540870   -0.4613180    0.8059830  
C     1.4770510   -0.4883770    0.6933710  
N     1.0270810   -1.1662030    1.8025330  
C     0.7199460    0.0652500   -0.3171710  
C     1.4913960    0.6151880   -1.4246980  
O     0.9914480    1.0017610   -2.4831220  
C     3.0601020    0.6953760   -1.3287110  
O     3.6617200    1.1432330   -2.2855020  
C     3.7451770    0.1378450   -0.1387490  
H     4.2599380   -1.2669930    2.4689270  
H     1.9190900   -2.0378810    3.5440030  
H     0.0514060   -1.2242320    2.0590490  
C     6.9044490   -2.9364450    0.1638760  
C     7.9986200   -2.1332690    0.1636100  
C     7.5292430   -0.7650320    0.0871940  
C     6.0483060   -0.8392490    0.0476790  
N     5.7353590   -2.1829050    0.1117410  
C     5.2097680    0.2348770   -0.0638760  
C     5.8450600    1.5715120   -0.0906170  
O     5.1992990    2.6040820   -0.0661260  
C     7.4139460    1.6640420   -0.0840880  
O     7.9347380    2.7651050   -0.1646810  
C     8.1832360    0.4260750    0.0274770  
H     9.0299180   -2.4516830    0.2057610  
H     9.2661570    0.5023890    0.0389830  
H     6.8440840   -4.0161340    0.2015750  
H     4.8008460   -2.5538290    0.0373340  
C    -6.7816450    2.9222320    0.2844320  
C    -7.8889760    2.1358540    0.2679460  
C    -7.4437300    0.7649710    0.1238660  
C    -5.9635960    0.8206520    0.0618360  
N    -5.6226010    2.1564380    0.2022600  
C    -5.1347770   -0.2493010   -0.1129700  
C    -5.7836350   -1.5753880   -0.2109870  
O    -5.1536100   -2.6147450   -0.2898850  
C    -7.3561500   -1.6528610   -0.1631820  
O    -7.8894150   -2.7454060   -0.2803390  
C    -8.1117130   -0.4159090    0.0247410  
H    -8.9138290    2.4686970    0.3450100  
H    -9.1947910   -0.4838470    0.0575580  
H    -6.7070010    3.9989370    0.3640910  
H    -4.6976600    2.5161260    0.0173890  
