62


C     2.6536290   -0.5338500   -1.7619370  
C     1.3996670   -0.3370180   -1.2600190  
C     1.5004190    0.6023730   -0.1719470  
C     2.8646290    0.9615810   -0.0595640  
N     3.5540500    0.2435470   -1.0336410  
C     3.3492730    1.8953180    0.8558800  
C     2.4091370    2.5105850    1.6692080  
O     2.8008240    3.4429630    2.5730890  
C     1.0261750    2.1958880    1.5761540  
O     0.2512280    2.8896600    2.4706510  
C     0.5449510    1.2177440    0.6943970  
H     0.5016110   -0.8153790   -1.6215370  
H     4.3980660    2.1590390    0.9336320  
H     1.9828250    3.7588470    3.0032930  
H    -0.5697380    3.1570230    1.9983620  
H     3.0119680   -1.1591850   -2.5664400  
C    -1.5390260   -2.7138890    0.8564010  
C    -0.5787200   -1.7641030    0.8747680  
C    -1.2739310   -0.5048560    0.6255110  
C    -2.6994650   -0.9018980    0.4347450  
N    -2.8413780   -2.1909800    0.5872780  
C    -3.7520980    0.0636120    0.1256530  
C    -3.3738210    1.3739450    0.2763960  
O    -4.2365460    2.4026490    0.2055870  
C    -1.9819490    1.7896750    0.5749120  
O    -1.7986420    3.0047760    0.7759430  
C    -0.8692330    0.7954680    0.6383330  
H     0.4760790   -1.8831940    1.0707830  
H    -3.7015710    3.2073240    0.3720800  
H    -1.4361920   -3.7784340    1.0267610  
C    -6.6969500   -2.9721960    1.6117520  
C    -7.7530370   -2.5847890    0.8282500  
C    -7.2746440   -1.5326230   -0.0208390  
C    -5.9122850   -1.3122170    0.3167150  
N    -5.5962790   -2.1857900    1.3347790  
C    -5.1152400   -0.3107650   -0.2961450  
C    -5.7299650    0.3772680   -1.3607150  
O    -5.0159800    1.2577700   -2.1103820  
C    -7.0853800    0.1522850   -1.7090190  
O    -7.5213020    0.9379050   -2.7627810  
C    -7.8681470   -0.7668640   -1.0421730  
H    -8.7531780   -2.9955670    0.8502530  
H    -4.6279360   -2.4542710    1.4915260  
H    -5.6304370    1.6376430   -2.7631780  
H    -8.4350470    0.7049760   -2.9826570  
H    -8.9103310   -0.9124790   -1.3198300  
H    -6.6348390   -3.7510040    2.3591010  
C     5.4867820    1.2652570   -2.1538490  
C     6.8277060    1.0851880   -2.1985250  
C     7.1539080   -0.0209320   -1.3165910  
C     5.8731900   -0.4879760   -0.7351270  
N     4.8936330    0.3380140   -1.2824420  
C     5.7413280   -1.5138920    0.1382070  
C     6.9533580   -2.2237130    0.5476370  
O     6.9422210   -3.1638580    1.3257500  
C     8.3291710   -1.7473330   -0.0494970  
O     9.3505560   -2.3271520    0.2816870  
C     8.3280840   -0.6197290   -0.9884560  
H     7.5313760    1.6600500   -2.7831210  
H     4.7871750   -1.8303520    0.5454570  
H     9.2833390   -0.3013170   -1.3947830  
H     4.8526670    1.9797710   -2.6609690  
