62


C    -1.2058340    0.9938740    1.7391400  
C    -2.5387820    1.1954040    1.5161420  
C    -2.9051660    0.4031880    0.3720340  
C    -1.7437580   -0.2758830   -0.0694570  
N    -0.7159580    0.1056450    0.7847970  
C    -1.7268380   -1.1655650   -1.1459990  
C    -2.9287900   -1.3739120   -1.8068700  
O    -2.9861370   -2.2290070   -2.8608060  
C    -4.1123980   -0.6915760   -1.4139960  
O    -5.2051280   -0.9400730   -2.2149020  
C    -4.1079970    0.1935200   -0.3376830  
H    -3.1896490    1.8249340    2.1061860  
H    -0.8305980   -1.6867740   -1.4620930  
H    -3.9124810   -2.2407110   -3.1642090  
H    -6.0245610   -0.9415400   -1.6866730  
H    -0.5384600    1.3905690    2.4899760  
C     1.0783590   -1.4665640    1.3511070  
C     2.4051960   -1.5912470    1.0513330  
C     2.7622140   -0.4987070    0.1850570  
C     1.5965600    0.2813450   -0.0094100  
N     0.5783750   -0.3340410    0.7111600  
C     1.5619480    1.4473160   -0.7757890  
C     2.7527360    1.8347710   -1.3736960  
O     2.7849160    2.9491810   -2.1555270  
C     3.9364600    1.0769210   -1.1947270  
O     5.0306950    1.5935590   -1.8691560  
C     3.9803250   -0.0846470   -0.4205230  
H     3.0608970   -2.3693590    1.4143050  
H     0.6597060    2.0296020   -0.9239860  
H     3.6834140    3.0120930   -2.5252580  
H     5.6714170    0.8832820   -2.0311540  
H     0.4211210   -2.0706760    1.9591550  
C    -5.4238510    2.2944740    0.0196320  
C    -6.6899450    2.6762750    0.3125100  
C    -7.4654740    1.4706480    0.5192850  
C    -6.5221680    0.3390870    0.3279780  
N    -5.2919280    0.8952590    0.0242430  
C    -6.8667990   -0.9754450    0.4468640  
C    -8.2503410   -1.3041210    0.7863130  
O    -8.6440050   -2.4497140    0.9385800  
C    -9.2678850   -0.1202120    0.9685160  
O   -10.4341270   -0.3735660    1.2221370  
C    -8.7691700    1.2533110    0.8301650  
H    -7.0574680    3.6903700    0.3726100  
H    -6.1471250   -1.7869430    0.3876010  
H    -9.4778590    2.0618080    0.9828740  
H    -4.5544330    2.8936200   -0.2142510  
C     5.3964650   -2.2034590   -0.3176200  
C     5.2213780   -0.8520920   -0.2498870  
C     6.5571250   -0.3453680    0.1423410  
C     7.4012970   -1.5735050    0.2470180  
N     6.7159400   -2.6482630   -0.0275120  
C     8.7911290   -1.5065230    0.6152670  
C     9.3156470   -0.2891530    0.8949360  
O    10.5915080   -0.0816490    1.2574860  
C     8.4855370    0.9626620    0.8205130  
O     9.0313020    2.0305900    1.0893690  
C     7.0624870    0.8713960    0.4237300  
H     9.3793940   -2.4155930    0.6735340  
H    10.6723110    0.8877210    1.3939810  
H     6.5018040    1.7987810    0.3692240  
H     4.6473570   -2.9432390   -0.5734090  
