62


C     1.4657390   -0.6552900    1.8780180  
C     0.7055660   -0.0369530    0.9121770  
C     1.6059850    0.4991070   -0.0762630  
C     2.9122670    0.1634820    0.3521900  
N     2.7956060   -0.5392350    1.5377550  
C     4.0779060    0.5416580   -0.3488390  
C     3.8784260    1.2803900   -1.5157190  
O     4.9475430    1.6411450   -2.2699200  
C     2.5704250    1.6238000   -1.9560070  
O     2.5609990    2.3461450   -3.1295830  
C     1.4396820    1.2463660   -1.2586830  
H     3.5731000   -0.8163400    2.1173120  
H     4.6193550    2.1923330   -3.0017450  
H     1.6482810    2.5390910   -3.3908220  
H     0.4494340    1.5143990   -1.6178060  
H     1.1553840   -1.1782390    2.7710020  
C    -1.4545450    0.7028580    1.9245850  
C    -2.7857840    0.6044170    1.6837740  
C    -2.9465490   -0.1293670    0.4426910  
C    -1.5772100   -0.4649430   -0.0115570  
N    -0.7017740    0.0783510    0.9235490  
C    -1.2814970   -1.2012330   -1.1157030  
C    -2.3846740   -1.6827000   -1.9297190  
O    -2.2348550   -2.3920730   -2.9149490  
C    -3.8449830   -1.2560050   -1.5300850  
O    -4.7490740   -1.5038490   -2.3058620  
C    -4.0607150   -0.5180070   -0.2528320  
H    -3.5811500    0.9889950    2.3041740  
H    -0.2681530   -1.4632490   -1.3985390  
H    -0.9312400    1.1787550    2.7432540  
C    -6.0225110    3.3973580    0.4880280  
C    -7.2743070    2.9210350    0.7757600  
C    -7.2099740    1.4885990    0.6962840  
C    -5.8742360    1.1500180    0.3562750  
N    -5.1749380    2.3335060    0.2345920  
C    -5.4378520   -0.1789800    0.1562080  
C    -6.4028150   -1.1742430    0.3322760  
O    -6.0474080   -2.4832110    0.2161410  
C    -7.7390500   -0.8510780    0.6798850  
O    -8.5564660   -1.9578500    0.8275870  
C    -8.1524750    0.4548100    0.8601540  
H    -8.1436760    3.5188560    1.0128400  
H    -4.1991450    2.4034230   -0.0063630  
H    -6.8646130   -3.0089350    0.2666480  
H    -9.4772950   -1.6685500    0.9065090  
H    -9.1845920    0.6746520    1.1260640  
H    -5.6544360    4.4126530    0.4425850  
C     6.0012320   -3.3574130    0.2484520  
C     7.2157880   -2.9567820    0.7049130  
C     7.2054680   -1.5087800    0.7479520  
C     5.8618810   -1.0950330    0.2758360  
N     5.1677110   -2.2658770    0.0209980  
C     5.4349110    0.1928370    0.1254860  
C     6.3946320    1.2536350    0.5021650  
O     6.1105980    2.4378660    0.4869980  
C     7.8334960    0.8334300    0.9851330  
O     8.6369410    1.7123080    1.2555830  
C     8.1468150   -0.5904040    1.0944630  
H     8.0402880   -3.5970120    0.9829110  
H     9.1408020   -0.8657750    1.4333840  
H     5.6322710   -4.3587870    0.0688810  
H     4.2866770   -2.2968770   -0.4702970  
