58


C     5.6023520   -0.3572630   -2.2161290  
C     6.8777490   -0.7849470   -2.3716560  
C     7.5407490   -0.6483670   -1.0924620  
C     6.5317730   -0.0898530   -0.1602530  
N     5.3549060    0.0751490   -0.9040700  
C     6.7589740    0.1345750    1.1555070  
C     8.0894660   -0.1589660    1.6924910  
O     8.3763520    0.0043200    2.8674920  
C     9.1822730   -0.7177990    0.7126130  
O    10.2989150   -0.9591640    1.1427970  
C     8.8026720   -0.9421130   -0.6842270  
H     7.3243500   -1.1448350   -3.2874280  
H     6.0174100    0.5365550    1.8354250  
H     9.5530840   -1.3541950   -1.3520480  
H     4.8060870   -0.2856140   -2.9446500  
C     1.3310780   -1.6059910   -1.1285070  
C     2.6727960   -1.4149500   -1.1843300  
C     2.9496020   -0.1051880   -0.6493270  
C     1.6440250    0.4757140   -0.2698210  
N     0.6749440   -0.4764090   -0.6205860  
C     1.4887900    1.6586730    0.3741130  
C     2.6811310    2.4508250    0.6606300  
O     2.6480980    3.5041060    1.2746220  
C     4.0715880    1.9264590    0.1561760  
O     5.0502140    2.6416730    0.2612030  
C     4.1219870    0.5750810   -0.4485530  
H     3.3984810   -2.1321990   -1.5376050  
H     0.5323220    2.0552050    0.6851160  
H     0.7480320   -2.4714260   -1.4015880  
C    -1.9950080   -3.3892280    1.0626780  
C    -3.1828180   -2.7340330    1.0221570  
C    -2.8997360   -1.4494560    0.4022740  
C    -1.4365200   -1.5010690    0.1452780  
N    -0.9173160   -2.6381840    0.5129170  
C    -0.7126230   -0.3822860   -0.4369030  
C    -1.4410450    0.7273030   -0.7590920  
O    -0.9067130    1.8254580   -1.3248640  
C    -2.8939040    0.8189020   -0.4802890  
O    -3.4368100    1.9007520   -0.7403710  
C    -3.6530150   -0.3617810    0.0473990  
H    -4.1275640   -3.0688960    1.4220760  
H    -1.6442040    2.4695310   -1.4026770  
H    -1.7881930   -4.3732320    1.4644840  
C    -5.1026700   -0.2943930    0.1250820  
C    -6.0033260   -1.3396120    0.1703310  
C    -7.3272340   -0.7828960    0.1880100  
C    -7.1567820    0.6894690    0.1415940  
N    -5.7969410    0.9166860    0.1226470  
C    -8.1837110    1.5762720    0.1228210  
C    -9.5498960    1.0596490    0.1571280  
O   -10.5362150    1.7786880    0.1435260  
C    -9.7531680   -0.4987690    0.2148840  
O   -10.8853220   -0.9531750    0.2457500  
C    -8.5624500   -1.3569460    0.2259690  
H    -5.7622890   -2.3902810    0.1335110  
H    -8.0429610    2.6518290    0.0863340  
H    -8.7132850   -2.4316360    0.2621770  
H    -5.3371850    1.7951320   -0.0742480  
