58


C     3.0902510    1.0405650   -1.3452380  
C     1.7326700    1.0489020   -1.2814680  
C     1.3423710   -0.0289670   -0.4102370  
C     2.5900250   -0.6885080    0.0294000  
N     3.6374730    0.0193910   -0.5654250  
C     2.6494700   -1.7505340    0.8724980  
C     1.3999870   -2.3131890    1.3594720  
O     1.3327550   -3.2837610    2.0963260  
C     0.0498190   -1.6466690    0.9043480  
O    -1.0009600   -2.1289730    1.3108470  
C     0.1155220   -0.4667110    0.0231090  
H     1.0727360    1.7246700   -1.8037460  
H     3.5748140   -2.2188990    1.1836800  
H     3.7538720    1.6771610   -1.9145850  
C     6.9652580    2.5524320    0.7265280  
C     5.7254180    2.0612580    0.4501980  
C     5.9009300    0.7105330   -0.0257650  
C     7.3610010    0.4474570   -0.0082310  
N     7.9463040    1.6139870    0.4501410  
C     7.9450100   -0.7246920   -0.3618120  
C     7.0850850   -1.8165290   -0.8057830  
O     7.5040000   -2.9218520   -1.1046900  
C     5.5362060   -1.5561100   -0.9051560  
O     4.8171150   -2.4233400   -1.3675900  
C     5.0196040   -0.2497840   -0.4461000  
H     4.7897780    2.5829060    0.5839640  
H     9.0160940   -0.8956930   -0.3259240  
H     7.2421040    3.5238890    1.1143720  
H     8.9345740    1.7389540    0.6058800  
C    -2.2656800   -0.5190820   -0.5436000  
C    -3.3899270    0.2337940   -0.3938770  
C    -2.9355310    1.5757210   -0.0247010  
C    -1.4565330    1.4997700    0.0816140  
N    -1.0928890    0.1908450   -0.2742710  
C    -0.6671530    2.5213570    0.4941300  
C    -1.2932400    3.8005600    0.8237020  
O    -0.6526620    4.7701630    1.2004680  
C    -2.8495700    3.9162900    0.6752560  
O    -3.3905160    4.9785830    0.9352110  
C    -3.5973970    2.7291050    0.2429570  
H     0.4085310    2.4446320    0.5950470  
H    -4.6726020    2.8176560    0.1455520  
H    -2.1889550   -1.5484710   -0.8585690  
C    -4.9225740   -3.4692370    1.3127500  
C    -6.2116400   -3.4147740    0.8876480  
C    -6.3607500   -2.1901120    0.1322660  
C    -5.0305630   -1.5327430    0.1472460  
N    -4.2019070   -2.3654210    0.8702910  
C    -4.7425460   -0.3241530   -0.4422230  
C    -5.8525200    0.3620040   -1.1200320  
O    -5.7273960    1.4500540   -1.6618780  
C    -7.2650780   -0.3322380   -1.1593480  
O    -8.1764690    0.2410020   -1.7355010  
C    -7.4258880   -1.6239190   -0.4982600  
H    -6.9855210   -4.1430650    1.0809110  
H    -8.4072500   -2.0873100   -0.5246310  
H    -4.4254920   -4.2217190    1.9105880  
H    -3.2346950   -2.1721210    1.1090420  
