60


C     2.5383200    1.1905660   -0.8995230  
C     3.6430790    0.6001390   -0.3129080  
C     3.1791590   -0.6724070    0.2124920  
C     1.8011810   -0.7809630   -0.0997170  
N     1.4483140    0.3667500   -0.7769580  
C     0.9983860   -1.8915910    0.2583210  
C     1.6661800   -2.9244510    0.9355570  
O     0.9954910   -4.0585030    1.3038960  
C     3.0297810   -2.8117400    1.2896960  
O     3.5070480   -3.9043040    1.9866840  
C     3.7857070   -1.7039460    0.9532730  
H     0.5555370    0.5106690   -1.2225930  
H     1.6173740   -4.6087610    1.8141500  
H     4.3821570   -3.7069890    2.3521950  
H     4.8285040   -1.6435250    1.2500480  
H     2.4599720    2.1457540   -1.3927560  
C    -0.4292290   -1.9420740   -0.0372880  
C    -1.3299430   -0.9125370   -0.2129870  
C    -2.6298780   -1.4835580   -0.4483360  
C    -2.4368410   -2.9515380   -0.4065910  
N    -1.0917920   -3.1596840   -0.1942780  
C    -3.4254410   -3.8736900   -0.5410990  
C    -4.7830050   -3.3948990   -0.7345600  
O    -5.7510340   -4.1330040   -0.8408020  
C    -5.0207550   -1.8408490   -0.8078910  
O    -6.1558510   -1.4439930   -1.0176240  
C    -3.8712360   -0.9208390   -0.6444030  
H    -1.1318840    0.1374590   -0.0607840  
H    -3.2525880   -4.9443480   -0.4979340  
H    -0.6737080   -4.0395820    0.0721730  
C    -3.3374560    1.3824100   -1.5137240  
C    -4.0840620    0.5250860   -0.7555380  
C    -5.0941090    1.3544300   -0.0853740  
C    -4.8482860    2.7500670   -0.5247380  
N    -3.7663440    2.6946090   -1.3831540  
C    -5.5693290    3.8297850   -0.1291950  
C    -6.6612110    3.6238320    0.8153180  
O    -7.3666700    4.5302980    1.2318390  
C    -6.9229610    2.1593810    1.3216820  
O    -7.8104970    1.9653110    2.1361760  
C    -6.0832760    1.0725720    0.7985030  
H    -5.3681950    4.8397940   -0.4731960  
H    -6.3072990    0.0657490    1.1301000  
H    -2.5181880    1.1468570   -2.1800860  
H    -3.4170350    3.4762210   -1.9154390  
C     7.8019130   -0.9978050   -0.7522100  
C     6.4513240   -0.8569230   -0.7461970  
C     6.1549480    0.5113510   -0.3635350  
C     7.4680620    1.1669320   -0.1637050  
N     8.4206340    0.1898810   -0.3761500  
C     7.6590920    2.4756960    0.1568910  
C     6.4870190    3.3168960    0.2812210  
O     6.5223920    4.5024310    0.5773020  
C     5.0790230    2.6704730   -0.0022320  
O     4.1139680    3.4138970   -0.0493460  
C     4.9710790    1.1975830   -0.2226740  
H     5.7322110   -1.6145430   -1.0157040  
H     8.6384420    2.9171490    0.3119700  
H     8.4023880   -1.8619910   -1.0035830  
H     9.4144600    0.3578220   -0.3909780  
