62


C    -0.5287200    1.2268630    1.9222590  
C    -1.8875700    1.1728620    1.8008060  
C    -2.1836620    0.7948410    0.4435660  
C    -0.9527350    0.6240110   -0.2328630  
N     0.0475490    0.8990410    0.6942300  
C    -0.8496960    0.2241690   -1.5669050  
C    -2.0369060   -0.0108230   -2.2457340  
O    -2.0089690   -0.4089960   -3.5431810  
C    -3.2957970    0.1759280   -1.6120370  
O    -4.3794660   -0.0167570   -2.4376910  
C    -3.3771370    0.5809700   -0.2810190  
H    -2.5994830    1.3697150    2.5897680  
H     0.1008390    0.0976870   -2.0724930  
H    -2.9353270   -0.5214740   -3.8256080  
H    -5.1302570   -0.3902490   -1.9401430  
H     0.1053080    1.4671950    2.7630320  
C     2.1598250   -0.3527500    0.6427160  
C     3.4716630   -0.1210600    0.3687970  
C     3.5703260    1.2894690   -0.0248660  
C     2.2066370    1.8583170    0.0496290  
N     1.3889970    0.8076210    0.4533140  
C     1.8757210    3.1418010   -0.2297800  
C     2.9430490    4.0462740   -0.6512970  
O     2.7538180    5.2215550   -0.9227790  
C     4.4001090    3.4646070   -0.7610790  
O     5.3047990    4.1988370   -1.1228200  
C     4.6190710    2.0519000   -0.4204060  
H     0.8627860    3.5235370   -0.1612130  
H     5.6306390    1.6672350   -0.4791480  
H     1.6705340   -1.2536940    0.9882740  
C     3.8185940   -4.1019850   -1.5117360  
C     5.0474080   -4.4396240   -1.0099880  
C     5.4893100   -3.3403540   -0.1986220  
C     4.4690800   -2.3553290   -0.2428560  
N     3.4570480   -2.8522290   -1.0392260  
C     4.5598180   -1.1141840    0.4246440  
C     5.7307540   -0.8933000    1.1526090  
O     5.8881720    0.2727580    1.8465380  
C     6.7591060   -1.8689000    1.2061070  
O     7.8404780   -1.4847300    1.9768840  
C     6.6532800   -3.0803390    0.5506080  
H     5.5774030   -5.3640150   -1.1937070  
H     2.6516850   -2.3250570   -1.3385330  
H     6.7596990    0.2331680    2.2783780  
H     8.5081850   -2.1862310    1.9734730  
H     7.4566240   -3.8118040    0.6099010  
H     3.1555040   -4.6519430   -2.1644690  
C    -5.0731790    2.0270550    0.8628490  
C    -6.3560690    1.9606450    1.2908790  
C    -6.8286070    0.6164810    1.0290780  
C    -5.6874610   -0.1059380    0.4110000  
N    -4.6422600    0.7982350    0.3312800  
C    -5.7264550   -1.4127630    0.0221520  
C    -6.9656460   -2.1623200    0.2242420  
O    -7.0844330   -3.3415050   -0.0682360  
C    -8.1912680   -1.4071920    0.8544540  
O    -9.2439870   -2.0051430    1.0036740  
C    -8.0170000   -0.0029450    1.2461320  
H    -6.9264940    2.7626620    1.7363720  
H    -4.8584690   -1.9498440   -0.3493710  
H    -8.8647260    0.4990120    1.7028210  
H    -4.3821410    2.8589500    0.8663350  
