60


C     0.9741620   -2.9502640    0.7421620  
C     2.2591570   -2.6619030    0.3686830  
C     2.2811640   -1.2838410   -0.0343140  
C     0.9610020   -0.7876030    0.1120520  
N     0.1849760   -1.8287280    0.5720580  
C     0.6025010    0.5612200   -0.1446420  
C     1.6664680    1.3996750   -0.5107490  
O     1.4423620    2.7251220   -0.7603960  
C     2.9841010    0.9142780   -0.6821370  
O     3.8525430    1.8874710   -1.1309070  
C     3.3225200   -0.4204810   -0.4643970  
H     3.0969000   -3.3433560    0.3981870  
H    -0.7647290   -1.7321330    0.9001140  
H     2.2987610    3.1182230   -1.0116260  
H     4.7694760    1.5703990   -1.1050600  
H     0.5443860   -3.8694810    1.1137980  
C    -0.7706020    1.0288210   -0.0313990  
C    -1.9422740    0.3032290   -0.0900760  
C    -3.0426690    1.2071630    0.0841170  
C    -2.4419510    2.5526480    0.2341580  
N    -1.0759990    2.3726320    0.1878320  
C    -3.1490390    3.7040700    0.3683480  
C    -4.6038570    3.6224290    0.3737730  
O    -5.3278380    4.6029190    0.4554940  
C    -5.2693080    2.2013910    0.2913100  
O    -6.4747920    2.1132290    0.4489300  
C    -4.4030060    1.0150570    0.0968510  
H    -2.0341420   -0.7432140   -0.3328510  
H    -2.6863100    4.6822730    0.4543320  
H    -0.3870520    3.1056380    0.0993800  
C    -4.0441580   -2.8013540    2.3766940  
C    -3.9003860   -1.5267870    1.9282620  
C    -4.7672690   -1.3722840    0.7737580  
C    -5.4392630   -2.6795950    0.5918520  
N    -4.9307960   -3.5115900    1.5746360  
C    -6.3827850   -2.9507670   -0.3472350  
C    -6.7653170   -1.8845080   -1.2606690  
O    -7.6300970   -2.0086890   -2.1145540  
C    -6.0079400   -0.5121430   -1.1515590  
O    -6.1848730    0.3190210   -2.0217860  
C    -5.0390440   -0.3020620   -0.0370530  
H    -3.2845580   -0.7579680    2.3695440  
H    -6.8802510   -3.9117200   -0.4355130  
H    -3.5829230   -3.2861380    3.2273300  
H    -5.2871380   -4.4319930    1.7799070  
C     5.0385620   -2.0130180   -1.4294080  
C     4.6905230   -0.9160380   -0.6898110  
C     5.9415740   -0.3564700   -0.1833550  
C     7.0318660   -1.2152350   -0.7118650  
N     6.4091360   -2.2056700   -1.4494170  
C     8.3512040   -1.0189570   -0.4708840  
C     8.7454250    0.1108670    0.3709640  
O     9.9089390    0.3719290    0.6285690  
C     7.6093590    1.0157960    0.9703660  
O     7.9133250    1.9465540    1.6975850  
C     6.2158840    0.7022460    0.6297540  
H     9.1328800   -1.6611810   -0.8649670  
H     5.4425590    1.3191130    1.0778390  
H     4.3878370   -2.6866340   -1.9712510  
H     6.8869140   -2.9322580   -1.9597120  
