58


C     2.0536020   -0.3278480    0.6739500  
C     3.3054870    0.0858860    0.3405530  
C     3.1791120    1.4916920   -0.0533580  
C     1.7313630    1.8140720    0.0171640  
N     1.0871300    0.6704120    0.5018580  
C     1.1895480    3.0014250   -0.3573460  
C     2.0822020    4.0590870   -0.8263080  
O     1.6787020    5.1573520   -1.1771730  
C     3.6202690    3.7552760   -0.8665380  
O     4.3846900    4.6280200   -1.2431040  
C     4.0798970    2.4197560   -0.4613800  
H     0.1245830    3.2041610   -0.3540120  
H     5.1442440    2.2208400   -0.4950990  
H     1.7438260   -1.2887020    1.0556670  
C    -2.4014210    2.6239720    2.2326450  
C    -3.3706920    1.8285780    1.7147210  
C    -2.7201490    0.8203430    0.9006240  
C    -1.2726010    1.1026040    0.9981100  
N    -1.1416360    2.2023800    1.8068160  
C    -0.2853480    0.3609330    0.3997870  
C    -0.6898250   -0.8133640   -0.3646590  
O     0.1005260   -1.5941140   -0.8862540  
C    -2.2263040   -1.0901390   -0.5382290  
O    -2.5551620   -1.9630290   -1.3174140  
C    -3.2078570   -0.2478150    0.1925300  
H    -4.4321970    1.9195050    1.8850950  
H    -2.4859310    3.4763330    2.8928780  
H    -0.2628950    2.6367000    2.0470310  
C    -6.8379320    1.9386560   -1.2375090  
C    -5.5684860    1.6020960   -0.8841110  
C    -5.6050930    0.2471040   -0.3792360  
C    -7.0216090   -0.1863070   -0.4768800  
N    -7.7169020    0.8949580   -0.9861770  
C    -7.4856680   -1.4178530   -0.1451660  
C    -6.5320470   -2.4016430    0.3515960  
O    -6.8410410   -3.5451590    0.6455180  
C    -5.0371840   -1.9573720    0.5282500  
O    -4.2629270   -2.7194680    1.0784650  
C    -4.6292860   -0.5993440    0.0813610  
H    -4.6955260    2.2302280   -0.9733010  
H    -8.5248460   -1.7138730   -0.2500880  
H    -7.2071950    2.8634570   -1.6608970  
H    -8.6956590    0.8857640   -1.2274580  
C     3.5548650   -3.9369640   -1.3168330  
C     4.8586640   -4.2208220   -1.0629990  
C     5.4282850   -3.0632750   -0.4084790  
C     4.3293730   -2.0720650   -0.2949990  
N     3.2190030   -2.6686350   -0.8553340  
C     4.4554150   -0.8173570    0.2528990  
C     5.7876510   -0.4407460    0.7455200  
O     6.0282500    0.6528990    1.2356060  
C     6.9591350   -1.4876390    0.6460190  
O     8.0597100   -1.1672250    1.0670700  
C     6.6812090   -2.7898830    0.0473740  
H     5.3786100   -5.1354550   -1.3073930  
H     7.4995520   -3.4997390   -0.0226140  
H     2.7988810   -4.5428140   -1.7986310  
H     2.3119460   -2.2306830   -0.9774750  
