60


C     1.4683800   -1.4359830   -0.7229350  
C     0.7422620   -0.4732590   -0.0360520  
C     1.7149260    0.4871420    0.4507440  
C     2.9904530    0.0413350    0.0304730  
N     2.8057690   -1.1268570   -0.6845750  
C     4.1988120    0.6900150    0.3668090  
C     4.0765710    1.8378480    1.1513470  
O     5.1844150    2.5547920    1.4706350  
C     2.8039110    2.3015270    1.5765480  
O     2.8636590    3.4570000    2.3282480  
C     1.6348640    1.6473200    1.2455470  
H     3.5416030   -1.6431190   -1.1413200  
H     4.9020680    3.2846490    2.0493750  
H     1.9655110    3.7597970    2.5293680  
H     0.6741050    2.0416960    1.5583340  
H     1.1158570   -2.2782420   -1.3019580  
C    -1.9431680   -3.7990900    0.8205580  
C    -3.1430370   -3.1549820    0.7971830  
C    -2.8858990   -1.7574350    0.5410740  
C    -1.4255790   -1.6387400    0.3926240  
N    -0.9132140   -2.9145010    0.5554600  
C    -0.7093960   -0.4907540    0.1457640  
C    -1.5216430    0.7259320    0.0267350  
O    -1.0545420    1.8369350   -0.1706040  
C    -3.0960360    0.6267200    0.1333220  
O    -3.7141910    1.6696750   -0.0101410  
C    -3.7390020   -0.6704910    0.4241880  
H    -4.1101190   -3.6167050    0.9182210  
H    -1.7294120   -4.8461280    0.9895670  
H     0.0726530   -3.0928330    0.6829670  
C    -5.8214600   -1.5877200    1.5264090  
C    -5.1712510   -0.7575270    0.6470940  
C    -6.2822410   -0.0323510   -0.0275570  
C    -7.5119360   -0.5983040    0.5908440  
N    -7.2255300   -1.4918570    1.5037600  
C    -8.8297600   -0.1763810    0.2020010  
C    -8.9346610    0.7541750   -0.7773100  
O   -10.0982330    1.2345260   -1.2474020  
C    -7.7176400    1.3328590   -1.4349400  
O    -7.8878290    2.1653730   -2.3253110  
C    -6.3721570    0.8952340   -0.9997400  
H    -9.6989560   -0.6099490    0.6841380  
H    -9.8467560    1.8825830   -1.9420190  
H    -5.5230230    1.3722730   -1.4723490  
H    -5.3642280   -2.2561020    2.2451280  
C     5.9856390   -0.1188740   -3.6232060  
C     5.1611770    0.2422040   -2.6065160  
C     5.8686180   -0.0123790   -1.3644810  
C     7.1935860   -0.5539360   -1.7522280  
N     7.1898910   -0.6151800   -3.1332340  
C     8.1856020   -0.8838690   -0.8847590  
C     7.9364720   -0.7047660    0.5372220  
O     8.7712020   -0.9327720    1.4000170  
C     6.5124080   -0.2069340    0.9853610  
O     6.2521780   -0.1989930    2.1738930  
C     5.5195620    0.1827590   -0.0548100  
H     4.1730190    0.6665940   -2.7015270  
H     9.1570860   -1.2532950   -1.1984520  
H     5.8217510   -0.0653000   -4.6914640  
H     7.9869070   -0.8672140   -3.6964520  
