58


C     3.4283070   -1.4007650   -2.0072400  
C     4.5120710   -2.1813020   -2.2319810  
C     5.4674490   -1.9130680   -1.1787800  
C     4.8455070   -0.8881210   -0.3068450  
N     3.5898130   -0.6025970   -0.8635780  
C     5.4145450   -0.4122740    0.8256600  
C     6.7391050   -0.9120150    1.2032840  
O     7.3169410   -0.5443610    2.2131700  
C     7.4294980   -1.9712110    0.2724950  
O     8.5368440   -2.3906550    0.5676700  
C     6.6965000   -2.4260610   -0.9121170  
H     4.6475010   -2.8640370   -3.0585830  
H     4.9558380    0.3340450    1.4627030  
H     7.1646470   -3.1801900   -1.5374100  
H     2.5195160   -1.3014070   -2.5850820  
C    -0.6818560   -1.1109330   -0.0000920  
C     0.6465300   -1.3146860   -0.3081990  
C     1.3123740   -0.0507170   -0.2183620  
C     0.2780460    0.9362610    0.1600140  
N    -0.8940290    0.2370880    0.2774260  
C     0.5138810    2.2730270    0.3633210  
C     1.8985890    2.7392350    0.2568720  
O     2.2456370    3.8776060    0.5254350  
C     3.0088380    1.7217610   -0.2083290  
O     4.1285010    2.1540110   -0.4115460  
C     2.6334420    0.3089130   -0.3882180  
H     1.1042970   -2.2648050   -0.5390330  
H    -1.8146230    0.6040130    0.4806840  
C    -0.3997560    4.1469620    1.7278760  
C    -1.5157240    4.9088920    1.8044950  
C    -2.4121880    4.4820210    0.7531420  
C    -1.7125300    3.3874590    0.0343560  
N    -0.4955550    3.1980910    0.6910220  
C    -2.2094120    2.7639120   -1.0661330  
C    -3.5292450    3.1609110   -1.5584920  
O    -4.0436190    2.6563230   -2.5440600  
C    -4.3061220    4.2804210   -0.7788570  
O    -5.4235340    4.5973600   -1.1536150  
C    -3.6440340    4.9060920    0.3691190  
H    -1.7005730    5.6983870    2.5184470  
H    -1.6714260    2.0068830   -1.6247490  
H    -4.1688450    5.7101530    0.8760530  
H     0.4980730    4.1753900    2.3258970  
C    -1.7976740   -2.0121460    0.0819080  
C    -1.8577630   -3.3618200   -0.1394790  
C    -3.2400010   -3.7208450    0.0822420  
C    -3.9107430   -2.4276810    0.4433410  
N    -3.0633800   -1.4386840    0.4425150  
C    -5.3155450   -2.3624770    0.7414330  
C    -6.0220900   -3.5174790    0.6873020  
O    -7.3306670   -3.6077070    0.9399820  
C    -5.3753690   -4.8384630    0.3278410  
O    -6.0973800   -5.8322180    0.3054340  
C    -3.9365010   -4.8795570    0.0255730  
H    -1.0550850   -4.0290010   -0.4207510  
H    -5.7778240   -1.4151890    0.9946620  
H    -7.5624610   -4.5560980    0.8214070  
H    -3.5075300   -5.8437770   -0.2285980  
