60


C     0.2069090    2.0648910    0.2201900  
C    -1.1418120    1.9211360   -0.0326230  
C    -1.3717170    0.5461130   -0.3555250  
C    -0.1222270   -0.1177200   -0.2948240  
N     0.8206980    0.8303750    0.0323620  
C     0.0433750   -1.5140330   -0.4660800  
C    -1.1347600   -2.2341190   -0.7390780  
O    -1.0914480   -3.5589700   -0.9839800  
C    -2.3934990   -1.5820640   -0.8540630  
O    -3.4227850   -2.4129210   -1.2403940  
C    -2.5229860   -0.2086440   -0.6726540  
H    -1.8723940    2.7174830   -0.0125720  
H     1.7591620    0.6007290    0.3285250  
H    -2.0122000   -3.8447800   -1.1387150  
H    -4.2516190   -2.1686970   -0.7876750  
C     0.5239260    4.2341540    1.4530560  
C     0.9650550    3.2342250    0.6317990  
C     2.3299270    3.5896030    0.2477930  
C     2.6325410    4.8755850    0.9248490  
N     1.4862410    5.2186680    1.6168870  
C     3.8153550    5.5332700    0.8339480  
C     4.8716200    4.9544880    0.0062950  
O     5.9693880    5.4703890   -0.1300090  
C     4.5645680    3.6084530   -0.7445890  
O     5.4261830    3.1106970   -1.4508570  
C     3.2438590    2.9953910   -0.5630230  
H     4.0160980    6.4736670    1.3379450  
H     3.0421770    2.0791600   -1.1084480  
H    -0.4297710    4.3181760    1.9568460  
H     1.4020120    6.0129920    2.2320400  
C    -4.0558700    1.4519320   -1.7442460  
C    -5.3655430    1.7947590   -1.7344720  
C    -6.0239540    0.9542090   -0.7551200  
C    -4.9644110    0.0861930   -0.1810650  
N    -3.7844180    0.4258570   -0.8210300  
C    -5.1779080   -0.8389570    0.7983830  
C    -6.5347710   -0.9983160    1.3212580  
O    -6.8146590   -1.7795850    2.2161520  
C    -7.6741610   -0.1109980    0.7022610  
O    -8.8185950   -0.2505450    1.1005040  
C    -7.3108940    0.8651850   -0.3327560  
H    -5.8368470    2.5472370   -2.3499410  
H    -4.3777500   -1.3982180    1.2752490  
H    -8.1029090    1.4930710   -0.7298560  
H    -3.2420560    1.8327840   -2.3459790  
C     1.3481810   -2.1463170   -0.3365550  
C     2.5725050   -1.6312740   -0.6841300  
C     3.5431170   -2.6341290   -0.3102100  
C     2.7170640   -3.7284380    0.2967850  
N     1.4480190   -3.4470940    0.2754580  
C     3.3227060   -4.9241230    0.8255810  
C     4.6680960   -5.0385720    0.7334460  
O     5.3692010   -6.0928760    1.1720590  
C     5.5253080   -3.9581330    0.1098100  
O     6.7394460   -4.1592170    0.0754140  
C     4.8889910   -2.7420860   -0.4073420  
H     2.7784340   -0.7204820   -1.2298440  
H     2.7041540   -5.6971370    1.2675440  
H     6.3075860   -5.8816970    0.9636730  
H     5.5367290   -1.9846860   -0.8382210  
