58


C    -1.8562300   -1.9322510    0.1047720  
C    -2.8900470   -1.0634740   -0.1941270  
C    -4.1295460   -1.7746920   -0.0281250  
C    -3.7599020   -3.1468260    0.3979470  
N    -2.3844750   -3.1681400    0.4732260  
C    -4.6540040   -4.1366580    0.6495600  
C    -6.0761430   -3.8416490    0.5003140  
O    -6.9535170   -4.6657710    0.7095730  
C    -6.4907600   -2.3911670    0.0530600  
O    -7.6770920   -2.1268070   -0.0718140  
C    -5.4320470   -1.4107420   -0.1940290  
H    -2.8071800   -0.0677570   -0.6022050  
H    -4.3648030   -5.1364250    0.9577900  
H    -5.7296980   -0.4145680   -0.5078120  
H    -1.7876020   -3.9784770    0.5887800  
C     0.5206860    1.7491810    0.2404020  
C     1.7732930    1.2174100    0.1320950  
C     1.6258870   -0.2133380    0.0559010  
C     0.1775990   -0.4844520    0.1041630  
N    -0.4512030    0.7436270    0.1765710  
C    -0.4176920   -1.7266560    0.0864420  
C     0.5161900   -2.8687190    0.0870560  
O     0.1603800   -4.0329030    0.2118190  
C     2.0565050   -2.6064710   -0.0610720  
O     2.7940410   -3.5740510   -0.0715640  
C     2.5531760   -1.2159440   -0.0830000  
H     2.6991810    1.7660600    0.0574800  
H    -1.3852980    0.8430060    0.5561110  
C     5.6444810    0.7061810    2.5105360  
C     4.4766080    0.2346610    1.9974850  
C     4.7763690   -0.3538300    0.7090250  
C     6.2382220   -0.1874170    0.5155100  
N     6.6971150    0.4856700    1.6342130  
C     6.9409130   -0.6451470   -0.5511290  
C     6.2165790   -1.3542230   -1.5992440  
O     6.7589870   -1.8271690   -2.5844620  
C     4.6600410   -1.4992650   -1.4543500  
O     4.0277930   -1.9689580   -2.3820520  
C     4.0005970   -0.9982910   -0.2183270  
H     3.5090070    0.2723280    2.4741880  
H     8.0152150   -0.5285960   -0.6550840  
H     5.8273180    1.1967610    3.4576340  
H     7.6683190    0.6690110    1.8332830  
C     0.9439920    4.0159760    1.0922960  
C     0.3416020    5.2231820    1.1361500  
C    -0.9281630    5.1113300    0.4450970  
C    -1.0228600    3.7104790   -0.0297960  
N     0.1450440    3.0676350    0.4181240  
C    -2.0399500    3.2352530   -0.7881600  
C    -3.1515840    4.1392350   -1.1110090  
O    -4.1075300    3.7832240   -1.7773970  
C    -3.0918520    5.6111860   -0.5749560  
O    -4.0124470    6.3719840   -0.8163370  
C    -1.9065580    6.0159080    0.1924580  
H     0.7295020    6.1120020    1.6126690  
H    -2.0734670    2.2349140   -1.2032820  
H    -1.8498850    7.0478670    0.5248240  
H     1.8867040    3.6933290    1.5108990  
