58


C     4.4539660   -0.4388340    0.0525060  
C     5.0165180   -1.6773780   -0.0804740  
C     6.4449610   -1.5115940    0.0064970  
C     6.6812400   -0.0608650    0.2004770  
N     5.4298410    0.5558210    0.1654660  
C     7.8978540    0.5023650    0.3768000  
C     9.0753820   -0.3705010    0.3454310  
O    10.2104140    0.0508320    0.4942420  
C     8.8532330   -1.9067690    0.0980590  
O     9.8271200   -2.6435230    0.0602160  
C     7.4827900   -2.3899320   -0.0621520  
H     4.4900210   -2.5986430   -0.2820640  
H     8.0518770    1.5667800    0.5252480  
H     7.3393960   -3.4551640   -0.2149370  
H     5.2486810    1.4372650    0.6262910  
C     2.1227060   -0.9629810    0.6215590  
C     0.8978870   -0.3938990    0.5605900  
C     1.0458860    0.9123080   -0.0452250  
C     2.4859420    1.0776780   -0.3313920  
N     3.1108700   -0.1044700    0.1028560  
C     3.0331750    2.1732910   -0.9171910  
C     2.1540810    3.2976740   -1.2327510  
O     2.5707020    4.3454300   -1.6980620  
C     0.6160570    3.1412780   -0.9761660  
O    -0.1276680    4.0134580   -1.3779020  
C     0.1253730    1.8921450   -0.3269740  
H    -0.0235880   -0.8216590    0.9274380  
H     4.0828600    2.2685270   -1.1670520  
H     2.4273330   -1.9144670    1.0334030  
C    -1.2954080    1.7330250   -0.0565500  
C    -2.0633740    0.6173650   -0.2409330  
C    -3.3842100    0.9646540    0.2355860  
C    -3.2419440    2.3839990    0.6888120  
N    -2.0357090    2.8326470    0.5083200  
C    -4.3489880    3.1175180    1.2440680  
C    -5.5351110    2.4762390    1.3439630  
O    -6.6481230    3.0283010    1.8500410  
C    -5.7117440    1.0429420    0.9113200  
O    -6.8069760    0.5290240    1.1207200  
C    -4.5703660    0.3030960    0.2960560  
H    -1.7680090   -0.3250410   -0.6751490  
H    -4.2159430    4.1451240    1.5626670  
H    -7.3288000    2.3203790    1.8196460  
C    -2.5902010   -3.5031110    1.3791820  
C    -3.3284080   -4.4080420    0.6990700  
C    -4.3178600   -3.6205230   -0.0283220  
C    -4.0124520   -2.2011260    0.3555810  
N    -2.9987500   -2.1439360    1.1695240  
C    -4.8034650   -1.0854040   -0.1446730  
C    -5.8040540   -1.4016640   -1.0175080  
O    -6.5798120   -0.4918160   -1.6121680  
C    -6.1155280   -2.8195130   -1.4279930  
O    -7.0389080   -2.9859490   -2.2203410  
C    -5.3180860   -3.9269820   -0.8758780  
H    -3.2286930   -5.4843600    0.6864610  
H    -7.2131530   -1.0013400   -2.1663890  
H    -5.5781440   -4.9340360   -1.1870410  
H    -1.7567080   -3.6886110    2.0461230  
