60


C     1.3556110   -0.0848690    1.3753510  
C     0.0517810   -0.4951620    1.3534970  
C    -0.0823310   -1.4564710    0.2947060  
C     1.2030490   -1.6112690   -0.2826200  
N     2.0760980   -0.7540940    0.3844540  
C     1.4789990   -2.5343930   -1.2957020  
C     0.4248790   -3.3158950   -1.7359710  
O     0.6231040   -4.2453030   -2.7095810  
C    -0.8797300   -3.1686640   -1.1943420  
O    -1.8239620   -3.9827030   -1.7859520  
C    -1.1714190   -2.2226010   -0.2033180  
H    -0.7317910   -0.1302690    2.0009680  
H     2.4595470   -2.6467200   -1.7410410  
H    -0.2472320   -4.6595330   -2.8608840  
H    -2.3418550   -4.4173080   -1.0777650  
H     1.8349350    0.6940000    1.9506070  
C    -3.6196820    1.4266750    0.0849020  
C    -4.8533300    0.9266600    0.4240070  
C    -4.6491140   -0.4835640    0.5646660  
C    -3.1859090   -0.6909400    0.2603940  
N    -2.6020520    0.4393070   -0.0111480  
C    -2.5655080   -2.0163070    0.2487110  
C    -3.4166130   -3.0288120    0.5754560  
O    -3.0460090   -4.3328320    0.5967510  
C    -4.8686090   -2.8525000    0.9294310  
O    -5.4907770   -3.8817330    1.2172820  
C    -5.4537060   -1.5230940    0.9035570  
H    -5.7760310    1.4601630    0.5968080  
H    -3.8663410   -4.8106490    0.8776460  
H    -6.5078770   -1.4270560    1.1416020  
C    -4.2354000    3.7388160   -0.4205940  
C    -3.6586590    4.9514630   -0.5726600  
C    -2.2296120    4.7845620   -0.4156990  
C    -2.0006360    3.3408570   -0.1718410  
N    -3.2808450    2.7333580   -0.1857380  
C    -0.7817150    2.8009040    0.0544880  
C     0.3776590    3.7026450    0.0982110  
O     1.4952220    3.3119360    0.3956540  
C     0.1619620    5.2237020   -0.2121870  
O     1.1235480    5.9745540   -0.2268970  
C    -1.2103030    5.6800830   -0.4503200  
H    -4.1725690    5.8787120   -0.7829330  
H    -0.6203650    1.7451070    0.2252650  
H    -1.3675240    6.7383800   -0.6348150  
H    -5.2779230    3.4634660   -0.4858490  
C     5.4104760   -1.0157290    3.1195820  
C     6.4140720   -0.6516120    2.2801100  
C     5.8261570   -0.4170800    0.9770390  
C     4.3774150   -0.6788790    1.1357570  
N     4.1873970   -1.0266980    2.4568470  
C     3.4526020   -0.5734520    0.1368230  
C     3.9319860   -0.1574610   -1.1943240  
O     3.1910680    0.0091990   -2.1462380  
C     5.4801830    0.0775440   -1.3832290  
O     5.8873050    0.3508010   -2.5009830  
C     6.3567740   -0.0541670   -0.2222420  
H     7.4595620   -0.5541250    2.5332740  
H     7.4160270    0.1356690   -0.3633640  
H     5.4532420   -1.2764440    4.1687990  
H     3.2980480   -1.2938080    2.8506370  
