60


C     2.2141920   -1.2219710    0.4547620  
C     3.3035220   -0.4602530    0.0821240  
C     2.7751850    0.8494120   -0.2493790  
C     1.3710600    0.8068510   -0.0404170  
N     1.0681110   -0.4669630    0.3888070  
C     0.5185950    1.9182490   -0.2677870  
C     1.1540870    3.0965140   -0.6939320  
O     0.4257830    4.2321290   -0.9191020  
C     2.5439210    3.1377980   -0.9417110  
O     2.9881660    4.3677100   -1.3885540  
C     3.3549230    2.0361530   -0.7388090  
H     0.1617030   -0.7780520    0.7077200  
H     1.0383600    4.8990250   -1.2804630  
H     3.8620040    4.2756950   -1.7968180  
H     4.4170700    2.0923310   -0.9588460  
H     2.1778190   -2.2573270    0.7543310  
C    -0.9242300    1.8333330   -0.0883400  
C    -1.7393650    0.7216080   -0.1255740  
C    -3.0823260    1.1374930    0.1448340  
C    -3.0243530    2.6076040    0.3202820  
N    -1.6966630    2.9588030    0.1990140  
C    -4.1035460    3.4003300    0.5408070  
C    -5.4175720    2.7717210    0.6208740  
O    -6.4501430    3.4045940    0.7750080  
C    -5.5014640    1.2068730    0.5220890  
O    -6.5709940    0.6654150    0.7457470  
C    -4.2687250    0.4453480    0.2251540  
H    -1.4433280   -0.2793700   -0.3935280  
H    -4.0413950    4.4790830    0.6448170  
H    -1.3428200    3.8993750    0.0992810  
C    -2.2476630   -3.0998030    2.0963260  
C    -2.5968810   -1.8176540    1.8167300  
C    -3.6064320   -1.9196490    0.7670580  
C    -3.7443220   -3.3901810    0.5481070  
N    -2.9427940   -4.0722060    1.3214870  
C    -4.6833940   -3.9341240   -0.3972500  
C    -5.4469690   -3.0627010   -1.0954300  
O    -6.3577480   -3.4256800   -2.0112600  
C    -5.3010770   -1.5706670   -0.9389030  
O    -5.9323100   -0.8642800   -1.7159800  
C    -4.3537950   -1.0126180    0.0817750  
H    -2.2528450   -0.9116130    2.2947400  
H    -4.7630540   -5.0075060   -0.5280490  
H    -6.7110170   -2.5853060   -2.3778970  
H    -1.5344340   -3.4468550    2.8355770  
C     7.1126210    1.3842070    1.3473050  
C     7.9745770    0.4195990    0.9340970  
C     7.1865340   -0.6411550    0.3426740  
C     5.7753760   -0.2018480    0.4285540  
N     5.8018490    1.0542140    1.0201960  
C     4.6884150   -0.9272950    0.0200720  
C     4.9841030   -2.3010900   -0.4551120  
O     4.1110310   -3.1197230   -0.6905180  
C     6.4835210   -2.7417750   -0.6529160  
O     6.6998680   -3.8282770   -1.1677580  
C     7.5338460   -1.8436670   -0.1948300  
H     9.0500630    0.4325410    1.0351570  
H     8.5640440   -2.1735810   -0.2838530  
H     7.3197670    2.3184760    1.8528760  
H     4.9811350    1.5111770    1.3883620  
