60


C     4.2795960    0.7277840    0.1042300  
C     4.3632510    2.1150950    0.0100740  
C     3.0680640    2.6029360   -0.3112930  
C     2.2083360    1.4718400   -0.4227740  
N     2.9658220    0.3655890   -0.1660890  
C     0.8259580    1.5759200   -0.7314210  
C     0.3429270    2.8862060   -0.8758690  
O    -0.9790510    3.1176730   -1.1482860  
C     1.1935670    4.0171970   -0.7686890  
O     0.5312350    5.2133500   -0.9630970  
C     2.5402220    3.8962540   -0.5014800  
H     5.2595320    2.7087800    0.1013870  
H     2.6759800   -0.6032590   -0.1530590  
H    -1.0900970    4.0843480   -1.2067040  
H     1.1507050    5.9530780   -0.8786010  
H     3.1730610    4.7776670   -0.4271570  
C    -0.0225850    0.3989900   -0.8823400  
C     0.3143590   -0.9064300   -1.1590630  
C    -0.8934120   -1.6879540   -1.1729450  
C    -1.9986560   -0.7429140   -0.8932240  
N    -1.4108340    0.4879440   -0.7327760  
C    -3.3263430   -1.0750790   -0.8162640  
C    -3.6565710   -2.4967140   -1.0217740  
O    -4.8012480   -2.9218130   -0.9902280  
C    -2.4918290   -3.5174290   -1.3098490  
O    -2.7816620   -4.6950330   -1.4618780  
C    -1.1258410   -3.0151640   -1.3789490  
H     1.2941370   -1.2915140   -1.3970890  
H    -0.3308210   -3.7254450   -1.5834470  
H    -1.8958380    1.3511610   -0.5426070  
C    -4.5156710    1.1058810   -1.2664710  
C    -4.3867260   -0.0813230   -0.6032500  
C    -5.4928670   -0.1290530    0.3603230  
C    -6.2539940    1.1329470    0.1888000  
N    -5.6006130    1.8403580   -0.8009230  
C    -7.3624670    1.4741950    0.8952230  
C    -7.8408430    0.5538620    1.9190260  
O    -8.8236770    0.7731870    2.6118180  
C    -7.0347730   -0.7776930    2.1404530  
O    -7.3983900   -1.5498400    3.0125120  
C    -5.8646410   -1.0423200    1.2913340  
H    -7.9048520    2.4022650    0.7417170  
H    -5.3474730   -1.9844590    1.4293370  
H    -3.9075210    1.4976010   -2.0719080  
H    -5.9420140    2.6936050   -1.2148400  
C     8.3430600    0.9022820    1.9470520  
C     7.0809130    1.1970730    1.5306220  
C     6.5201300   -0.0004720    0.9504360  
C     7.5683180   -1.0362920    1.0747300  
N     8.6559840   -0.4167410    1.6585230  
C     7.4564160   -2.3324340    0.6743100  
C     6.1930550   -2.7531050    0.1084570  
O     5.9669680   -3.8780560   -0.3104760  
C     5.0259070   -1.6983290    0.0391660  
O     3.9213010   -2.1201160   -0.2818070  
C     5.2915140   -0.2746850    0.3748350  
H     6.5827030    2.1431260    1.6649590  
H     8.2611610   -3.0561160    0.7526360  
H     9.0667060    1.5346120    2.4437660  
H     9.5080750   -0.8867440    1.9214940  
