60


C    -1.6580160   -1.9822940    0.1270640  
C    -2.7075700   -1.1310000    0.3808040  
C    -3.9189680   -1.9049050    0.3756850  
C    -3.5150930   -3.3063390    0.1013760  
N    -2.1482080   -3.2861090   -0.0451500  
C    -4.3801740   -4.3512540    0.0244740  
C    -5.8015620   -4.0910380    0.2199890  
O    -6.6542520   -4.9661610    0.1732070  
C    -6.2532660   -2.6097940    0.5044030  
O    -7.4421370   -2.3758160    0.6679140  
C    -5.2262890   -1.5697410    0.5635470  
H    -2.6227090   -0.0736550    0.5629540  
H    -4.0674280   -5.3712380   -0.1769140  
H    -5.5464070   -0.5497560    0.7539890  
H    -1.5569660   -4.0902690   -0.1896200  
C     0.5082550    1.8228220    0.0304610  
C     1.8217620    1.3996590    0.0297570  
C     1.7568340   -0.0216040    0.0286760  
C     0.2841060   -0.3330810    0.0447870  
N    -0.4279610    0.7560300    0.0366760  
C    -0.2339750   -1.6985540    0.0443190  
C     0.7335210   -2.6648840   -0.0469000  
O     0.4834240   -3.9792390   -0.0792810  
C     2.2206860   -2.3834440   -0.0611850  
O     2.9391660   -3.3865410   -0.0319770  
C     2.7111120   -1.0074670   -0.0442000  
H     2.7162370    1.9994220   -0.0251330  
H     1.3845230   -4.3963340   -0.1037680  
C     5.6006520    1.1874200    2.5568560  
C     4.4772010    0.6425820    2.0192250  
C     4.8672660   -0.0423410    0.8055050  
C     6.3339530    0.1469770    0.6830180  
N     6.7107810    0.9168950    1.7677720  
C     7.1095650   -0.3752990   -0.3012490  
C     6.4645130   -1.1821090   -1.3280160  
O     7.0742320   -1.7277800   -2.2340550  
C     4.9040090   -1.3459980   -1.2673440  
O     4.3396720   -1.8907520   -2.1987950  
C     4.1616200   -0.7804980   -0.1095320  
H     3.4786600    0.7093720    2.4227170  
H     8.1856270   -0.2402950   -0.3504540  
H     5.7138460    1.7666820    3.4638160  
H     7.6620220    1.1604510    1.9954610  
C     0.8520410    4.2255240    0.2804900  
C     0.1058820    5.3593790    0.2463190  
C    -1.2567640    4.9797350   -0.0372870  
C    -1.2875990    3.5722370   -0.1657090  
N     0.0344710    3.1066130    0.0432010  
C    -2.4583610    2.8833170   -0.4892500  
C    -3.6217200    3.6291360   -0.6462770  
O    -4.7843030    2.9891940   -0.9469520  
C    -3.6087840    5.0375930   -0.5013920  
O    -4.8348990    5.6342750   -0.6881260  
C    -2.4377290    5.7177680   -0.2047390  
H     0.4752770    6.3626500    0.4109840  
H    -2.4839940    1.8120330   -0.6222760  
H    -5.4823520    3.6621340   -1.0261650  
H    -4.7544280    6.5944280   -0.5870460  
H    -2.4367030    6.8014940   -0.1104560  
H     1.9013560    4.0864080    0.4869030  
