62


C    -2.2944420   -0.6061740   -0.7192180  
C    -3.1226920    0.4790450   -0.7224950  
C    -2.3085170    1.6616350   -0.5578500  
C    -0.9662880    1.2277380   -0.4660020  
N    -0.9729760   -0.1855860   -0.5517910  
C     0.0909850    2.1308130   -0.3163330  
C    -0.2246950    3.4827830   -0.2450230  
O     0.7739620    4.3939750   -0.1029840  
C    -1.5700300    3.9251350   -0.3124830  
O    -1.7195650    5.2898040   -0.2111430  
C    -2.6134590    3.0291910   -0.4693380  
H     1.1204380    1.8082970   -0.2544740  
H     0.3657300    5.2757230   -0.0571200  
H    -2.6600670    5.5220490   -0.2216960  
H    -3.6420510    3.3795600   -0.5082690  
H    -2.5313960   -1.6523210   -0.8200540  
C     0.0901940   -1.0603250   -0.5158460  
C     0.0655120   -2.4239290   -0.7071430  
C     1.4209570   -2.8423230   -0.5520010  
C     2.1847720   -1.5699570   -0.2702300  
N     1.3773350   -0.5383180   -0.2418440  
C     3.6123240   -1.5405540   -0.0570100  
C     4.2152090   -2.7706460   -0.0669870  
O     5.5059660   -2.9647590    0.1756830  
C     3.4760640   -4.0726880   -0.3515890  
O     4.1659330   -5.0963330   -0.3367170  
C     2.0502090   -4.0471090   -0.6016920  
H    -0.7757670   -3.0600870   -0.9364250  
H     5.6332030   -3.9407820    0.0851860  
H     1.5484220   -4.9884200   -0.7991230  
C     3.0827040    1.8057710    2.8362550  
C     4.2024440    2.5162100    2.4974410  
C     4.8338310    1.8139280    1.4150550  
C     4.0441360    0.6648470    1.1495220  
N     3.0001740    0.6655690    2.0541480  
C     4.3703120   -0.2843950    0.1551040  
C     5.5018510    0.0022890   -0.6155650  
O     5.8544260   -0.8203550   -1.6450270  
C     6.2962480    1.1489910   -0.3606850  
O     7.3848780    1.2674100   -1.2087710  
C     5.9901470    2.0428880    0.6458420  
H     4.5447590    3.4299750    2.9636500  
H     2.1500360    0.1434610    1.8968100  
H     6.6764800   -0.4629980   -2.0233720  
H     7.8794150    2.0692300   -0.9850140  
H     6.6230310    2.9096100    0.8270770  
H     2.3302960    2.0066810    3.5860280  
C    -5.2443580    1.2581540   -1.7532020  
C    -6.5762570    1.0197870   -1.6761670  
C    -6.7740490   -0.0039000   -0.6722120  
C    -5.4234560   -0.3467730   -0.1602350  
N    -4.5218140    0.4601400   -0.8549740  
C    -5.1876840   -1.2652150    0.8101260  
C    -6.3276530   -1.9720540    1.3916600  
O    -6.2082440   -2.8083820    2.2737020  
C    -7.7648370   -1.6355840    0.8519540  
O    -8.7268370   -2.2260370    1.3170310  
C    -7.8886140   -0.6157290   -0.1929990  
H    -7.3475040    1.4951530   -2.2647700  
H    -4.1968380   -1.4959270    1.1849270  
H    -8.8861280   -0.3797030   -0.5511630  
H    -4.7004450    1.9341720   -2.3990840  
