60


C     1.5409160   -0.2665180   -0.0287170  
C     2.9101430   -0.1926380   -0.1189470  
C     3.2347860    1.2284600   -0.2174610  
C     2.0238260    1.9516490   -0.1373420  
N     0.9774470    1.0032930   -0.0138850  
C     1.9689440    3.3424740   -0.2458920  
C     3.1656410    4.0187350   -0.4513840  
O     3.1591650    5.3765860   -0.5564940  
C     4.3832930    3.3095790   -0.5679610  
O     5.4848180    4.1069060   -0.7953200  
C     4.4282820    1.9283860   -0.4559840  
H     1.0364250    3.8837840   -0.1778230  
H     4.0716660    5.6604330   -0.7379750  
H     6.2595790    3.5522640   -0.9702860  
H     5.3725340    1.4036710   -0.5675830  
H     0.9177320   -1.1392630    0.0530250  
C    -0.3765840    1.2256920    0.0761320  
C    -1.3891740    0.2837750   -0.0064030  
C    -2.5982020    1.0301560    0.1521280  
C    -2.1367910    2.4468470    0.3318350  
N    -0.8317930    2.5421920    0.2863920  
C    -3.0484310    3.5366800    0.5091270  
C    -4.3690140    3.2362070    0.5052310  
O    -5.3429270    4.1324450    0.6584150  
C    -4.8816990    1.8093090    0.3689690  
O    -6.0930310    1.6675200    0.5243180  
C    -3.9346540    0.7032050    0.1410670  
H    -1.3004870   -0.7585060   -0.2721580  
H    -2.6805560    4.5492010    0.6297150  
H    -6.1765010    3.6035700    0.6559490  
C    -2.9759410   -3.1146480    2.1470920  
C    -3.8749220   -3.9231500    1.5305070  
C    -4.6074980   -3.1080680    0.5840080  
C    -4.0506540   -1.7386420    0.7022680  
N    -3.0837890   -1.8058050    1.6851700  
C    -4.4766080   -0.6510420   -0.0140730  
C    -5.5229650   -0.9049720   -1.0321860  
O    -5.8653520   -0.0651500   -1.8454180  
C    -6.1779780   -2.3307010   -1.1084970  
O    -7.1178040   -2.5020780   -1.8689340  
C    -5.6269390   -3.3928710   -0.2707330  
H    -4.0245250   -4.9771640    1.7131810  
H    -6.0669820   -4.3821200   -0.3508290  
H    -2.2477120   -3.3535070    2.9109420  
H    -2.4261480   -1.0633920    1.8764120  
C     6.9355990   -0.9911670    1.6655490  
C     5.7389190   -0.4383810    1.3360390  
C     5.0516700   -1.3692210    0.4632470  
C     5.9544420   -2.5358370    0.3289820  
N     7.0913330   -2.2273260    1.0492940  
C     5.6815370   -3.6721120   -0.3682830  
C     4.3833510   -3.7785180   -1.0017640  
O     4.0245180   -4.7371260   -1.6696660  
C     3.3614340   -2.5981880   -0.7974230  
O     2.2164940   -2.7730130   -1.1771760  
C     3.8112380   -1.3365030   -0.1371480  
H     5.3579950    0.5077750    1.6866110  
H     6.3781520   -4.4992890   -0.4613280  
H     7.7159270   -0.6070750    2.3090470  
H     7.8576790   -2.8634420    1.2046090  
