58


C    -0.1865620    2.8464610   -0.0654910  
C     0.4639240    4.0603630   -0.0756730  
C    -0.5351360    5.0885450   -0.1697780  
C    -1.8481110    4.3915870   -0.2189030  
N    -1.5635060    3.0462790   -0.1434030  
C    -3.0448190    5.0243130   -0.3183100  
C    -3.0588550    6.4830960   -0.3762760  
O    -4.0861960    7.1376420   -0.4644630  
C    -1.6820980    7.2416130   -0.3197650  
O    -1.6726610    8.4620210   -0.3645700  
C    -0.4539690    6.4487610   -0.2154450  
H     1.5321180    4.2110990   -0.0149540  
H    -3.9950260    4.5009180   -0.3555200  
H     0.4908700    6.9826350   -0.1803700  
H    -2.2187110    2.2800440   -0.1890840  
C     0.3337460    1.5082610    0.0097140  
C     1.6322770    1.0748110    0.0155600  
C     1.5570990   -0.3586950    0.0846660  
C     0.0860740   -0.6654240    0.1140980  
N    -0.6112050    0.4333890    0.0664440  
C    -0.4389430   -2.0270810    0.1533480  
C     0.5193870   -3.0181790    0.1637430  
O     0.2678250   -4.3165090    0.2587780  
C     2.0046540   -2.7294940    0.1409470  
O     2.7527790   -3.6993830    0.2416950  
C     2.5030780   -1.3400270    0.0621930  
H     2.5318180    1.6700140   -0.0372050  
H     1.1534040   -4.7524130    0.2706500  
C     5.5408780    0.9314780    2.4632520  
C     4.3535200    0.4329590    2.0390400  
C     4.6744140   -0.3509950    0.8542140  
C     6.1636320   -0.2072230    0.7186830  
N     6.6584150    0.5436280    1.6600810  
C     6.8971070   -0.8578440   -0.3329310  
C     6.2016610   -1.6183390   -1.2106890  
O     6.7557350   -2.2680470   -2.2435130  
C     4.7072400   -1.7740340   -1.1196660  
O     4.1489340   -2.4075370   -2.0087380  
C     3.9555740   -1.1203650   -0.0039760  
H     3.3768450    0.5723230    2.4790180  
H     7.9714050   -0.7301200   -0.4041910  
H     6.0147990   -2.7072580   -2.7151570  
H     5.7233570    1.5657810    3.3227430  
C    -1.8680380   -2.2866170    0.1806170  
C    -2.8836910   -1.4263050    0.5069280  
C    -4.1032350   -2.1906770    0.3765390  
C    -3.6425080   -3.5452630   -0.0672470  
N    -2.3505100   -3.6006110   -0.1782200  
C    -4.5763850   -4.6125400   -0.3253280  
C    -5.8921230   -4.3537500   -0.1414520  
O    -6.8722560   -5.2469650   -0.3370160  
C    -6.3860100   -2.9994080    0.3137340  
O    -7.6007790   -2.8608080    0.4526880  
C    -5.4163110   -1.9239380    0.5629280  
H    -2.7922740   -0.3953750    0.8060700  
H    -4.2173890   -5.5828170   -0.6496670  
H    -7.7051640   -4.7690350   -0.1243450  
H    -5.8103030   -0.9641950    0.8831550  
