60


C    -0.8067140   -1.5590550   -0.8269630  
C     0.5621630   -1.6000750   -0.8685020  
C     1.0566650   -0.2645440   -0.6494470  
C    -0.1295210    0.5930500   -0.4753000  
N    -1.2261320   -0.2485050   -0.5589770  
C    -0.1268350    1.9465180   -0.2684850  
C     1.2012350    2.5694540   -0.1198450  
O     1.3604400    3.7140900    0.2625630  
C     2.4877080    1.7048450   -0.3871150  
O     3.5645980    2.2700950   -0.4305920  
C     2.3308890    0.2473630   -0.5935090  
H     1.1670140   -2.4900040   -0.9587640  
H    -2.1590600    0.0914550   -0.7440590  
C    -1.6577120   -3.7569570   -1.7135030  
C    -1.7795520   -2.6242450   -0.9520400  
C    -3.0628380   -2.7285420   -0.2593620  
C    -3.6647350   -4.0124830   -0.6908870  
N    -2.7536620   -4.5822550   -1.5665530  
C    -4.8651110   -4.4786690   -0.2680550  
C    -5.6236370   -3.6764100    0.6946230  
O    -6.7160460   -4.0104700    1.1218760  
C    -4.9828220   -2.3341680    1.1998390  
O    -5.5676790   -1.6686580    2.0403950  
C    -3.6877520   -1.9314610    0.6451600  
H    -5.2918840   -5.4210320   -0.5969850  
H    -3.2634770   -0.9994360    1.0003730  
H    -0.8511310   -4.0360630   -2.3784830  
H    -2.8975270   -5.4469270   -2.0657090  
C    -3.7665880    1.7076420    2.2683390  
C    -4.4393390    2.7761810    1.7756150  
C    -3.6175680    3.3735970    0.7429300  
C    -2.3903310    2.5466380    0.6647310  
N    -2.5562700    1.5232580    1.5901190  
C    -1.3350020    2.7792640   -0.1729500  
C    -1.4776690    3.9284450   -1.1032640  
O    -0.6801910    4.1462080   -1.9966070  
C    -2.7447500    4.8500370   -0.9864830  
O    -2.8120800    5.8422090   -1.6946970  
C    -3.7943300    4.4676020   -0.0457210  
H    -5.4179650    3.1141060    2.0841650  
H    -4.6800210    5.0930170    0.0086610  
H    -4.0650060    1.0011120    3.0317140  
H    -1.7791340    0.9941680    1.9596630  
C     3.5768740   -1.3935950   -1.9725320  
C     4.7823570   -2.0304940   -1.9416040  
C     5.4738640   -1.5810770   -0.7633270  
C     4.6328490   -0.6442260   -0.1142880  
N     3.4590080   -0.5379930   -0.8704230  
C     4.9805810   -0.0416300    1.0993590  
C     6.2092360   -0.3715900    1.6507740  
O     6.5965450    0.1967040    2.8293000  
C     7.0701640   -1.2963250    1.0050020  
O     8.2553900   -1.5241190    1.6773900  
C     6.7164050   -1.9022960   -0.1868610  
H     5.1510390   -2.7250260   -2.6845070  
H     4.3529960    0.6844570    1.6003090  
H     7.4925800   -0.1267730    3.0250560  
H     8.8321610   -2.0822470    1.1353080  
H     7.3834080   -2.6198680   -0.6606730  
H     2.7884730   -1.4177210   -2.7102210  
