60


C    -3.9968650   -0.2108180   -0.3711770  
C    -2.6589320    0.1870970   -0.3452470  
C    -2.6388790    1.6097300   -0.3900840  
C    -3.9930430    2.0481500   -0.4441330  
N    -4.7825660    0.9273360   -0.4421170  
C    -4.3551660    3.3994720   -0.4974230  
C    -3.3371450    4.3400290   -0.4839390  
O    -3.6351470    5.6673200   -0.5216140  
C    -1.9762260    3.9349190   -0.4268530  
O    -1.0657470    4.9648890   -0.4299720  
C    -1.6212080    2.5922920   -0.3893340  
H    -1.8022250   -0.4511250   -0.1891170  
H    -5.7924860    0.8690100   -0.3715810  
H    -5.3884260    3.7269080   -0.5379620  
H    -2.7985470    6.1600700   -0.4592440  
H    -0.1977380    4.6172360   -0.1666620  
C     0.5912880    2.2561910   -1.5101860  
C     1.8034550    1.6985310   -1.2486970  
C     1.7944210    1.2646020    0.1277160  
C     0.4538850    1.6064790    0.6516210  
N    -0.2327650    2.2499520   -0.3814090  
C     0.0019820    1.3066200    1.8961200  
C     0.9011330    0.5921670    2.7960000  
O     0.5682370    0.2138750    3.9075910  
C     2.3705640    0.3181560    2.3162450  
O     3.1772820   -0.0726440    3.1373940  
C     2.7344870    0.6201560    0.9031220  
H     2.6150200    1.5838700   -1.9502570  
H    -1.0016050    1.5400910    2.2346060  
H     0.2085960    2.6763930   -2.4311260  
C     4.0556470    0.2629920    0.4171180  
C     4.8749420    0.9665300   -0.4269550  
C     6.0617620    0.1573740   -0.5895450  
C     5.7855960   -1.0634270    0.2352460  
N     4.6281880   -1.0003600    0.8210310  
C     6.7350690   -2.1453210    0.3177720  
C     7.8999880   -2.0129320   -0.3581820  
O     8.8774290   -2.9312970   -0.3673100  
C     8.2115170   -0.7871230   -1.1849180  
O     9.2961190   -0.7609950   -1.7672360  
C     7.2244670    0.2969180   -1.2674570  
H     4.7147480    1.9569480   -0.8289990  
H     6.5100220   -3.0198840    0.9177860  
H     9.5833330   -2.5509480   -0.9368070  
H     7.4800720    1.1561480   -1.8800980  
C    -2.3208900   -4.2146070   -1.1159440  
C    -3.3983280   -4.9709390   -0.7886100  
C    -4.4672640   -4.0649140   -0.4253290  
C    -3.9106960   -2.7015250   -0.5509560  
N    -2.5972840   -2.8588850   -0.9415740  
C    -4.5983550   -1.5312390   -0.3148570  
C    -6.0357760   -1.6971440   -0.0177420  
O    -6.8218620   -0.7594400    0.0587720  
C    -6.6213860   -3.1427200    0.2052220  
O    -7.7859680   -3.2363300    0.5596090  
C    -5.7550160   -4.2851440   -0.0383380  
H    -3.4549620   -6.0495900   -0.7970990  
H    -6.1715560   -5.2791430    0.0880040  
H    -1.3391060   -4.5210930   -1.4515100  
H    -2.0470590   -2.1075180   -1.3309940  
