62


C     0.7432580    0.7214150   -0.4590100  
C     1.8843520   -0.0457420   -0.3902560  
C     3.0123130    0.8294960   -0.5007130  
C     2.4945070    2.1501990   -0.6194000  
N     1.1177480    2.0616120   -0.5577730  
C     3.3004740    3.2825930   -0.7454900  
C     4.6742690    3.0833240   -0.7468310  
O     5.5160580    4.1484960   -0.8942500  
C     5.2095310    1.7850200   -0.5958770  
O     6.6098490    1.7513880   -0.5693960  
C     4.4205180    0.6384360   -0.4605640  
H     1.9010130   -1.1175010   -0.2651160  
H     0.4861050    2.7899620   -0.8561340  
H     2.8999510    4.2852900   -0.8541950  
H     6.4180000    3.7846130   -0.9368150  
H     6.9066120    0.9622550   -1.0536000  
C    -1.1772160   -0.7995460   -1.0433920  
C    -0.6570900    0.3327550   -0.4554710  
C    -1.7735720    1.0289170    0.1501010  
C    -2.9342630    0.2591430   -0.1065480  
N    -2.5362670   -0.8618180   -0.8134980  
C    -4.2266150    0.6324190    0.3208470  
C    -4.3145330    1.8269540    1.0397870  
O    -5.5177300    2.2303840    1.5263380  
C    -3.1581390    2.5998630    1.3206340  
O    -3.4195800    3.7329710    2.0660830  
C    -1.8995150    2.2183710    0.8941280  
H    -3.1684360   -1.5059670   -1.2641380  
H    -5.3914890    3.1076770    1.9276160  
H    -2.6076830    4.2516320    2.1652030  
H    -1.0271490    2.8163900    1.1480900  
H    -0.6742390   -1.5614040   -1.6216080  
C    -5.2316520   -3.5066560    1.3819670  
C    -6.4544760   -3.6119790    0.7995680  
C    -6.7411720   -2.3421840    0.1645190  
C    -5.5647960   -1.4780560    0.4265430  
N    -4.6763480   -2.2531860    1.1521100  
C    -5.4270700   -0.1796050    0.0269890  
C    -6.5403430    0.3832810   -0.7693400  
O    -6.5024010    1.4942840   -1.2667700  
C    -7.8147410   -0.5068290   -1.0234940  
O    -8.7564900   -0.0164610   -1.6273730  
C    -7.8160470   -1.8824650   -0.5311600  
H    -7.0972790   -4.4801030    0.8085590  
H    -8.6953390   -2.4894120   -0.7240700  
H    -4.6794860   -4.2404120    1.9545560  
H    -3.8250360   -1.9001020    1.5621370  
C     7.5132780   -0.8115310    2.3441060  
C     7.5024190   -2.1350630    2.0402660  
C     6.5376260   -2.3232040    0.9787970  
C     5.9767230   -0.9788560    0.6899000  
N     6.5819320   -0.1115390    1.5843190  
C     5.0222130   -0.6997960   -0.2564250  
C     4.5919400   -1.8525120   -1.0845360  
O     3.8533640   -1.7386270   -2.0478970  
C     5.1155420   -3.2965320   -0.7316320  
O     4.6550660   -4.2442140   -1.3509310  
C     6.1194520   -3.4346100    0.3140850  
H     8.0928350   -2.9092460    2.5083490  
H     6.4930510   -4.4293100    0.5368970  
H     8.1088500   -0.2822350    3.0766710  
H     6.6221370    0.8844850    1.4124760  
