62


C    -1.5141660   -0.1441590    1.0782750  
C    -2.3163870   -1.1136830    0.5354260  
C    -3.2920850   -0.4672330   -0.3033220  
C    -3.0328210    0.9210240   -0.2183590  
N    -1.9373160    1.1000280    0.6339330  
C    -3.7671530    1.8588680   -0.9522440  
C    -4.7847600    1.3853930   -1.7668110  
O    -5.5296170    2.2650580   -2.4960040  
C    -5.0578110   -0.0040470   -1.8562740  
O    -6.0944730   -0.3177390   -2.7119060  
C    -4.3252980   -0.9315900   -1.1378080  
H    -3.5818960    2.9231560   -0.8983230  
H    -6.1727220    1.7457200   -3.0085600  
H    -6.1878290   -1.2798910   -2.7727300  
H    -4.5321410   -1.9949360   -1.2380490  
H    -0.6555330   -0.2319700    1.7240670  
C     2.2991260    1.9417650    0.3746400  
C     2.2987640    3.2991030    0.6097630  
C     0.9369500    3.6610420    0.8878770  
C     0.1859150    2.3738570    0.7352670  
N     0.9703580    1.3810520    0.4582790  
C    -1.2594100    2.3111040    0.8941680  
C    -1.8829040    3.4546820    1.2898940  
O    -3.1971580    3.5555870    1.5295430  
C    -1.1374180    4.7550700    1.4723330  
O    -1.8197930    5.7244060    1.8204210  
C     0.3001310    4.8064260    1.2448550  
H     3.1582540    3.9498680    0.6956280  
H    -3.3254740    4.5016390    1.7816740  
H     0.7943440    5.7633450    1.3780010  
C     5.8601640    2.7415250   -2.0921450  
C     6.4276970    1.4985330   -1.9993080  
C     5.5665360    0.7034470   -1.1703550  
C     4.4867930    1.5319810   -0.7756470  
N     4.6953460    2.7670920   -1.3435090  
C     3.3965360    1.0770540    0.0137690  
C     3.4661230   -0.2769720    0.4136180  
O     2.5524470   -0.8006270    1.2620530  
C     4.5362910   -1.1188630    0.0117020  
O     4.5252040   -2.4061490    0.5206100  
C     5.5814040   -0.6432650   -0.7567470  
H     7.3482500    1.1806100   -2.4687940  
H     4.0243160    3.5202090   -1.3242380  
H     2.8962980   -1.6939780    1.4738310  
H     3.8781290   -2.9509110    0.0194300  
H     6.3889060   -1.3170050   -1.0266670  
H     6.1897380    3.6251340   -2.6198570  
C    -3.2679010   -3.3314960    1.1360050  
C    -2.9116980   -4.6390040    1.1584590  
C    -1.5234370   -4.7062020    0.7558660  
C    -1.0990450   -3.3044320    0.4940380  
N    -2.2047420   -2.5083930    0.7361850  
C     0.1558570   -2.9373450    0.1030000  
C     1.1402330   -3.9813340   -0.0724400  
O     2.3127470   -3.7744230   -0.3895850  
C     0.7111240   -5.4763930    0.1625780  
O     1.5339620   -6.3595900   -0.0167030  
C    -0.6615660   -5.7432750    0.5972180  
H    -3.5390400   -5.4737100    1.4353870  
H     0.4461610   -1.9037240   -0.0512600  
H    -0.9436390   -6.7770230    0.7718070  
H    -4.2129070   -2.8666560    1.3832910  
