58


C     3.7144390   -1.4150380   -1.7759320  
C     3.5477120   -0.5333580   -0.7435950  
C     4.7926580   -0.5802530    0.0340000  
C     5.6694550   -1.5676540   -0.6418700  
N     4.9488540   -2.0409210   -1.7240130  
C     6.9186120   -1.9072090   -0.2356320  
C     7.4477750   -1.2800300    0.9709400  
O     8.5572260   -1.5237350    1.4198990  
C     6.5264920   -0.2552900    1.7257310  
O     6.9314210    0.2563430    2.7564570  
C     5.2012220    0.0456870    1.1655040  
H     7.5397080   -2.6298950   -0.7560880  
H     4.6006320    0.7875830    1.6781000  
H     3.0307740   -1.6357410   -2.5848990  
H     5.3261600   -2.6369570   -2.4445010  
C    -0.7830280   -1.5668160   -0.7840600  
C     0.5876270   -1.5931320   -0.8015140  
C     1.0710450   -0.2532160   -0.5787390  
C    -0.1315440    0.5900220   -0.4267950  
N    -1.2192230   -0.2606470   -0.5323670  
C    -0.1480210    1.9436180   -0.2313860  
C     1.1705960    2.5800410   -0.0483430  
O     1.3028440    3.7352610    0.3109170  
C     2.4688650    1.7161100   -0.2444240  
O     3.5440430    2.2894620   -0.1933140  
C     2.3454650    0.2635240   -0.4960840  
H     1.1970380   -2.4826970   -0.8634510  
H    -2.1526870    0.0695450   -0.7317170  
C    -3.8453180    1.7157830    2.2237460  
C    -4.5155800    2.7685860    1.6958940  
C    -3.6752820    3.3545160    0.6713620  
C    -2.4389680    2.5374930    0.6371040  
N    -2.6174560    1.5294090    1.5764340  
C    -1.3665420    2.7656860   -0.1795430  
C    -1.4967590    3.8951150   -1.1348200  
O    -0.6800060    4.1027120   -2.0131240  
C    -2.7750100    4.8054950   -1.0662370  
O    -2.8363320    5.7817000   -1.7963520  
C    -3.8429780    4.4312930   -0.1420180  
H    -5.5038740    3.1034110    1.9756730  
H    -4.7352230    5.0493500   -0.1206900  
H    -4.1546460    1.0209050    2.9934010  
H    -1.8433640    1.0193700    1.9781090  
C    -1.6048240   -3.7794020   -1.6662270  
C    -1.7451560   -2.6407950   -0.9166950  
C    -3.0403840   -2.7458580   -0.2455390  
C    -3.6280780   -4.0362090   -0.6766990  
N    -2.6983430   -4.6089720   -1.5315130  
C    -4.8331880   -4.5054250   -0.2716950  
C    -5.6136220   -3.6985450    0.6699720  
O    -6.7119080   -4.0346200    1.0795200  
C    -4.9890470   -2.3488530    1.1747360  
O    -5.5926860   -1.6779220    1.9972320  
C    -3.6852580   -1.9446500    0.6409890  
H    -5.2488270   -5.4530750   -0.5996870  
H    -3.2725220   -1.0077360    0.9968560  
H    -0.7866140   -4.0596660   -2.3162620  
H    -2.8304410   -5.4775050   -2.0273000  
