58


C    -3.4944040   -3.7235470   -1.3549840  
C    -4.6923120   -4.2353080   -0.9730720  
C    -5.3907240   -3.1918430   -0.2517060  
C    -4.4818020   -2.0244070   -0.2324350  
N    -3.3454740   -2.4157430   -0.9008580  
C    -4.7792320   -0.7939390    0.3119050  
C    -6.1022880   -0.6626390    0.9675930  
O    -6.4443600    0.3239790    1.5903140  
C    -7.0893440   -1.8862660    0.9171390  
O    -8.2064650   -1.7585290    1.3913800  
C    -6.6295630   -3.1354410    0.3082770  
H    -5.0634870   -5.2293060   -1.1753620  
H    -7.3183530   -3.9747980    0.2963330  
H    -2.6979050   -4.1864620   -1.9221760  
H    -2.5970920   -1.7813740   -1.1541800  
C    -3.8490940    0.3123340    0.2347370  
C    -2.4777880    0.2511500    0.2778170  
C    -2.0116950    1.5753140   -0.0259280  
C    -3.2726140    2.3697150   -0.2040150  
N    -4.3356400    1.6410160   -0.0359690  
C    -3.2407940    3.7712180   -0.5271560  
C    -2.0265330    4.3457230   -0.6832010  
O    -1.8399020    5.6350260   -1.0000500  
C    -0.7377240    3.5676370   -0.5455680  
O     0.3011350    4.1761090   -0.7977840  
C    -0.7765690    2.1352730   -0.1627730  
H    -1.8601870   -0.5985650    0.5251270  
H    -4.1652350    4.3254900   -0.6429060  
H    -0.8651120    5.7430740   -1.0745190  
C     0.8146300   -1.5238360   -2.0871620  
C     2.0774100   -1.5691710   -1.6051920  
C     2.1783730   -0.4299760   -0.7026170  
C     0.8236800    0.2165160   -0.7691410  
N     0.0338580   -0.4423900   -1.5715620  
C     0.5048360    1.4182850   -0.0131560  
C     1.4875240    1.8785680    0.8154090  
O     1.3343240    2.9357330    1.6172290  
C     2.8489630    1.2483760    0.9079540  
O     3.6773760    1.8004150    1.6239760  
C     3.1612690    0.0284750    0.1100100  
H     2.8564030   -2.2824300   -1.8312960  
H     2.2024870    3.0701380    2.0580650  
H     0.3523270   -2.1975780   -2.7992090  
C     6.5658620   -0.9117430   -2.6539810  
C     5.3575510   -0.4965340   -2.2030820  
C     5.3746010   -0.7703000   -0.7715280  
C     6.7320360   -1.3668310   -0.5329240  
N     7.4181330   -1.4468800   -1.6358330  
C     7.1656580   -1.7661470    0.7792480  
C     6.3065060   -1.5872540    1.8096830  
O     6.5749220   -1.9259150    3.0788040  
C     4.9312310   -1.0099890    1.6079210  
O     4.1873110   -0.9617980    2.5819840  
C     4.5012280   -0.5685510    0.2468730  
H     4.5501440   -0.0533110   -2.7675360  
H     8.1515970   -2.1955530    0.9173030  
H     5.7680500   -1.7048830    3.5929120  
H     6.9422220   -0.8758100   -3.6694860  
