58


C    -4.0405370    0.1799540   -0.1666300  
C    -2.6531680    0.2328650   -0.1232420  
C    -2.2455880    1.5839960   -0.3516590  
C    -3.4940030    2.3555240   -0.5309610  
N    -4.5273460    1.4522720   -0.4414070  
C    -3.5631880    3.6984000   -0.7353910  
C    -2.3218440    4.4466660   -0.7513300  
O    -2.2590220    5.6560480   -0.9141090  
C    -0.9724940    3.6637430   -0.5305060  
O     0.0562180    4.3200610   -0.5015600  
C    -0.9937410    2.1860990   -0.3823370  
H    -1.9927540   -0.5635600    0.1806690  
H    -4.4977060    4.2329520   -0.8707790  
H    -5.5191940    1.6552060   -0.3908560  
C     0.4371960    0.1578610   -0.8258210  
C     0.2384700    1.4240700   -0.3297470  
C     1.5531020    1.7577870    0.2829590  
C     2.3865500    0.5495240    0.0368160  
N     1.7182600   -0.3713880   -0.6104300  
C     3.7536660    0.4346610    0.4992060  
C     4.2343390    1.4722130    1.2396680  
O     5.4729490    1.5172640    1.7490470  
C     3.4096630    2.6894320    1.5306260  
O     3.9265610    3.5783300    2.2060340  
C     2.0325170    2.7888910    1.0027550  
H     5.5257520    2.3794010    2.2194850  
H     1.4865500    3.7007230    1.2069050  
H    -0.2729650   -0.4268840   -1.3974660  
C     5.1840840   -1.1298690   -3.3441100  
C     5.8377650   -2.2561440   -2.9794690  
C     5.7160490   -2.3096920   -1.5254590  
C     4.9085630   -1.0932110   -1.1833380  
N     4.6138780   -0.4050800   -2.2448040  
C     4.5626610   -0.7634570    0.1897410  
C     5.0437850   -1.5939710    1.1535180  
O     4.8160630   -1.4268560    2.4647770  
C     5.8627000   -2.8161880    0.8342990  
O     6.2341460   -3.5113570    1.7787870  
C     6.1797820   -3.1360560   -0.5688270  
H     6.3562220   -2.9661750   -3.6086330  
H     5.2814840   -2.1729710    2.9044400  
H     6.7813970   -4.0209820   -0.7531970  
H     5.0527370   -0.7285820   -4.3420130  
C    -3.3763920   -4.1792430   -0.2796090  
C    -4.6046140   -4.5974920    0.1103160  
C    -5.4201000   -3.4156350    0.3011820  
C    -4.5486990   -2.2583990    0.0057230  
N    -3.3236800   -2.7822620   -0.3156970  
C    -4.9412830   -0.9314670    0.0488350  
C    -6.3766960   -0.7016390    0.3079290  
O    -6.9130350    0.3964730    0.2213540  
C    -7.2891690   -1.9146790    0.7144330  
O    -8.4410710   -1.6841450    1.0422710  
C    -6.7223880   -3.2577520    0.6641310  
H    -4.9252800   -5.6196720    0.2476990  
H    -7.3711130   -4.0924460    0.9099180  
H    -2.4950870   -4.7527560   -0.5327510  
H    -2.5822250   -2.2463660   -0.7420600  
