60


C     0.7784920   -0.1083820   -0.4393920  
C     0.6115750    1.2569390   -0.2713410  
C     1.8824040    1.7516670    0.2309650  
C     2.7510280    0.6381680    0.3461140  
N     2.0426730   -0.4791880   -0.0633430  
C     4.0712630    0.7162130    0.8458460  
C     4.4808560    1.9853440    1.2641530  
O     5.7327280    2.1667080    1.7822770  
C     3.6232920    3.1079890    1.1585890  
O     4.1970450    4.2854630    1.6033340  
C     2.3424370    3.0121910    0.6546570  
H     2.4371860   -1.4002140   -0.1821110  
H     5.8416050    3.1262600    1.9124320  
H     3.6750150    5.0370910    1.2843000  
H     1.7185390    3.8938180    0.5626780  
H     0.0955330   -0.8337360   -0.8575600  
C    -3.6515410    0.2023660    0.3829170  
C    -2.2872870    0.2402130    0.3986210  
C    -1.8771500    1.4455770   -0.2820280  
C    -3.1231970    2.1216130   -0.6955100  
N    -4.1746650    1.2867190   -0.3273540  
C    -3.2011020    3.3348400   -1.2978030  
C    -1.9553430    4.0291080   -1.5695880  
O    -1.8954610    5.1429990   -2.0675100  
C    -0.6029640    3.3097690   -1.1973040  
O     0.4329300    3.8999510   -1.4575860  
C    -0.6314660    1.9723580   -0.5514720  
H    -1.6362250   -0.5096700    0.8192430  
H    -4.1367130    3.8073700   -1.5792720  
H    -5.1118640    1.6327770   -0.1745900  
C    -4.1937410   -1.4036610    2.1682760  
C    -5.1917410   -2.2388330    2.5306230  
C    -6.2409230   -2.1290970    1.5367310  
C    -5.7634620   -1.1471730    0.5328300  
N    -4.5053020   -0.7146330    0.9791290  
C    -6.4488640   -0.8182730   -0.5905380  
C    -7.7646090   -1.4279630   -0.8077030  
O    -8.4477280   -1.1795050   -1.7872050  
C    -8.3042110   -2.4365180    0.2655190  
O    -9.4051920   -2.9378130    0.1119800  
C    -7.4454150   -2.7419360    1.4154330  
H    -5.2121560   -2.8644420    3.4112930  
H    -6.0736270   -0.1481350   -1.3549810  
H    -7.8079920   -3.4675950    2.1370400  
H    -3.2568640   -1.1854380    2.6612420  
C     5.7778090   -0.7509660    2.0033440  
C     4.9637890   -0.4495870    0.9470730  
C     5.1959700   -1.4906390   -0.0508250  
C     6.1813320   -2.4323900    0.5439050  
N     6.4866270   -1.9233490    1.7896520  
C     6.6582620   -3.5433920   -0.0712380  
C     6.1872820   -3.8506990   -1.4188210  
O     6.5453640   -4.8383960   -2.0413990  
C     5.1772910   -2.8508290   -2.0888800  
O     4.7842280   -3.0778970   -3.2224960  
C     4.7378570   -1.6821990   -1.3200410  
H     7.3819510   -4.2123520    0.3846300  
H     4.0718360   -0.9839260   -1.8164940  
H     5.9131600   -0.1942270    2.9194970  
H     7.1764160   -2.3074250    2.4162540  
