58


C    -4.4663410    2.3789960   -2.6086330  
C    -5.6836440    2.4934310   -2.0201260  
C    -5.6705640    1.6559920   -0.8380350  
C    -4.3230970    1.0380570   -0.7852010  
N    -3.6428630    1.5226890   -1.8812460  
C    -3.9057320    0.1402440    0.1619460  
C    -4.8625420   -0.1686160    1.2481810  
O    -4.5583130   -0.8377000    2.2196420  
C    -6.3075950    0.4432580    1.1795860  
O    -7.1180640    0.1264300    2.0349000  
C    -6.6183920    1.3753360    0.0959360  
H    -6.5141220    3.0889550   -2.3698480  
H    -7.6169140    1.8004230    0.0653700  
H    -4.0920030    2.8416130   -3.5122250  
H    -2.6955070    1.2727180   -2.1210240  
C     0.3285580    1.6189400    0.1313940  
C    -1.0503490    1.5834340    0.1152570  
C    -1.3849630    0.1930950    0.1232680  
C    -0.0608490   -0.5160430    0.1116980  
N     0.9328320    0.3482090    0.1277060  
C     0.0706920   -1.9503750    0.1084800  
C    -1.1181460   -2.6257850    0.2304970  
O    -1.1992620   -3.9399090    0.3579300  
C    -2.4822490   -1.9504210    0.2117700  
O    -3.4478000   -2.7076540    0.1849970  
C    -2.5777450   -0.4821260    0.1709360  
H    -1.7456500    2.4079240    0.1418290  
H    -2.1643540   -4.1493510    0.3488540  
C     4.0996160   -1.5297780    1.9602080  
C     4.7200280   -2.5839660    1.3746950  
C     3.7629630   -3.2046000    0.4845900  
C     2.5091920   -2.4177810    0.6210220  
N     2.7623300   -1.4443110    1.5682970  
C     1.3478270   -2.6720440   -0.0576570  
C     1.4159010   -3.7372050   -1.0854430  
O     0.5251830   -3.9313500   -1.8951680  
C     2.7012990   -4.6370350   -1.1675850  
O     2.6915090   -5.5953160   -1.9243830  
C     3.8511600   -4.2779680   -0.3448660  
H     5.7405650   -2.9007370    1.5324800  
H     4.7473540   -4.8848510   -0.4289570  
H     4.4944420   -0.8100810    2.6652830  
H     2.2307620   -0.5793300    1.5554200  
C     0.6368790    4.0310190    0.4239960  
C     1.6245030    4.9511760    0.4464290  
C     2.8751000    4.2634680    0.2044550  
C     2.5381670    2.8299060    0.0287290  
N     1.1357930    2.7353680    0.1836880  
C     3.4573220    1.8762710   -0.2532270  
C     4.8696510    2.2723400   -0.3412880  
O     5.7581470    1.4642160   -0.5538360  
C     5.2417140    3.7813160   -0.1446550  
O     6.4093990    4.1252630   -0.2202840  
C     4.1493360    4.7216490    0.1233410  
H     1.5043250    6.0102760    0.6250360  
H     3.2023960    0.8376610   -0.4096380  
H     4.4020060    5.7704960    0.2452190  
H    -0.4225500    4.1636590    0.5845110  
