58


C    -2.7045960   -1.2261600    0.1500800  
C    -3.4196640   -0.0667610   -0.0473660  
C    -4.8154580   -0.3845740    0.0846170  
C    -4.8893020   -1.8375900    0.3809390  
N    -3.5910620   -2.2839280    0.4130730  
C    -6.0474820   -2.5231080    0.5710040  
C    -7.3072130   -1.7959460    0.4855150  
O    -8.3986950   -2.3247910    0.6429100  
C    -7.2533310   -0.2533840    0.1762100  
O    -8.3008020    0.3724870    0.1044990  
C    -5.9437240    0.3734880   -0.0133970  
H    -2.9902570    0.8966060   -0.2713860  
H    -6.0818000   -3.5869150    0.7853450  
H    -5.9168080    1.4371090   -0.2300660  
H    -3.2945900   -3.2394400    0.5415060  
C     0.5961170    1.6514330   -0.2708460  
C     1.6742280    0.8068250   -0.2880990  
C     1.1472100   -0.5229500   -0.1383810  
C    -0.3346190   -0.3218060   -0.0497260  
N    -0.6464040    0.9313170   -0.1324550  
C    -1.2695760   -1.4401490    0.1058560  
C    -0.6756610   -2.6711900    0.1950930  
O    -1.3516050   -3.8251270    0.3653830  
C     0.8037570   -2.8958350    0.1225810  
O     1.1846460   -4.0592470    0.2773260  
C     1.7217260   -1.7574550   -0.0952720  
H     2.7135210    1.0645190   -0.4138970  
H    -0.6486470   -4.5180950    0.4120680  
C     5.1905050   -0.2962900    2.2341300  
C     6.2104090   -0.9955330    1.6885650  
C     5.6003600   -1.7931370    0.6301520  
C     4.1444190   -1.4300910    0.6898970  
N     3.9180740   -0.5520670    1.6228530  
C     3.1663600   -2.0384250   -0.2007720  
C     3.6562220   -2.9228010   -1.1177230  
O     2.9005190   -3.5242600   -2.0401330  
C     5.1171440   -3.2880650   -1.2040140  
O     5.4452850   -4.0943970   -2.0703980  
C     6.0747440   -2.6777670   -0.2671170  
H     7.2555120   -0.9866460    1.9647580  
H     3.5099770   -4.1085830   -2.5451900  
H     7.1158590   -2.9732540   -0.3533060  
H     5.2286510    0.4069340    3.0574960  
C     3.3651060    4.7368920    1.2956890  
C     2.7518520    3.5611180    0.9796080  
C     1.5676290    3.8822660    0.2221590  
C     1.5282770    5.3591940    0.1357110  
N     2.6641070    5.8138750    0.7809620  
C     0.5366350    6.0843040   -0.4426790  
C    -0.5904580    5.3635930   -1.0201180  
O    -1.5608480    5.9228310   -1.5045650  
C    -0.5432380    3.7924610   -1.0320850  
O    -1.3992870    3.2062480   -1.6666190  
C     0.5724300    3.0973550   -0.3292020  
H     3.0793960    2.5749620    1.2708070  
H     0.5254920    7.1696270   -0.4697620  
H     4.2709150    4.9045540    1.8633010  
H     2.8812200    6.7848160    0.9440110  
