60


C     1.6768800   -0.2588770    0.3152090  
C     0.7145380    0.7256350    0.3280110  
C     1.4214100    1.9916400    0.2107990  
C     2.8024570    1.7032660    0.1423980  
N     2.9451580    0.3042520    0.1841130  
C     3.7830900    2.7026080    0.1143830  
C     3.3503650    4.0212570    0.1036060  
O     4.2620970    5.0270940    0.0591460  
C     1.9650820    4.3277320    0.1408670  
O     1.6937130    5.6763030    0.1181070  
C     1.0062310    3.3351530    0.2095270  
H     4.8459600    2.4958500    0.1250750  
H     3.7710850    5.8675440    0.0407000  
H     0.7400100    5.8196460    0.0205820  
H    -0.0474460    3.5904450    0.2303450  
H     1.5674930   -1.3319000    0.2577080  
C    -1.4923340   -2.1340040    2.7971550  
C    -2.7632680   -1.8799340    2.3821650  
C    -2.6895560   -0.8183350    1.4053780  
C    -1.2606750   -0.4742360    1.2714420  
N    -0.5869790   -1.3260460    2.1281530  
C    -0.7255120    0.4880050    0.4498450  
C    -1.6995830    1.2419450   -0.3555270  
O    -1.3857840    2.0842980   -1.1807020  
C    -3.2401040    0.9632990   -0.1716040  
O    -4.0280210    1.7109990   -0.7219080  
C    -3.6568990   -0.1569070    0.6899920  
H    -3.6553510   -2.3947900    2.7052500  
H    -1.1392120   -2.8580430    3.5193760  
H     0.3908070   -1.2170260    2.3553580  
C    -5.6805270   -0.3962560    2.1221440  
C    -7.0057830   -0.6444740    1.9950360  
C    -7.2777920   -0.8398490    0.5868220  
C    -5.9798860   -0.6777770   -0.1115690  
N    -5.0283750   -0.4038290    0.8793280  
C    -5.8124520   -0.8335860   -1.4463050  
C    -6.9852030   -1.1515170   -2.2626480  
O    -6.9232510   -1.3162090   -3.4705870  
C    -8.3752170   -1.2959930   -1.5451940  
O    -9.3645890   -1.5527370   -2.2126190  
C    -8.4193250   -1.1286810   -0.0904680  
H    -7.7305960   -0.6746400    2.7958920  
H    -4.8601220   -0.7203790   -1.9507020  
H    -9.3778600   -1.2544760    0.4038320  
H    -5.1026060   -0.1803220    3.0104990  
C     4.1039600   -0.4423460    0.0903630  
C     4.3736190   -1.6793740    0.6100220  
C     5.6911810   -2.0541900    0.1690690  
C     6.1847190   -0.9275500   -0.6598540  
N     5.1950100    0.0534670   -0.6278860  
C     7.3747370   -0.9111380   -1.3024090  
C     8.2602960   -2.0688280   -1.1496900  
O     9.3528620   -2.1368180   -1.6887240  
C     7.7774880   -3.2570240   -0.2409410  
O     8.5122020   -4.2232690   -0.0971050  
C     6.4608550   -3.1575050    0.3835860  
H     3.7397200   -2.2403650    1.2803700  
H     7.7165410   -0.0804820   -1.9123150  
H     6.1299330   -3.9918560    0.9944220  
H     5.0873710    0.7456640   -1.3568780  
