58


C     5.1096210   -0.8035160    2.1825100  
C     3.8269240   -0.8994200    1.7499660  
C     3.8165730   -1.8079060    0.6245510  
C     5.2267910   -2.2421420    0.4375290  
N     5.9564130   -1.5983890    1.4148470  
C     5.6584810   -3.1186300   -0.5053270  
C     4.6772030   -3.6754550   -1.4216750  
O     4.9527710   -4.4882810   -2.2911220  
C     3.1852640   -3.2007250   -1.2867220  
O     2.3865520   -3.5696840   -2.1294250  
C     2.8108580   -2.2927120   -0.1703060  
H     2.9844940   -0.3476540    2.1330940  
H     6.6929990   -3.4344430   -0.5990190  
H     5.5157000   -0.2132410    2.9931760  
H     6.9491490   -1.7013450    1.5524690  
C     0.7237930    1.5966320   -0.0530550  
C    -0.5889030    1.1985040   -0.0587690  
C    -0.5597170   -0.2423600   -0.0427080  
C     0.9015400   -0.5777670   -0.0403510  
N     1.6371340    0.4972160   -0.0470880  
C     1.3843030   -1.9446950   -0.0294170  
C     0.4197010   -2.9078560    0.0640360  
O     0.6955670   -4.2099360    0.1582710  
C    -1.0585300   -2.6126960    0.0650170  
O    -1.8107910   -3.5803170    0.0612830  
C    -1.5348540   -1.1992840    0.0142230  
H    -1.4635890    1.8283660    0.0039670  
H    -0.1749290   -4.6685100    0.1434260  
C    -2.9607160   -0.9184530    0.0036160  
C    -3.6112100    0.0495910   -0.7140500  
C    -5.0122090   -0.0875800   -0.3727890  
C    -5.0386700   -1.2150350    0.6123560  
N    -3.8511760   -1.6990730    0.8249820  
C    -6.2697810   -1.6553800    1.2180100  
C    -7.4121270   -1.0272660    0.8523060  
O    -8.6268290   -1.3357000    1.3274470  
C    -7.4174110    0.1028110   -0.1487110  
O    -8.5011690    0.6164130   -0.4200750  
C    -6.1460650    0.5448660   -0.7469370  
H    -3.1873790    0.7303090   -1.4385340  
H    -6.2619540   -2.4708260    1.9324070  
H    -9.2484260   -0.7179830    0.8822230  
H    -6.1895710    1.3659080   -1.4560770  
C    -0.4123400    5.3866330   -2.1119000  
C    -0.3983160    4.0854980   -1.7246410  
C     0.6906560    3.9854190   -0.7670900  
C     1.2502300    5.3737120   -0.7150950  
N     0.5976470    6.1862960   -1.4980770  
C     2.3845140    5.7035290    0.1039710  
C     2.9416610    4.7104960    0.8347450  
O     3.9950410    4.8784400    1.6489020  
C     2.3907960    3.3060410    0.8366370  
O     2.9056130    2.5145330    1.6197900  
C     1.2289460    2.9617510   -0.0429440  
H    -1.0353390    3.2827420   -2.0648290  
H     2.7651900    6.7186450    0.1229890  
H     4.1381000    4.0030600    2.0717810  
H    -1.0806260    5.8592370   -2.8222270  
