60


C    -4.4059800   -0.4184050   -0.6994090  
C    -5.0659550   -1.6098480   -0.5293880  
C    -4.0689270   -2.5809150   -0.1808680  
C    -2.8187870   -1.9108130   -0.1621010  
N    -3.0406790   -0.6032210   -0.5420240  
C    -1.5998880   -2.5425790    0.1823780  
C    -1.7133230   -3.8824380    0.5878660  
O    -0.6282640   -4.5509070    1.0579490  
C    -2.9578550   -4.5650900    0.5554940  
O    -2.8686760   -5.8838890    0.9594030  
C    -4.1253570   -3.9451650    0.1611320  
H    -6.1325380   -1.7661120   -0.6111810  
H    -2.3904550    0.1263700   -0.2663860  
H    -0.9219570   -5.4526650    1.2789220  
H    -3.7555770   -6.2681300    1.0199700  
H    -5.0660570   -4.4912390    0.1463150  
C    -0.1853150    1.3989170    1.6355190  
C     1.1530240    1.3019900    1.4405280  
C     1.3631650    0.0315710    0.7727920  
C    -0.0101600   -0.5687890    0.6870700  
N    -0.9014440    0.2585360    1.1642660  
C    -0.2733380   -1.8871220    0.1280600  
C     0.8134460   -2.4925090   -0.4441020  
O     0.7492960   -3.6584170   -1.0979720  
C     2.1973650   -1.9318010   -0.3703280  
O     3.1005460   -2.6415190   -0.8272270  
C     2.4510790   -0.5795200    0.2113500  
H     1.9067870    2.0107970    1.7452370  
H     1.6740000   -3.8842480   -1.3376970  
H    -0.7485360    2.2131260    2.0787380  
C     3.7802810    0.0037980    0.1138370  
C     4.1481410    1.3311950    0.1868400  
C     5.5686980    1.4104120   -0.0121820  
C     6.0342410    0.0176250   -0.2209070  
N     4.9160960   -0.7792860   -0.1145090  
C     7.3242560   -0.3281890   -0.4647480  
C     8.3289650    0.7292720   -0.5206960  
O     9.5126510    0.5158200   -0.7339510  
C     7.8582660    2.2131600   -0.2935520  
O     8.6837250    3.1121390   -0.3343800  
C     6.4354070    2.4615660   -0.0426190  
H     3.4840240    2.1717920    0.3088930  
H     7.6481000   -1.3528080   -0.6178820  
H     6.1202830    3.4895500    0.1089730  
H     4.8481370   -1.7549070   -0.3688570  
C    -5.8352780    1.1276460   -2.0318290  
C    -6.1196170    2.4510360   -2.1018790  
C    -5.3387640    3.1158630   -1.0793170  
C    -4.5811620    2.0475590   -0.3820800  
N    -4.9139890    0.8509220   -1.0113140  
C    -3.7467490    2.2599090    0.6691890  
C    -3.5085840    3.6324270    1.0949600  
O    -2.6946780    3.9275170    1.9617300  
C    -4.3164710    4.7811090    0.3893710  
O    -4.1676080    5.9311370    0.7705640  
C    -5.2184900    4.4176990   -0.7083910  
H    -6.7914100    2.9252600   -2.8024960  
H    -3.2223740    1.4663410    1.1892790  
H    -5.7704480    5.2187710   -1.1905670  
H    -6.1958140    0.3069940   -2.6370790  
