60


C    -0.6582370    1.3619710    0.4775650  
C    -1.7821820    0.5261260    0.6044060  
C    -2.9360970    1.3130190    0.4015770  
C    -2.4866890    2.6454920    0.1384670  
N    -1.1224090    2.6413850    0.1983730  
C    -3.3634670    3.6967100   -0.1455080  
C    -4.7152530    3.3971350   -0.1679140  
O    -5.6156250    4.3714890   -0.4347460  
C    -5.1916070    2.0741730    0.1004390  
O    -6.5639920    1.9941210    0.0756830  
C    -4.3347520    1.0209470    0.3865430  
H    -1.7554650   -0.5430450    0.7441530  
H    -0.4856750    3.4026120   -0.0041990  
H    -3.0288760    4.7069210   -0.3533240  
H    -6.5023740    3.9681200   -0.4182790  
H    -6.8552080    1.0708880    0.1479730  
C     1.6660740   -2.1072240    2.0752060  
C     0.6835140   -1.2076160    1.8067440  
C     1.2759650   -0.1232290    1.0575900  
C     2.6877150   -0.4628200    0.9039580  
N     2.8604760   -1.6841580    1.4996020  
C     3.6704590    0.3133570    0.2880610  
C     3.2551520    1.6560190   -0.0769120  
O     4.0038960    2.5414950   -0.4843120  
C     1.7373660    2.0490640    0.0552240  
O     1.4477790    3.1972700   -0.2478070  
C     0.7411980    1.0557570    0.5440710  
H    -0.3368260   -1.2696980    2.1480200  
H     1.6318030   -3.0313610    2.6350060  
H     3.7725020   -2.0712660    1.6981820  
C     5.0252360   -0.1409370    0.0671880  
C     5.5570510   -1.4217700    0.0619360  
C     6.9577080   -1.3213770   -0.2314020  
C     7.2373430    0.1265140   -0.4035520  
N     6.0405310    0.7758520   -0.1993930  
C     8.4585860    0.6383630   -0.7024650  
C     9.5782950   -0.2841320   -0.8663160  
O    10.7119660    0.0862470   -1.1342160  
C     9.3053370   -1.8231710   -0.6877290  
O    10.2355410   -2.6071720   -0.8193310  
C     7.9470160   -2.2515100   -0.3682630  
H     5.0073790   -2.3491370    0.1263960  
H     8.6445020    1.7006150   -0.8268860  
H     7.7701370   -3.3165440   -0.2499940  
H     5.8326270    1.7546680   -0.3577880  
C    -4.5245810   -1.0904210    1.7797210  
C    -4.8436910   -0.3280390    0.6903420  
C    -5.7869640   -1.1222600   -0.0954010  
C    -5.9880440   -2.3935020    0.6445680  
N    -5.1803440   -2.3107850    1.7642230  
C    -6.8062610   -3.3967170    0.2424810  
C    -7.5468160   -3.2323880   -1.0084520  
O    -8.3147600   -4.0761200   -1.4405460  
C    -7.3297980   -1.9078600   -1.8257460  
O    -7.9191670   -1.7593680   -2.8829320  
C    -6.4190640   -0.8926820   -1.2799890  
H    -6.9376100   -4.3203760    0.7978100  
H    -6.2603760    0.0053670   -1.8694620  
H    -3.8655270   -0.8400410    2.6006510  
H    -5.1269640   -3.0094170    2.4891360  
