60


C    -1.8361250    0.0651600    1.1555460  
C    -3.1748930    0.0622610    0.8451820  
C    -3.4094770    1.2383190    0.0341100  
C    -2.1742990    1.9158370   -0.0955110  
N    -1.2115670    1.1796500    0.5982440  
C    -2.0334850    3.0944000   -0.8362210  
C    -3.1696850    3.6072260   -1.4413850  
O    -3.0886440    4.7521930   -2.1734550  
C    -4.4234590    2.9511230   -1.3059570  
O    -5.4574330    3.5892480   -1.9573590  
C    -4.5557900    1.7845990   -0.5768500  
H    -1.0928520    3.6232010   -0.9293210  
H    -3.9823220    4.9526770   -2.5015020  
H    -6.2748620    3.0795620   -1.8540760  
H    -5.5241460    1.2995710   -0.4839350  
H    -1.2687590   -0.6226900    1.7672920  
C     2.0733430   -1.3137160   -0.6061470  
C     3.1389090   -0.5445930   -0.1975160  
C     2.5627150    0.6797940    0.3757900  
C     1.0976920    0.5300210    0.2606870  
N     0.8749020   -0.6990240   -0.3328540  
C     0.1716430    1.4431510    0.6742150  
C     0.6725730    2.6858920    1.2884290  
O    -0.0608950    3.5525460    1.7284620  
C     2.2332090    2.8759080    1.3804560  
O     2.6567270    3.9229950    1.8394380  
C     3.1130490    1.7999700    0.9107770  
H     4.1853790    1.9239430    0.9947170  
H     2.0833710   -2.2828350   -1.0867380  
H    -0.0409700   -1.0571070   -0.5644850  
C     4.5298850   -0.8931190   -0.3237450  
C     5.0967660   -2.0244420   -0.8621300  
C     6.5150640   -1.8530260   -0.7323180  
C     6.6661030   -0.5117390   -0.0668710  
N     5.5104760    0.0381020    0.1669560  
C     7.9582580    0.0372270    0.2453640  
C     9.0439600   -0.7018590   -0.0835590  
O    10.3074710   -0.3287970    0.1411070  
C     8.9259160   -2.0596690   -0.7557390  
O     9.9828580   -2.6412720   -1.0072160  
C     7.6039270   -2.5951390   -1.0623820  
H     4.5958270   -2.8772640   -1.2992850  
H     8.0401460    1.0062840    0.7247040  
H    10.8577430   -1.0689680   -0.2060520  
H     7.5569860   -3.5673640   -1.5427570  
C    -4.3175350   -1.3565430    2.5954770  
C    -4.1527780   -0.9207650    1.3129170  
C    -5.1195700   -1.6616390    0.5054190  
C    -5.8532720   -2.5553450    1.4373190  
N    -5.3010800   -2.3376600    2.6832330  
C    -6.8520580   -3.3976210    1.0683300  
C    -7.2302650   -3.4518810   -0.3404040  
O    -8.1172030   -4.1757080   -0.7667350  
C    -6.4464820   -2.5356630   -1.3508250  
O    -6.7410870   -2.5730770   -2.5352650  
C    -5.3899400   -1.6643500   -0.8263970  
H    -7.3793020   -4.0406790    1.7664850  
H    -4.8569880   -1.0349380   -1.5317990  
H    -3.7985360   -1.0297880    3.4870230  
H    -5.6475520   -2.7347940    3.5424900  
