62


C    -1.5374990   -0.4931110   -0.6427630  
C    -0.9348850   -1.7041790   -0.4266160  
C    -1.8377230   -2.4641970    0.4237460  
C    -2.9681160   -1.6555270    0.6829910  
N    -2.7692250   -0.4346110    0.0207630  
C    -4.0506980   -2.1003990    1.4473390  
C    -3.9706110   -3.3754640    1.9914840  
O    -4.9992500   -3.8488700    2.7435000  
C    -2.8266780   -4.1866260    1.7734620  
O    -2.8895820   -5.4147770    2.3908670  
C    -1.7683820   -3.7494620    0.9963990  
H    -4.9384800   -1.5061200    1.6208400  
H    -4.7578500   -4.7418990    3.0455160  
H    -2.0696010   -5.9069370    2.2344210  
H    -0.9017440   -4.3849120    0.8349730  
H    -1.1756420    0.3647910   -1.1890230  
C     3.1222030    0.2712190   -0.3984660  
C     1.7786630   -0.0308480   -0.2287820  
C     1.5334470   -1.2998930   -0.8291810  
C     2.7738590   -1.7532780   -1.3596880  
N     3.7246860   -0.7989750   -1.0600260  
C     2.9157320   -2.9731370   -2.0253340  
C     1.7800070   -3.7590120   -2.1511340  
O     1.8512760   -4.9508330   -2.8047780  
C     0.5337680   -3.3365280   -1.6141630  
O    -0.4904290   -4.2338240   -1.8433750  
C     0.3789240   -2.1230090   -0.9485140  
H     1.0743460    0.5721260    0.3262420  
H     4.6310660   -0.7461330   -1.5000980  
H     3.8580100   -3.3181710   -2.4377520  
H     0.9528170   -5.3248850   -2.8217790  
H    -1.3344310   -3.8396050   -1.5681240  
C     3.4144140    2.7039830    0.2380580  
C     3.8664200    1.4334630    0.0066270  
C     5.3188200    1.5101820    0.3077340  
C     5.5362300    2.9311190    0.6855090  
N     4.4172320    3.6085850    0.6502030  
C     6.8345950    3.4214040    1.0566950  
C     7.8674830    2.5418250    1.0824260  
O     9.1307810    2.8713130    1.4099370  
C     7.6745380    1.0987580    0.7446130  
O     8.6518640    0.3503770    0.7895690  
C     6.3258320    0.6182550    0.3640500  
H     6.9638030    4.4663760    1.3163750  
H     9.6426020    2.0360840    1.3462860  
H     6.2290980   -0.4445020    0.1633490  
H     2.4011220    3.0679780    0.1199480  
C    -3.6036970    0.6666600    0.0264200  
C    -4.4836090    1.1129860    0.9730020  
C    -5.1039900    2.3058970    0.4559390  
C    -4.5126850    2.5334980   -0.8844160  
N    -3.5545370    1.5376670   -1.0716650  
C    -4.8738430    3.5305580   -1.7236900  
C    -5.8954060    4.4793350   -1.2729850  
O    -6.2799510    5.4094860   -1.9630230  
C    -6.5009830    4.2881710    0.1650180  
O    -7.3445660    5.0809160    0.5570270  
C    -6.0365000    3.1574170    0.9655540  
H    -4.6237080    0.6991620    1.9593830  
H    -4.4353920    3.6773370   -2.7061350  
H    -6.4750090    3.0236500    1.9496550  
H    -3.3070360    1.2063110   -1.9948170  
