60


C     1.6293570   -0.5154590   -0.8239090  
C     2.9167020   -0.0458180   -0.8116350  
C     2.8847810    1.3157210   -0.3401300  
C     1.5272090    1.6233630   -0.0931100  
N     0.7667030    0.4885070   -0.3988350  
C     1.1250880    2.8628130    0.4165040  
C     2.1111590    3.8058660    0.6585170  
O     1.7702120    5.0273540    1.1539280  
C     3.4784390    3.5132520    0.4004500  
O     4.3332540    4.5538740    0.6902440  
C     3.8746160    2.2851710   -0.0942050  
H     0.0892090    3.1165500    0.6033680  
H     2.5890800    5.5447570    1.2446860  
H     5.2485200    4.2849110    0.5208360  
H     4.9247230    2.0707100   -0.2758000  
H     1.2432210   -1.4740780   -1.1369920  
C    -1.6472540   -2.5818970    1.5724240  
C    -0.6192070   -1.7978160    1.1528380  
C    -1.1930730   -0.7100860    0.3910980  
C    -2.6564020   -0.9201740    0.4050530  
N    -2.8665610   -2.0643160    1.1544730  
C    -3.5886610   -0.1247080   -0.2030170  
C    -3.0706290    1.0698090   -0.8963190  
O    -3.7899790    1.9481280   -1.3347570  
C    -1.5154150    1.2665520   -1.0212670  
O    -1.0962430    2.1638960   -1.7281840  
C    -0.6285460    0.3423100   -0.2816130  
H     0.4287400   -1.9490540    1.3621420  
H    -1.6208000   -3.4858120    2.1663930  
H    -3.7594950   -2.5258500    1.2377110  
C    -6.4816120   -0.4951740    3.1161910  
C    -7.6128260   -0.7195740    2.4029210  
C    -7.2468690   -0.7296190    1.0004030  
C    -5.7842260   -0.4939790    0.9572270  
N    -5.3687000   -0.4074730    2.2770460  
C    -5.0377390   -0.3791750   -0.1814740  
C    -5.7567290   -0.5548600   -1.4651500  
O    -5.1810270   -0.5838830   -2.5374540  
C    -7.3118400   -0.7805530   -1.4361100  
O    -7.9086420   -0.8753690   -2.4961330  
C    -7.9773410   -0.8762120   -0.1368410  
H    -8.6064600   -0.8622320    2.8022080  
H    -9.0507950   -1.0381520   -0.1290710  
H    -6.3511810   -0.4040130    4.1865380  
H    -4.4820740   -0.0086540    2.5498860  
C     4.2943630   -1.1997120   -2.5500220  
C     5.4665080   -1.8763270   -2.6479790  
C     6.0600900   -1.8996260   -1.3287780  
C     5.1166030   -1.1729730   -0.4415640  
N     4.0541780   -0.7648570   -1.2415320  
C     5.3044190   -0.9862620    0.8901260  
C     6.5176990   -1.5225420    1.5001380  
O     6.7734570   -1.4044870    2.6895110  
C     7.5379450   -2.2868410    0.5772290  
O     8.5600120   -2.7368570    1.0723800  
C     7.2150160   -2.4290480   -0.8440130  
H     5.8833390   -2.3106240   -3.5451000  
H     4.5972090   -0.4567530    1.5193160  
H     7.9219390   -2.9654330   -1.4699160  
H     3.5673860   -0.9590750   -3.3144760  
