58


C     4.7395790   -0.1065460   -0.1684740  
C     5.3910400   -1.1807800    0.4003890  
C     6.8051600   -0.9523940    0.2857910  
C     6.9576190    0.3570500   -0.3945420  
N     5.6801310    0.8041830   -0.6545980  
C     8.1522900    0.9379870   -0.6730540  
C     9.3736960    0.2354790   -0.2888340  
O    10.4924460    0.6778040   -0.4981600  
C     9.2348300   -1.1579810    0.4275770  
O    10.2431880   -1.7628820    0.7557700  
C     7.8876560   -1.6806980    0.6783130  
H     4.9250890   -2.0146410    0.9015120  
H     8.2472930    1.8983110   -1.1698620  
H     7.8025600   -2.6418200    1.1763690  
H     5.4172860    1.7288950   -0.9665840  
C     1.0855410   -2.6612810    0.0207720  
C     2.3790000   -2.2795070   -0.1182940  
C     2.3446350   -0.8305080   -0.1770690  
C     0.8892020   -0.4920840   -0.0767610  
N     0.1710390   -1.5715550    0.0697740  
C     0.3890380    0.8809930   -0.1167350  
C     1.3487750    1.8500370   -0.3082650  
O     1.0882020    3.1478440   -0.4671660  
C     2.8061280    1.5294040   -0.4312830  
O     3.5564150    2.4776000   -0.6906970  
C     3.3081920    0.1365600   -0.2530040  
H     3.2459110   -2.9142230   -0.2180890  
H     1.9590320    3.5783330   -0.6195370  
H     0.6930590   -3.6692650    0.0823750  
C    -1.0260990    1.1668570    0.0239250  
C    -2.0794190    0.3007450   -0.1615560  
C    -3.2699780    1.0605620    0.1324550  
C    -2.7558750    2.4184710    0.4739160  
N    -1.4559710    2.4774030    0.4094420  
C    -3.6369110    3.5040910    0.8128640  
C    -4.9653260    3.2489870    0.8276440  
O    -5.9006780    4.1581540    1.1338610  
C    -5.5206970    1.8726640    0.5558430  
O    -6.7169550    1.7094940    0.7674060  
C    -4.6048060    0.7636800    0.1368150  
H    -2.0122180   -0.7224720   -0.4923810  
H    -3.2321450    4.4828510    1.0442080  
H    -6.7549250    3.6718730    1.1212190  
C    -3.6813370   -3.3329090    1.5692030  
C    -4.6858760   -4.0068250    0.9558690  
C    -5.4356020   -3.0423020    0.1788660  
C    -4.7746630   -1.7301610    0.3973550  
N    -3.7350270   -1.9741560    1.2660080  
C    -5.2035620   -0.5417820   -0.1427410  
C    -6.3362940   -0.6209030   -1.0958850  
O    -6.6737740    0.3216060   -1.7894620  
C    -7.0857930   -1.9864090   -1.2726790  
O    -8.0898340   -2.0197110   -1.9652060  
C    -6.5387960   -3.1670150   -0.6063080  
H    -4.8964260   -5.0633700    1.0332820  
H    -7.0492030   -4.1138870   -0.7537830  
H    -2.9058360   -3.6996700    2.2282230  
H    -3.0008370   -1.3122300    1.4752210  
