60


C    -0.7222050   -2.0781250   -0.1461640  
C     0.3928930   -1.3156830   -0.5115690  
C     1.4619730   -1.6507140    0.3668040  
C     0.9584010   -2.6498200    1.2527900  
N    -0.3523250   -2.8724950    0.9262340  
C     1.7476850   -3.2704980    2.2257290  
C     3.0795090   -2.8943590    2.2829510  
O     3.9151530   -3.4711970    3.1816030  
C     3.6148980   -1.8949370    1.4160370  
O     4.9421060   -1.6342250    1.6403880  
C     2.8239520   -1.2231370    0.4816810  
H     0.4237150   -0.5929350   -1.3111290  
H    -1.0343690   -3.4409710    1.4153920  
H     1.3668380   -4.0358710    2.8932350  
H     4.7964820   -3.0852060    3.0108330  
H     5.3667940   -1.5083520    0.7575220  
C     1.2136310    2.8095950   -0.0748250  
C     2.1335750    3.3228100   -0.9481950  
C     3.0935330    2.2850250   -1.2129510  
C     2.6644950    1.1066620   -0.4237990  
N     1.4959290    1.4781900    0.2169100  
C     3.3325870   -0.0896600   -0.3252820  
C     4.6136330   -0.1295180   -1.0435640  
O     5.4411710   -1.0294040   -0.9020270  
C     4.9970970    1.0302490   -2.0345030  
O     5.9749170    0.8730370   -2.7497480  
C     4.1966030    2.2424180   -2.0123630  
H     2.1142680    4.3059800   -1.3942330  
H     4.5068180    3.0733400   -2.6373840  
H     1.0653890    0.9305320    0.9484260  
C     0.1610470    4.8370310    0.8179360  
C    -1.0162610    5.2440190    1.3386030  
C    -1.8967260    4.0949370    1.3914580  
C    -1.1260240    2.9497380    0.8479500  
N     0.1464120    3.4575210    0.5256530  
C    -1.6343940    1.7045230    0.6813600  
C    -3.0257320    1.4646520    1.0831020  
O    -3.5737380    0.3834790    0.9419780  
C    -3.8417640    2.6521080    1.7022620  
O    -4.9920240    2.4627100    2.0587000  
C    -3.1809350    3.9571100    1.8065000  
H    -1.2545020    6.2439580    1.6715220  
H    -1.0909140    0.8722920    0.2477520  
H    -3.7593850    4.7855370    2.2036670  
H     1.0714460    5.3920040    0.6410400  
C    -2.5383460   -0.7112020   -3.9914920  
C    -1.6621070   -1.0971940   -3.0236670  
C    -2.4338550   -1.5865630   -1.9036000  
C    -3.8487990   -1.4642040   -2.3051820  
N    -3.8446940   -0.8957490   -3.5661350  
C    -4.9232110   -1.8393800   -1.5585190  
C    -4.6693640   -2.4595290   -0.2758530  
O    -5.5420830   -2.8678610    0.4746430  
C    -3.1723790   -2.6590680    0.1617700  
O    -2.9732380   -3.3220930    1.1713650  
C    -2.0734670   -2.0875060   -0.6653560  
H    -0.5877700   -1.0926190   -3.1142970  
H    -5.9513760   -1.7062680   -1.8789300  
H    -2.3401220   -0.3150570   -4.9784810  
H    -4.6683330   -0.7528620   -4.1290540  
