62


C    -0.3145360   -1.2212320    0.1715460  
C    -0.5659300   -2.4932240    0.6140750  
C    -1.9893110   -2.6681460    0.5532800  
C    -2.5476590   -1.4496510    0.0814860  
N    -1.4995830   -0.5639930   -0.1156290  
C    -3.9414960   -1.2345930   -0.0697430  
C    -4.7354450   -2.3500280    0.2375070  
O    -6.1072180   -2.2889270    0.1070060  
C    -4.1912180   -3.5666630    0.7100600  
O    -5.1465190   -4.5332820    0.9785350  
C    -2.8333010   -3.7410560    0.8839710  
H     0.1657840   -3.1972160    0.9842910  
H    -1.5659700    0.1575870   -0.8268100  
H    -6.4355520   -3.1962480    0.2493900  
H    -4.7163140   -5.3956490    1.0758650  
H    -2.4347410   -4.6787790    1.2640640  
C     2.0207520   -1.1795820   -0.6066110  
C     3.0709920   -0.2969850   -0.6036960  
C     2.6183370    0.9240200    0.0128230  
C     1.2661490    0.7144740    0.3713070  
N     0.9120900   -0.5776560   -0.0317290  
C     0.5051220    1.6888330    1.0291010  
C     1.1224620    2.8975890    1.3106300  
O     0.4279110    3.8785630    1.9517530  
C     2.4757620    3.1278030    0.9407270  
O     2.9393620    4.3801420    1.2827230  
C     3.2265550    2.1609110    0.2995140  
H    -0.5255290    1.5283250    1.3219000  
H     1.0309160    4.6334740    2.0664470  
H     3.8828990    4.4491330    1.0736640  
H     4.2633140    2.3491560    0.0323720  
H     1.9552380   -2.1863760   -0.9914090  
C     4.5948930   -0.7863390   -2.5219930  
C     5.9157710   -0.9864280   -2.7610510  
C     6.6039820   -0.8598550   -1.4951380  
C     5.5542960   -0.5730360   -0.4843190  
N     4.3433550   -0.5369790   -1.1687410  
C     5.7932380   -0.3990610    0.8409070  
C     7.1729020   -0.4812260    1.3122550  
O     7.4867120   -0.3300660    2.4838560  
C     8.3031280   -0.7749990    0.2572160  
O     9.4625510   -0.8432020    0.6366510  
C     7.9138840   -0.9557860   -1.1423180  
H     6.3704180   -1.1933390   -3.7190060  
H     5.0087680   -0.2003770    1.5629640  
H     8.7003590   -1.1660360   -1.8610040  
H     3.7592750   -0.7860680   -3.2094010  
C    -7.3702340    1.0878950    1.4885840  
C    -7.3020110    2.1824800    0.6922970  
C    -6.1953160    1.9774510   -0.2170010  
C    -5.6100690    0.6546530    0.1336450  
N    -6.3424420    0.1881240    1.2052330  
C    -4.5266040    0.0672800   -0.4830870  
C    -3.9373480    0.8526330   -1.5786700  
O    -2.9326150    0.5126890   -2.1963070  
C    -4.5787340    2.2303910   -1.9985820  
O    -4.0938790    2.8205980   -2.9504330  
C    -5.7010620    2.7409070   -1.2250150  
H    -7.9422280    3.0518210    0.7280620  
H    -6.1174500    3.7053920   -1.4978800  
H    -8.0703740    0.8600360    2.2818790  
H    -6.4208910   -0.8100220    1.3681520  
