62


C     1.2049280   -1.8762570   -0.0408710  
C     2.0160940   -0.7702970   -0.2575760  
C     3.3761990   -1.2122360   -0.2217900  
C     3.3432360   -2.6137920    0.0134000  
N     2.0230740   -2.9848560    0.1088940  
C     4.4978910   -3.3995950    0.0987740  
C     5.7153980   -2.7570290   -0.0565310  
O     6.8766370   -3.4675690    0.0313440  
C     5.7739330   -1.3613400   -0.3038500  
O     7.0605530   -0.8730180   -0.4396120  
C     4.6311300   -0.5667130   -0.3887620  
H     1.6812210    0.2534040   -0.3375560  
H     1.6725810   -3.8859300    0.3995960  
H     4.4712640   -4.4682530    0.2840680  
H     7.6072450   -2.8303120   -0.0527070  
H     7.0311510    0.0934020   -0.3362860  
C    -1.8958070    0.6181450   -1.9141990  
C    -3.0092180    0.0109280   -1.3669410  
C    -2.5099670   -1.0711190   -0.5420740  
C    -1.0964350   -1.0442520   -0.6237700  
N    -0.7555820    0.0013680   -1.4590150  
C    -0.2517860   -1.9768730    0.0246720  
C    -0.9157430   -2.9937920    0.7220280  
O    -0.1976350   -3.9744020    1.3599840  
C    -2.3280580   -3.0468590    0.7973900  
O    -2.7981630   -4.1215900    1.5281870  
C    -3.1318510   -2.1030980    0.1871800  
H     0.1821490    0.1788800   -1.7850680  
H    -0.8405730   -4.5508450    1.8103530  
H    -3.7590840   -4.0540840    1.6291790  
H    -4.2142400   -2.1797030    0.2461410  
H    -1.8393380    1.4780870   -2.5662850  
C    -4.9576300    0.7961110   -2.7939030  
C    -4.3874000    0.3990170   -1.6220800  
C    -5.4824330    0.5353130   -0.6327340  
C    -6.6439440    1.0205300   -1.4306760  
N    -6.3262730    1.1759300   -2.6856060  
C    -7.9219710    1.2802960   -0.8200170  
C    -8.0361800    1.1003140    0.5181050  
O    -9.1684810    1.3064040    1.2157590  
C    -6.8760300    0.6439060    1.3517230  
O    -7.0562420    0.4935390    2.5601940  
C    -5.5730870    0.3804910    0.7012330  
H    -8.7529040    1.6211400   -1.4279280  
H    -8.9392570    1.0991560    2.1478940  
H    -4.7540150    0.0663530    1.3407530  
H    -4.4863750    0.8332860   -3.7689400  
C     5.4101340    1.4877350   -1.6719500  
C     4.7481210    0.8836800   -0.6390350  
C     4.1858370    1.9702940    0.1679740  
C     4.5746960    3.2386500   -0.4969600  
N     5.3150170    2.8733900   -1.6040290  
C     4.2428630    4.4771790   -0.0508380  
C     3.4540420    4.5848750    1.1724200  
O     3.1020280    5.6532530    1.6485460  
C     3.0474420    3.2545430    1.9064780  
O     2.4004990    3.3223790    2.9386030  
C     3.4647320    1.9742660    1.3184720  
H     4.5385980    5.3926290   -0.5542790  
H     3.1748420    1.0621070    1.8294330  
H     5.9398650    1.0224440   -2.4934620  
H     5.7248550    3.5173200   -2.2623870  
