60


C     1.9342750    2.4095280    2.2198010  
C     0.8216980    1.9518330    1.5668540  
C     1.2612350    0.9725780    0.6125700  
C     2.6724810    0.8860350    0.7382230  
N     3.0555170    1.7885460    1.7046650  
C     3.4711610   -0.0274010    0.0088670  
C     2.7529000   -0.9244180   -0.7972210  
O     3.4027280   -1.8881130   -1.5109050  
C     1.3455190   -0.8676190   -0.9340740  
O     0.8539160   -1.7988770   -1.8159470  
C     0.5721140    0.1038080   -0.2863390  
H    -0.1922490    2.2756560    1.7462770  
H     3.9765860    1.8142940    2.1157730  
H     2.6993020   -2.3875200   -1.9747400  
H     0.0333770   -2.1700980   -1.4142530  
H     2.0270820    3.1403300    3.0103880  
C    -2.1168230    3.5611760   -1.1010550  
C    -1.0100510    2.8001670   -0.9528270  
C    -1.5005650    1.4443700   -0.7211330  
C    -2.9813360    1.5806290   -0.7665070  
N    -3.3309850    2.8178620   -0.9658370  
C    -3.8925160    0.4414740   -0.5719640  
C    -3.2589210   -0.7680870   -0.4179610  
O    -3.9255300   -1.9440930   -0.3188660  
C    -1.7964530   -0.9282330   -0.4396030  
O    -1.3688810   -2.1014320   -0.4099040  
C    -0.8815240    0.2521080   -0.4978080  
H     0.0241170    3.1051820   -1.0047720  
H    -3.2253580   -2.6321880   -0.2901160  
H    -2.1833160    4.6222760   -1.3059780  
C    -5.9987230    1.6700100   -1.2121280  
C    -5.3283950    0.6339480   -0.5970340  
C    -6.4129970   -0.1609580    0.0270480  
C    -7.6595430    0.5687060   -0.3584230  
N    -7.3964460    1.6237940   -1.0875830  
C    -8.9649100    0.1405090    0.0553540  
C    -9.0477370   -0.9518380    0.8535380  
O   -10.1925370   -1.4603610    1.3257150  
C    -7.8130150   -1.6909890    1.2937270  
O    -7.9650220   -2.6647020    2.0280620  
C    -6.4831050   -1.2340650    0.8391380  
H    -9.8398200    0.6975490   -0.2604780  
H    -9.9311430   -2.2353080    1.8714540  
H    -5.6284800   -1.8109990    1.1660150  
H    -5.5470270    2.4847580   -1.7580520  
C     4.9236120   -0.0418420    0.1118550  
C     5.7814770    0.9682570    0.4931590  
C     7.1267060    0.4646150    0.4205410  
C     7.0109390   -0.9430310   -0.0357780  
N     5.6631880   -1.1889210   -0.1829830  
C     8.0676210   -1.7689950   -0.2452760  
C     9.4116930   -1.2518100   -0.0057670  
O    10.4214230   -1.9208620   -0.1675660  
C     9.5578940    0.2363360    0.4842720  
O    10.6768000    0.6824830    0.6928530  
C     8.3422910    1.0270130    0.6710940  
H     5.5100020    1.9916620    0.7049760  
H     7.9643900   -2.7961960   -0.5810910  
H     8.4561850    2.0537400    1.0060550  
H     5.2522600   -1.9973130   -0.6277000  
