58


C     2.3753740    2.1147440   -0.1188950  
C     1.0424140    1.7962000    0.0177860  
C     0.2703940    2.9754960   -0.2303590  
C     1.2499390    4.0487350   -0.4987180  
N     2.5031180    3.4670050   -0.4133560  
C     0.9339630    5.3454040   -0.7464770  
C    -0.4748970    5.7242030   -0.7327750  
O    -0.8525240    6.8764160   -0.8666640  
C    -1.5513260    4.5939330   -0.5579480  
O    -2.7134190    4.8786190   -0.7666420  
C    -1.0972250    3.2107030   -0.2299300  
H     0.6615990    0.8351740    0.3248720  
H     1.6747750    6.1204560   -0.9169860  
H     3.3616790    3.9205890   -0.6857840  
C    -2.0565730    2.1594320    0.0156190  
C    -1.9046290    0.8175710   -0.2565450  
C    -3.0836750    0.1749300    0.2423810  
C    -3.9134590    1.3009700    0.7828240  
N    -3.3159470    2.4487060    0.6534450  
C    -5.2024840    1.0586380    1.3723660  
C    -5.6419090   -0.2222090    1.4162730  
O    -6.8203080   -0.5892550    1.9345140  
C    -4.8159860   -1.3845890    0.9132800  
O    -5.2738440   -2.5118750    1.0844000  
C    -3.4910330   -1.1269830    0.3037010  
H    -1.1033390    0.3417600   -0.7988170  
H    -5.7909560    1.8839140    1.7569290  
H    -6.8502850   -1.5690250    1.8573930  
C     0.6484530   -2.5617980    1.1861450  
C    -0.5012770   -1.8416780    1.2297300  
C    -1.3856780   -2.4832770    0.2606310  
C    -0.5665640   -3.6108060   -0.2826920  
N     0.6258310   -3.6383230    0.2490370  
C    -1.0910100   -4.5236360   -1.2626070  
C    -2.3665630   -4.3373820   -1.6770670  
O    -2.9813380   -5.1136770   -2.5793780  
C    -3.2121550   -3.1934490   -1.1768350  
O    -4.3186060   -3.0468530   -1.6815530  
C    -2.6615930   -2.2552610   -0.1476770  
H    -0.7443430   -1.0072590    1.8715350  
H    -0.4749420   -5.3331970   -1.6375860  
H    -3.8736820   -4.7239120   -2.7077870  
H     1.5386220   -2.4243130    1.7904950  
C     3.5127700    1.2441350    0.0150020  
C     4.8469060    1.5550260    0.1031970  
C     5.5803630    0.3201070    0.2214490  
C     4.5699690   -0.7655740    0.1845270  
N     3.3387610   -0.1407440    0.0935890  
C     4.8626670   -2.0890540    0.2304040  
C     6.2664070   -2.4825280    0.3471860  
O     6.6300900   -3.6462760    0.3975390  
C     7.3529290   -1.3475170    0.4173030  
O     8.5291160   -1.6546280    0.5249360  
C     6.9083760    0.0488590    0.3434710  
H     5.2753140    2.5471880    0.1294380  
H     4.1092690   -2.8701790    0.1856520  
H     7.6678940    0.8238980    0.3803840  
H     2.4753820   -0.6214500   -0.1144300  
