62


C     0.4825710    1.6864410   -0.6155440  
C     1.7630020    1.1897690   -0.4804710  
C     1.6680040   -0.2209810   -0.2261490  
C     0.2847570   -0.5360250   -0.2051810  
N    -0.4092530    0.6397550   -0.4047410  
C    -0.2175690   -1.8519070   -0.0612330  
C     0.7693440   -2.8511950   -0.0072190  
O     0.4248690   -4.1687520    0.0754010  
C     2.1541610   -2.5587340    0.0034800  
O     2.9384490   -3.6762290    0.1372890  
C     2.6425520   -1.2487700   -0.0535460  
H     2.6651100    1.7765700   -0.5741580  
H    -1.3742160    0.6712260   -0.7021120  
H     1.2758080   -4.6556870    0.0826490  
H     3.7155630   -3.5591850   -0.4665710  
C     0.6436010    3.9126240   -1.7798830  
C     0.0106990    3.0212450   -0.9368370  
C    -1.1872410    3.6837820   -0.4634200  
C    -1.2139060    4.9679790   -1.0625620  
N    -0.0823960    5.0782740   -1.8494410  
C    -2.2340640    5.8965450   -0.8239120  
C    -3.2485640    5.5237870    0.0432450  
O    -4.2682630    6.3877290    0.3065920  
C    -3.2305290    4.2483290    0.6704550  
O    -4.2947860    4.0372080    1.5224620  
C    -2.2195660    3.3351170    0.4323130  
H     0.1454170    5.8686260   -2.4324770  
H    -2.2565030    6.8786960   -1.2847620  
H    -4.8753430    5.9428020    0.9231520  
H    -4.2575150    3.1390400    1.8830790  
H    -2.2144230    2.3791800    0.9516440  
H     1.5479000    3.7846160   -2.3573680  
C    -1.6424920   -2.1399520   -0.0040110  
C    -2.6970050   -1.3052060    0.3077960  
C    -3.9119980   -2.0674200    0.2355350  
C    -3.5070730   -3.4421070   -0.1516290  
N    -2.1379920   -3.4122940   -0.2952230  
C    -4.3710800   -4.4765990   -0.3141710  
C    -5.7943680   -4.2342140   -0.0974890  
O    -6.6437980   -5.1046970   -0.2185260  
C    -6.2470130   -2.7834230    0.3107320  
O    -7.4366210   -2.5661090    0.4954860  
C    -5.2212810   -1.7542880    0.4525050  
H    -2.6241290   -0.2832040    0.6462320  
H    -4.0572420   -5.4765830   -0.5972840  
H    -5.5471160   -0.7569380    0.7331330  
H    -1.5334850   -4.2110400   -0.4258290  
C     4.6847410    1.7661230    2.4010130  
C     5.9679560    1.5823850    2.0032450  
C     5.9638730    0.5064300    1.0336750  
C     4.5478770    0.0778580    0.8938510  
N     3.8340810    0.8653290    1.7616470  
C     4.0830070   -0.9248460    0.0665410  
C     5.1230320   -1.6626460   -0.6469510  
O     4.9160280   -2.6934690   -1.2921470  
C     6.6144910   -1.1630020   -0.5994080  
O     7.4296260   -1.7162540   -1.3179530  
C     6.9570790   -0.0792830    0.3157710  
H     6.8361560    2.1225300    2.3510250  
H     7.9950700    0.2322120    0.3724200  
H     4.2773260    2.4700580    3.1143440  
H     2.8245290    0.8973290    1.7850900  
