60


C    -2.5226810   -1.2060800    1.1036280  
C    -1.2380760   -0.7928100    0.8984210  
C    -1.2780540    0.2565220   -0.0836720  
C    -2.6352210    0.4360120   -0.4454220  
N    -3.3939530   -0.4767300    0.2922660  
C    -3.0520490    1.4345300   -1.3303300  
C    -2.0749710    2.2493080   -1.8786980  
O    -2.4303330    3.2277790   -2.7573100  
C    -0.7060760    2.0736460   -1.5509640  
O     0.1286680    2.9394450   -2.2252720  
C    -0.2813570    1.0885510   -0.6578530  
H    -0.3635320   -1.1912510    1.3930110  
H    -4.0862770    1.5797650   -1.6153910  
H    -1.6148630    3.6777810   -3.0382190  
H     1.0474090    2.8178930   -1.9403580  
H    -2.9134910   -1.9920110    1.7329740  
C     1.8214350   -0.2878720   -0.3935380  
C     1.1458070    0.8937390   -0.3457780  
C     2.1073300    1.8929330    0.1138050  
C     3.3942710    1.1874850    0.3213330  
N     3.1547020   -0.1667980    0.0226150  
C     4.5435280    1.8096440    0.6693390  
C     4.5135520    3.2544520    0.9203840  
O     5.5108060    3.8849380    1.2294690  
C     3.1436140    4.0030030    0.7877910  
O     3.0891410    5.1961610    1.0354940  
C     1.9786510    3.2267230    0.3513380  
H     5.4893400    1.3010920    0.8055550  
H     1.0360270    3.7528350    0.2380050  
H     1.4494160   -1.2622110   -0.6777610  
C     4.0555340   -3.3606710   -2.9007960  
C     3.5063370   -2.2481440   -2.3518880  
C     4.1450070   -2.1176860   -1.0471380  
C     5.0716170   -3.2814730   -0.9789650  
N     5.0172400   -4.0014480   -2.0652250  
C     5.9217590   -3.5219560    0.1596560  
C     5.8587930   -2.6524600    1.1928460  
O     6.5997920   -2.7537060    2.3099740  
C     4.9225360   -1.4796580    1.1851750  
O     4.8598920   -0.7895020    2.1973120  
C     4.0759570   -1.2218000   -0.0257800  
H     2.7789380   -1.5825430   -2.7940130  
H     6.5868770   -4.3780740    0.1657920  
H     6.3099710   -2.0226110    2.8959880  
H     3.8517560   -3.7878650   -3.8752370  
C    -6.3396980   -0.6131580    3.5295210  
C    -5.1959050   -0.4633950    2.8113030  
C    -5.5337450   -0.6753530    1.4202280  
C    -6.9860600   -0.9647150    1.3840520  
N    -7.4089900   -0.9262650    2.6983940  
C    -7.7140900   -1.1912110    0.2587060  
C    -7.0240310   -1.1587320   -1.0193100  
O    -7.5816780   -1.3010380   -2.0964240  
C    -5.4658260   -0.9235110   -1.0214610  
O    -4.8634510   -0.9999330   -2.0762090  
C    -4.7899410   -0.6440610    0.2702670  
H    -4.2211270   -0.2153580    3.2022590  
H    -8.7820980   -1.3837140    0.2660570  
H    -6.4965200   -0.5181070    4.5957420  
H    -8.3651830   -1.0409130    2.9957690  
