58


C    -2.0775980   -1.7351900    0.0173720  
C    -2.3699230   -3.0793490    0.0568570  
C    -3.8004420   -3.2141020    0.0359050  
C    -4.3482140   -1.8311890   -0.0209790  
N    -3.2574070   -0.9938220   -0.0289190  
C    -5.6733850   -1.5359720   -0.0543170  
C    -6.6329650   -2.6346980   -0.0308700  
O    -7.8429820   -2.4648700   -0.0535400  
C    -6.0765550   -4.1052580    0.0277260  
O    -6.8662310   -5.0378410    0.0458400  
C    -4.6262610   -4.2990510    0.0589280  
H    -1.6529370   -3.8864440    0.1001350  
H    -6.0561840   -0.5211100   -0.0975240  
H    -4.2544270   -5.3184330    0.1004430  
H    -3.2511220    0.0157300   -0.0636090  
C    -0.8212050   -1.0330670    0.0201630  
C     0.4592290   -1.5165730    0.0626560  
C     1.3109090   -0.3522120    0.0505710  
C     0.3608770    0.8043260    0.0078460  
N    -0.8771460    0.3957080   -0.0131950  
C     0.8064370    2.1842770    0.0059570  
C     2.1563450    2.3689800    0.0647340  
O     2.7295010    3.5723580    0.1063740  
C     3.1447000    1.2307440    0.0810690  
O     4.3321960    1.5290480    0.0168530  
C     2.6631760   -0.1802990    0.1073000  
H     0.7779150   -2.5478060    0.1041070  
H     3.6992520    3.4095180    0.0814420  
C     3.5698480   -3.7123020   -2.4717240  
C     3.0145380   -2.5916120   -1.9349100  
C     3.7560320   -2.2746060   -0.7368450  
C     4.8097690   -3.3145580   -0.6214720  
N     4.6263830   -4.1644570   -1.6965520  
C     5.7555790   -3.3620270    0.3501460  
C     5.7511330   -2.3178690    1.3684200  
O     6.5784420   -2.2529300    2.2625890  
C     4.6171180   -1.2355370    1.3119450  
O     4.5147590   -0.4477600    2.2350900  
C     3.6654990   -1.2485910    0.1715160  
H     2.1775330   -2.0413320   -2.3364390  
H     6.5280720   -4.1233670    0.3965780  
H     3.2933710   -4.2472270   -3.3707690  
H     5.2280350   -4.9405320   -1.9248990  
C    -2.6634550    3.6191810    2.4221010  
C    -1.5985940    2.9216060    1.9490200  
C    -1.1614700    3.5707060    0.7319850  
C    -2.0745630    4.7259550    0.5347940  
N    -2.9685830    4.6885690    1.5867460  
C    -1.9914250    5.6203270   -0.4827590  
C    -0.9342150    5.4412540   -1.4672160  
O    -0.7589210    6.1986770   -2.4089070  
C     0.0251190    4.2053130   -1.3111840  
O     0.8527780    4.0022960   -2.1818190  
C    -0.1328260    3.3145190   -0.1335020  
H    -1.1637270    2.0399320    2.3925470  
H    -2.6620920    6.4669300   -0.5924590  
H    -3.2579280    3.4440940    3.3091480  
H    -3.6840920    5.3774880    1.7575170  
