60


C     1.6122940    2.0491760   -0.7240980  
C     0.5377560    1.3377480   -0.2144410  
C     1.0325710    0.0058700    0.0820710  
C     2.4024130   -0.0139440   -0.2732670  
N     2.7143390    1.2452380   -0.7647350  
C     3.2300830   -1.1525510   -0.1495130  
C     2.5992440   -2.3050530    0.3306850  
O     3.3018390   -3.4696660    0.4434480  
C     1.2351530   -2.2950310    0.7170150  
O     0.7907510   -3.5021850    1.2073810  
C     0.4517830   -1.1612440    0.6151540  
H     3.6280830    1.5278280   -1.0876640  
H     2.7026080   -4.1269370    0.8407440  
H    -0.1606980   -3.4579320    1.3923360  
H    -0.5738060   -1.1906080    0.9712100  
H     1.6515580    3.0655150   -1.0887360  
C    -0.8021900    1.8456870   -0.0675740  
C    -1.2829080    3.1291310    0.0311220  
C    -2.7143330    3.0698830    0.1259580  
C    -3.0706810    1.6312030    0.0806960  
N    -1.8828470    0.9480960   -0.0018580  
C    -4.3478560    1.1346730    0.0767190  
C    -5.4459550    2.1161350    0.2122760  
O    -6.6098160    1.7797510    0.3444730  
C    -5.0866370    3.6433290    0.2551690  
O    -6.0007510    4.4529350    0.3102860  
C    -3.6810490    4.0281040    0.2263800  
H    -0.6832790    4.0267210    0.0778100  
H    -3.4497010    5.0884790    0.2551040  
H    -1.8172880   -0.0245550   -0.2617970  
C    -3.1254220   -2.6023890    2.2586560  
C    -3.2301300   -1.2939240    1.9060600  
C    -4.1378630   -1.2818210    0.7621390  
C    -4.4899940   -2.7184750    0.5715200  
N    -3.8844760   -3.4856180    1.4406080  
C    -5.4134400   -3.1477270   -0.4452650  
C    -5.9646950   -2.1971430   -1.2345920  
O    -6.8392010   -2.4520980   -2.2189650  
C    -5.5917740   -0.7418220   -1.1101300  
O    -6.0192540    0.0182760   -1.9695010  
C    -4.6611140   -0.2947270   -0.0172310  
H    -2.7911470   -0.4345270    2.3926180  
H    -5.6549710   -4.1993560   -0.5520730  
H    -7.0198400   -1.5849250   -2.6440250  
H    -2.5703980   -3.0195360    3.0925720  
C     5.3019020   -2.1379170   -1.2194110  
C     4.6533620   -1.1545320   -0.5237680  
C     5.6626780   -0.1466890   -0.2103160  
C     6.9324850   -0.6212490   -0.8204970  
N     6.6368800   -1.8322220   -1.4160940  
C     8.1151540    0.0387770   -0.7566200  
C     8.1674670    1.3071480   -0.0324780  
O     9.1825460    1.9783660    0.0620610  
C     6.8501330    1.8132130    0.6573940  
O     6.8736860    2.8606620    1.2842170  
C     5.6339520    1.0065410    0.5152450  
H     9.0303160   -0.3325770   -1.2076990  
H     4.7457820    1.3559630    1.0314370  
H     4.8960140   -3.0658650   -1.5960090  
H     7.3067770   -2.4267440   -1.8788280  
