60


C    -3.6063590   -0.1203370   -1.3980360  
C    -3.0220570   -0.9800640   -0.4964380  
C    -4.1084230   -1.8392820    0.0031130  
C    -5.3422070   -1.3803570   -0.6816140  
N    -4.9548730   -0.3436870   -1.5176810  
C    -6.5821830   -1.8954120   -0.4986690  
C    -6.7427370   -2.9841690    0.4620400  
O    -7.8158980   -3.5167010    0.6945700  
C    -5.4623140   -3.4698230    1.2275650  
O    -5.5685490   -4.3592510    2.0549780  
C    -4.1701530   -2.8355210    0.9212810  
H    -7.4623840   -1.5321820   -1.0201970  
H    -3.2956430   -3.2172830    1.4315640  
H    -3.1225650    0.6316870   -2.0062840  
H    -5.5639540    0.1217790   -2.1739330  
C    -0.0520940    2.3136840   -0.0067890  
C    -1.2349220    1.6237060   -0.1260550  
C    -0.8816130    0.2247510   -0.0881270  
C     0.5903660    0.2209450    0.0683850  
N     1.0653580    1.4345410    0.0880610  
C     1.3821990   -1.0134360    0.1800730  
C     0.6339510   -2.1660350    0.1670060  
O     1.1680460   -3.4010860    0.3424860  
C    -0.8285810   -2.1998450    0.0093250  
O    -1.3813060   -3.3107280    0.0254150  
C    -1.6067520   -0.9347600   -0.1692320  
H    -2.2311240    2.0412900   -0.1354250  
H     0.3930050   -4.0058650    0.3101710  
C    -2.0838480    5.8264630   -1.8690590  
C    -1.7406220    4.5474320   -1.5657160  
C    -0.6453840    4.6592690   -0.6152080  
C    -0.4493620    6.1299990   -0.4743260  
N    -1.2969030    6.8067880   -1.2025300  
C     0.5802380    6.6828860    0.3639260  
C     1.3857520    5.8187580    1.0217740  
O     2.3885780    6.1964720    1.8323180  
C     1.2132120    4.3241650    0.9245940  
O     1.9617930    3.6442570    1.6209840  
C     0.1338360    3.7524370    0.0502940  
H    -2.1599880    3.6363510   -1.9655750  
H     0.6944500    7.7579080    0.4483470  
H     2.7611000    5.3601770    2.1888360  
H    -2.8573800    6.1619730   -2.5502060  
C     3.4801150    0.1507280    0.9085220  
C     2.8238900   -0.9438750    0.3423440  
C     3.8686840   -1.8973800   -0.0084270  
C     5.1024310   -1.3164730    0.3762260  
N     4.8200070   -0.0811040    0.9407740  
C     6.3434940   -1.9215640    0.1649570  
C     6.3508550   -3.1567190   -0.4667890  
O     7.5309660   -3.7981600   -0.6986300  
C     5.1325190   -3.7520900   -0.8775210  
O     5.2924760   -4.9753550   -1.5008390  
C     3.9083370   -3.1433080   -0.6657350  
H     5.5060250    0.5620270    1.3060210  
H     7.2802650   -1.4639310    0.4660780  
H     7.3179780   -4.6405740   -1.1365220  
H     4.4217730   -5.3524680   -1.6957170  
H     2.9936100   -3.6332000   -0.9781810  
H     3.0592570    1.0723150    1.2782960  
