62


C     0.7001070    0.9845380    0.0884070  
C     1.8833800    0.2579940    0.1352370  
C     2.9688350    1.1661660   -0.0522260  
C     2.3916530    2.4583950   -0.1892170  
N     1.0256630    2.3147110   -0.1236850  
C     3.1559240    3.6200310   -0.3282570  
C     4.5340790    3.4704480   -0.2997170  
O     5.3402610    4.5580250   -0.4096760  
C     5.1441910    2.1932120   -0.1570230  
O     6.5169140    2.2386890   -0.1786580  
C     4.3907410    1.0166600   -0.0732630  
H     1.9697560   -0.7917320    0.3702230  
H     0.3467370    3.0595950   -0.0640550  
H     2.7181860    4.6078490   -0.4266880  
H     6.2522090    4.2183610   -0.3225410  
H     6.8353010    1.6163070    0.5164140  
C    -1.0787670   -2.9661130   -0.7223100  
C    -2.3645610   -2.6797250   -0.3458830  
C    -2.3770800   -1.3069710    0.0728190  
C    -1.0553000   -0.8105730   -0.0634350  
N    -0.2847440   -1.8516600   -0.5376970  
C    -0.6800720    0.5281050    0.2102760  
C    -1.7361850    1.3694140    0.5863690  
O    -1.5054770    2.6966330    0.8332200  
C    -3.0589120    0.8966410    0.7627870  
O    -3.9369790    1.8439600    1.2484580  
C    -3.3898860   -0.4345970    0.5255750  
H    -3.2046610   -3.3586810   -0.3776120  
H     0.6633520   -1.7458950   -0.8682830  
H    -2.3658970    3.0817370    1.0865260  
H    -4.8190030    1.7299480    0.8472840  
H    -0.6550350   -3.8832070   -1.1063400  
C    -5.0630610   -1.9199310    1.6481600  
C    -6.4055950   -2.0812050    1.7221400  
C    -7.0044120   -1.1165660    0.8223280  
C    -5.8743280   -0.3785700    0.2022600  
N    -4.7142490   -0.9035800    0.7411910  
C    -6.0218760    0.6150930   -0.7218850  
C    -7.3733590    0.9857190   -1.1361030  
O    -7.6016120    1.8424650   -1.9757840  
C    -8.5820440    0.2344310   -0.4693690  
O    -9.7198780    0.5502060   -0.7761380  
C    -8.2914180   -0.8305580    0.4986430  
H    -6.9345450   -2.7902380    2.3422810  
H    -5.1837560    1.0787800   -1.2345530  
H    -9.1359040   -1.3596740    0.9300890  
H    -4.2707520   -2.4348550    2.1740630  
C     3.6158060   -2.6926650   -2.3877240  
C     3.6506260   -1.4122470   -1.9307480  
C     4.5749320   -1.3713630   -0.8169130  
C     5.0823150   -2.7554760   -0.6623010  
N     4.4370010   -3.5126460   -1.6216610  
C     5.9885200   -3.1586610    0.2664750  
C     6.5307180   -2.1457620    1.1511100  
O     7.3224540   -2.3774740    2.0513530  
C     6.0998180   -0.6490810    0.9144610  
O     6.7435070    0.2036310    1.5220540  
C     4.9976960   -0.3308170   -0.0155400  
H     3.1169950   -0.5697310   -2.3413310  
H     6.3090380   -4.1877930    0.3913200  
H     3.0700200   -3.1082560   -3.2247410  
H     4.6538120   -4.4751660   -1.8285290  
