60


C    -1.4379300    0.6921090    0.7647990  
C    -0.9673710   -0.5676590    0.4041090  
C    -2.1465870   -1.3864210    0.1761560  
C    -3.2700490   -0.5643510    0.4186100  
N    -2.8015890    0.6884910    0.7839570  
C    -4.5922510   -1.0310750    0.3022830  
C    -4.7631960   -2.3666470   -0.0644960  
O    -6.0193390   -2.8776270   -0.1854310  
C    -3.6384810   -3.1976540   -0.2947370  
O    -3.9781940   -4.4880870   -0.6394910  
C    -2.3417530   -2.7310560   -0.1837360  
H    -3.3833100    1.5004120    0.9339950  
H    -5.9244800   -3.8051340   -0.4672670  
H    -3.1762440   -4.9902370   -0.8489600  
H    -1.4823390   -3.3694190   -0.3601220  
H    -0.8869600    1.5893570    1.0072370  
C     0.4082210   -0.9511400    0.2903710  
C     1.5488810   -0.1977200    0.5010610  
C     2.6531020   -1.0592370    0.2399650  
C     2.0145040   -2.3599990   -0.1399950  
N     0.7134980   -2.2954730   -0.1024930  
C     2.7874400   -3.5145700   -0.5096260  
C     4.1309540   -3.3753390   -0.5264770  
O     4.9841590   -4.3491130   -0.8640580  
C     4.8187780   -2.0735220   -0.1556700  
O     6.0514430   -2.0982200   -0.2112410  
C     4.0283080   -0.8983360    0.2556790  
H     1.5959810    0.8448790    0.7777380  
H     2.2965580   -4.4442750   -0.7742100  
H     5.8787490   -3.9470990   -0.7709730  
C     4.2258150    1.1655260    1.6846550  
C     4.6883600    0.3114810    0.7143930  
C     5.9425590    0.9607330    0.2512930  
C     6.0339750    2.1985800    1.0770080  
N     5.0329610    2.2944640    1.9151800  
C     7.1094280    3.1400460    0.9320140  
C     8.0507370    2.8875900   -0.0096370  
O     9.1045710    3.6801050   -0.2598620  
C     7.9790360    1.6628620   -0.8742530  
O     8.8631740    1.5005610   -1.7138760  
C     6.8688110    0.7016020   -0.6911370  
H     7.1409130    4.0235810    1.5598230  
H     9.5952570    3.2387800   -0.9879080  
H     6.8785940   -0.1818140   -1.3166340  
H     3.3422180    1.0280480    2.2951030  
C    -6.7312490   -0.5130610    1.4901600  
C    -7.6648060    0.4665090    1.5456690  
C    -7.2710660    1.4933220    0.6055890  
C    -6.0092990    1.0179230   -0.0187320  
N    -5.7134360   -0.2054790    0.5730580  
C    -5.3342320    1.6964080   -0.9851610  
C    -5.8628890    2.9845170   -1.4304330  
O    -5.3208250    3.6618610   -2.2903800  
C    -7.1835370    3.5156420   -0.7640500  
O    -7.6278390    4.5987730   -1.1103200  
C    -7.8301490    2.6798130    0.2509710  
H    -8.5446550    0.4782790    2.1724380  
H    -4.4413190    1.3161710   -1.4694640  
H    -8.7545950    3.0444980    0.6885990  
H    -6.6759760   -1.4473390    2.0300720  
