58


C     1.8924250   -2.3969350   -1.8421590  
C     0.8910930   -1.5954980   -1.4002980  
C     1.4920090   -0.5971130   -0.5438760  
C     2.9550060   -0.8728410   -0.5502630  
N     3.1268160   -1.9582170   -1.3784830  
C     3.9311350   -0.1190380    0.0830880  
C     3.4074150    1.0094050    0.8589540  
O     4.1111130    1.8339270    1.4387990  
C     1.8598020    1.2369180    0.9883030  
O     1.4746400    2.0486400    1.8090050  
C     0.9387220    0.4398630    0.1571440  
H    -0.1564720   -1.6756530   -1.6459540  
H     1.8443960   -3.2648870   -2.4865910  
H     3.9323180   -2.5637720   -1.2488160  
C    -2.7509700   -1.8137320    1.2684060  
C    -1.4699950   -1.4516440    1.0113570  
C    -1.4896300   -0.0805670    0.5495860  
C    -2.9101040    0.3398150    0.5782840  
N    -3.6466060   -0.7714850    0.9969220  
C    -3.3523370    1.5940460    0.3068290  
C    -2.3727290    2.5998150   -0.0890060  
O    -2.6680660    3.7595240   -0.3291120  
C    -0.8737600    2.1602420   -0.2207190  
O    -0.0732540    2.9452960   -0.6948970  
C    -0.4897390    0.7812190    0.1847580  
H    -0.5966960   -2.0759310    1.1234660  
H    -4.3898260    1.8956370    0.3961780  
H    -3.1460750   -2.7574160    1.6196790  
C     7.4378640    2.5870390   -0.3771550  
C     8.4338080    1.6707610   -0.4470660  
C     7.8204270    0.3693970   -0.3045500  
C     6.3555080    0.6104650   -0.1565740  
N     6.1937650    1.9712440   -0.2490900  
C     5.3901310   -0.3743220   -0.0157420  
C     5.9199330   -1.7448450    0.0238160  
O     5.2140230   -2.7476830    0.1172890  
C     7.4697980   -2.0107170   -0.0869690  
O     7.8549080   -3.1669690   -0.0249020  
C     8.3578580   -0.8769820   -0.2816230  
H     9.4876380    1.8641050   -0.5838020  
H     9.4216200   -1.0661360   -0.3845010  
H     7.4908510    3.6668860   -0.4217780  
H     5.3894680    2.4120000    0.1886790  
C    -5.6645720   -1.2934740    2.3405060  
C    -5.0277670   -0.8267120    1.2337320  
C    -6.0986950   -0.5360780    0.2631260  
C    -7.3433390   -0.8813390    1.0123860  
N    -7.0782170   -1.3237400    2.2115930  
C    -8.6435480   -0.7240850    0.4182410  
C    -8.7079120   -0.2955160   -0.8660060  
O    -9.8519340   -0.1194470   -1.5434610  
C    -7.4680800    0.0187680   -1.6574800  
O    -7.6039370    0.3932650   -2.8190270  
C    -6.1401400   -0.1210840   -1.0157840  
H    -9.5321470   -0.9632670    0.9917040  
H    -9.5889090    0.1927970   -2.4366510  
H    -5.2716730    0.1393030   -1.6124480  
H    -5.2124450   -1.6320830    3.2652200  
