62


C     0.4786670   -0.2387730   -1.3713620  
C     1.7016130   -0.8218140   -1.1765350  
C     2.3466630   -0.1126370   -0.1073470  
C     1.4489920    0.9037890    0.3103290  
N     0.3049580    0.8125580   -0.4781710  
C     1.7471250    1.8033960    1.3443870  
C     2.9841750    1.6746890    1.9573930  
O     3.3239580    2.5156320    2.9737910  
C     3.8986580    0.6658640    1.5564190  
O     5.0589260    0.6619980    2.3024750  
C     3.6074330   -0.2385010    0.5343040  
H     2.1048240   -1.6455190   -1.7484600  
H     1.0494330    2.5585940    1.6894960  
H     4.2186500    2.2684790    3.2663780  
H     5.6796140    0.0006710    1.9588060  
H    -0.2979100   -0.4579020   -2.0898100  
C    -4.0026270   -0.0124560    0.3008780  
C    -2.6369330   -0.1354550    0.1445420  
C    -2.1201260    1.1625110   -0.1640870  
C    -3.2207870    2.0584220   -0.1878010  
N    -4.3550060    1.3151270    0.0716100  
C    -3.0826620    3.4299680   -0.4273930  
C    -1.8031280    3.9093260   -0.6618710  
O    -1.6067700    5.2357280   -0.8986510  
C    -0.6839890    3.0337590   -0.6792240  
O     0.5076310    3.6513780   -0.9758730  
C    -0.8295400    1.6716560   -0.4345010  
H    -2.0782200   -1.0587580    0.2029700  
H    -5.2611580    1.7047310    0.2830820  
H    -3.9224890    4.1167310   -0.4307520  
H    -0.6502250    5.3678980   -1.0224950  
H     1.2511070    3.0585060   -0.7743440  
C    -4.8123060   -2.0682040    1.5017220  
C    -4.9964970   -1.0113880    0.6554660  
C    -6.3731900   -1.1092040    0.1709460  
C    -6.9604760   -2.3099510    0.8182630  
N    -5.9530560   -2.8563070    1.5880770  
C    -8.2373240   -2.7338400    0.6399990  
C    -9.1030740   -1.9760010   -0.2586550  
O   -10.2671530   -2.2754680   -0.4745830  
C    -8.4937410   -0.7210600   -0.9830100  
O    -9.1929670   -0.0812690   -1.7516300  
C    -7.0982000   -0.3625010   -0.7025010  
H    -8.6467150   -3.6144720    1.1255010  
H    -6.6893770    0.4946990   -1.2279050  
H    -3.9299980   -2.3254430    2.0722130  
H    -6.0663110   -3.6437690    2.2070710  
C     4.2752460   -2.6335050    0.0335060  
C     4.5569820   -1.3018470    0.1547900  
C     5.9706570   -1.1571260   -0.1908590  
C     6.4721800   -2.5195770   -0.5048190  
N     5.3890680   -3.3636190   -0.3561870  
C     7.7476150   -2.8061600   -0.8666030  
C     8.7071110   -1.7082290   -0.9642000  
O     9.8773650   -1.8725960   -1.2702900  
C     8.1952250   -0.2527480   -0.6635840  
O     8.9740460    0.6812710   -0.7615120  
C     6.7912540   -0.0731510   -0.2740520  
H     8.0927710   -3.8103500   -1.0932180  
H     6.4489770    0.9400380   -0.0871890  
H     3.3329050   -3.1354760    0.2082160  
H     5.4121110   -4.3618830   -0.4939150  
