58


C     1.8965850    2.3393580   -1.3126680  
C     2.7589450    1.3052810   -1.1671250  
C     2.2980730    0.5026710   -0.0555800  
C     1.0699000    1.1651750    0.4455330  
N     0.8521970    2.2708900   -0.3759500  
C     0.3454960    0.7368760    1.5138170  
C     0.7743080   -0.4766040    2.1992550  
O     0.1763950   -0.9468330    3.1546180  
C     2.0691810   -1.1995520    1.6895200  
O     2.4865180   -2.1583060    2.3127930  
C     2.7825000   -0.6447450    0.5095850  
H     3.6321910    1.1146880   -1.7720910  
H    -0.5268490    1.2540440    1.8955530  
H     1.9092770    3.1539790   -2.0207200  
C    -3.4877910    1.7216420   -0.1687410  
C    -3.8406900    3.0443850   -0.0531490  
C    -2.6338570    3.8244750   -0.0933550  
C    -1.5218650    2.8498190   -0.2339640  
N    -2.0992470    1.6105320   -0.2870500  
C    -0.1999490    3.2059840   -0.2881360  
C     0.1279700    4.6392630   -0.2740490  
O     1.2714870    5.0538680   -0.3810320  
C    -1.0484160    5.6754590   -0.1365610  
O    -0.7679850    6.8639690   -0.1222460  
C    -2.4125850    5.1702170   -0.0479640  
H    -4.8441360    3.4328390    0.0424200  
H    -3.2162030    5.8930070    0.0491740  
H    -1.6367690    0.7114110   -0.3215830  
C     7.0811920    0.5046200    0.1520370  
C     5.7418530    0.5074980    0.3771930  
C     5.2375040   -0.7973390    0.0005400  
C     6.4152700   -1.5733550   -0.4625700  
N     7.4963790   -0.7185510   -0.3629830  
C     6.3847240   -2.8684340   -0.8695960  
C     5.1032070   -3.5596050   -0.8659270  
O     4.9703920   -4.7297620   -1.1895700  
C     3.8270650   -2.7484840   -0.4396920  
O     2.7343850   -3.2711650   -0.5662400  
C     3.9865020   -1.3509670    0.0400020  
H     5.1614660    1.3293200    0.7677800  
H     7.2673990   -3.4183350   -1.1812430  
H     7.8046790    1.2924640    0.3153100  
H     8.4527660   -0.9804340   -0.5433980  
C    -4.2704340    0.5134570   -0.1841370  
C    -5.6221680    0.3387360   -0.0753160  
C    -5.8260900   -1.0920910   -0.1427890  
C    -4.4455510   -1.6612800   -0.2990290  
N    -3.5471570   -0.7197860   -0.3244200  
C    -4.2176480   -3.0773400   -0.4023730  
C    -5.3000730   -3.8908620   -0.3549380  
O    -5.2410040   -5.2231650   -0.4394010  
C    -6.7048620   -3.3489760   -0.1993590  
O    -7.6244920   -4.1627180   -0.1677850  
C    -6.9124720   -1.8953780   -0.0944330  
H    -6.3860380    1.0945830    0.0414760  
H    -3.2099210   -3.4626440   -0.5093620  
H    -6.1698650   -5.5383480   -0.3728980  
H    -7.9337390   -1.5446780    0.0171190  
