60


C    -1.9508460   -3.2895540   -1.8674080  
C    -3.1063500   -2.7917000   -1.3255050  
C    -2.7390380   -1.6501200   -0.5339970  
C    -1.3289750   -1.5228410   -0.6286460  
N    -0.8693220   -2.5568100   -1.4179320  
C    -0.5932760   -0.5048140    0.0232220  
C    -1.3674890    0.4543410    0.6915510  
O    -0.7733720    1.5388730    1.2581640  
C    -2.7766600    0.3370740    0.7995080  
O    -3.3391660    1.3412510    1.5669060  
C    -3.4879140   -0.7100160    0.2200690  
H    -4.1026870   -3.1798920   -1.4834080  
H     0.0067880   -2.4516860   -1.9229100  
H    -1.4791320    2.0557260    1.6857230  
H    -4.3068290    1.2926600    1.5299680  
H    -1.8031500   -4.1210440   -2.5425740  
C     2.5223650   -0.9085220   -3.1262180  
C     3.6393380   -0.5433330   -2.4608670  
C     3.2109450   -0.3158070   -1.0868910  
C     1.7305800   -0.5644350   -1.1124070  
N     1.3524390   -0.9375030   -2.3048600  
C     0.8854770   -0.4308250    0.0654390  
C     1.5674500   -0.2293200    1.2350680  
O     0.9838550   -0.1895210    2.4386270  
C     3.0495680    0.0026580    1.3007790  
O     3.5265070    0.2671770    2.4020450  
C     3.8804070   -0.0743800    0.0647920  
H     4.6422740   -0.4324320   -2.8438150  
H     1.7074880    0.0234200    3.0693820  
H     2.4209120   -1.1713670   -4.1723090  
C     6.5668470    2.8424400   -1.8516340  
C     7.7606340    2.5478730   -1.2896160  
C     7.4934780    1.4255690   -0.3953100  
C     6.0232220    1.1736830   -0.5569840  
N     5.4924050    2.0017530   -1.4055930  
C     5.3369070    0.1262730    0.1851510  
C     6.1101200   -0.6322910    1.0130800  
O     5.6465770   -1.6692240    1.7186320  
C     7.5899240   -0.3990420    1.1859250  
O     8.1896990   -1.1431850    1.9584420  
C     8.2488560    0.6842040    0.4372950  
H     8.7159230    3.0273900   -1.4511770  
H     6.4172620   -2.0071830    2.2281400  
H     9.3138430    0.8235710    0.5958020  
H     6.3408910    3.6172380   -2.5742370  
C    -5.6114700   -1.9688200    0.7861520  
C    -4.9464370   -0.8447450    0.3850070  
C    -5.9754060    0.1640660    0.1394400  
C    -7.2801440   -0.4742930    0.4530470  
N    -6.9853420   -1.7688800    0.8291900  
C    -8.4832390    0.1454800    0.3569440  
C    -8.5170840    1.5353000   -0.0908020  
O    -9.5511090    2.1766160   -0.1948060  
C    -7.1530300    2.2246190   -0.4596650  
O    -7.1620950    3.3774310   -0.8599750  
C    -5.9158580    1.4500730   -0.3069780  
H    -9.4254340   -0.3412940    0.5899760  
H    -4.9846990    1.9322010   -0.5889690  
H    -5.1941920   -2.9285870    1.0602660  
H    -7.6651220   -2.4567760    1.1129630  
