58


C     1.3594790    2.7324450   -0.3459030  
C     2.6014310    2.2059460   -0.2991440  
C     2.4779360    0.7805600   -0.0943330  
C     1.0240240    0.4993510   -0.0335000  
N     0.3701570    1.7441310   -0.1925400  
C     0.4928160   -0.7336120    0.1425700  
C     1.4122800   -1.8616360    0.2541740  
O     1.0300380   -3.0130390    0.3880220  
C     2.9563070   -1.5950000    0.1865240  
O     3.7058410   -2.5490410    0.3035240  
C     3.4346300   -0.1998510   -0.0021700  
H     3.5216410    2.7616330   -0.3798410  
H    -0.5721650   -0.9099640    0.1873070  
H     1.0613280    3.7602870   -0.4853140  
C    -0.9757880    2.0251270   -0.2071800  
C    -1.5747560    3.2658280   -0.2852020  
C    -2.9753640    2.9944390   -0.2795960  
C    -3.0691780    1.4925800   -0.1785230  
N    -1.8872230    0.9435280   -0.1513100  
C    -4.3336110    0.7952420   -0.1497240  
C    -5.4422430    1.5812530   -0.2508210  
O    -6.6874950    1.1129470   -0.2432980  
C    -5.3815170    3.1000400   -0.3585960  
O    -6.4721640    3.6737030   -0.4338240  
C    -4.0952830    3.7645870   -0.3642980  
H    -1.1138960    4.2406300   -0.3326850  
H    -7.2555920    1.9178470   -0.3235530  
H    -4.0832450    4.8463090   -0.4470900  
C    -3.0418650   -1.8841100    3.0842480  
C    -3.3447090   -3.1059480    2.5916480  
C    -3.9394550   -2.8504730    1.2830090  
C    -3.8948680   -1.3578510    1.1483340  
N    -3.3816950   -0.8011620    2.2042680  
C    -4.4023660   -0.6772480   -0.0323470  
C    -4.9564590   -1.4643040   -0.9936880  
O    -5.4717330   -0.9931010   -2.1387870  
C    -5.0231250   -2.9643240   -0.8748910  
O    -5.5350830   -3.5819890   -1.8072790  
C    -4.4793880   -3.6261230    0.3238830  
H    -3.1911970   -4.0725210    3.0505470  
H    -5.7866630   -1.7877740   -2.6250230  
H    -4.5495830   -4.7085420    0.3701380  
H    -2.5863820   -1.6431670    4.0372600  
C     6.8547860   -1.9479490   -2.2582010  
C     5.6192050   -1.6271480   -1.7953010  
C     5.7843800   -0.6253750   -0.7673850  
C     7.2470060   -0.3780550   -0.6765280  
N     7.8362210   -1.2137370   -1.6014680  
C     7.8403580    0.5128540    0.1588530  
C     6.9858560    1.3031720    1.0266020  
O     7.4071620    2.1434720    1.8061640  
C     5.4277860    1.0794210    0.9471010  
O     4.7245980    1.7581620    1.6771340  
C     4.8813430    0.0675400    0.0057660  
H     4.6893310   -2.0659870   -2.1185530  
H     8.9132710    0.6725450    0.2008960  
H     7.1361840   -2.6613920   -3.0212490  
H     8.8275410   -1.2763780   -1.7710090  
