60


C    -0.8499690    0.8154830    1.2722050  
C    -2.1303700    0.4902310    0.8938870  
C    -2.5308420    1.4801430   -0.0833580  
C    -1.4490710    2.3785620   -0.2417970  
N    -0.4187590    1.9558780    0.6013460  
C    -1.4885410    3.4543470   -1.1355450  
C    -2.6512310    3.6361650   -1.8671820  
O    -2.7410030    4.6685220   -2.7535020  
C    -3.7554670    2.7582830   -1.7039580  
O    -4.8436780    3.0766250   -2.4913560  
C    -3.7106490    1.6942730   -0.8228460  
H    -0.6682670    4.1510600   -1.2547170  
H    -3.6263030    4.6282910   -3.1545040  
H    -5.5361870    2.4094270   -2.3739020  
H    -4.5680350    1.0354270   -0.7113900  
H    -0.2018820    0.3294690    1.9880140  
C     3.4582330    0.0608120    0.1216720  
C     4.2446480    1.1563170    0.4217000  
C     3.3802020    2.2689900    0.6918220  
C     2.0009640    1.7567860    0.5295240  
N     2.1131020    0.4323630    0.1855890  
C     0.8741120    2.5107910    0.7062270  
C     1.0484030    3.9168140    1.1135360  
O     0.1123460    4.6552590    1.3657950  
C     2.5149600    4.4801400    1.2382310  
O     2.6557700    5.6645570    1.5054370  
C     3.6310660    3.5690620    1.0259540  
H     5.3191540    1.1662730    0.5141110  
H     4.6364760    3.9626260    1.1376420  
H     1.3633930   -0.2441620    0.1100130  
C     7.2059200   -1.7507900   -1.4749220  
C     6.2277000   -0.8781620   -1.0943140  
C     5.0983360   -1.6545280   -0.6575930  
C     5.4954430   -3.0724860   -0.8261000  
N     6.7956750   -3.0573700   -1.2982250  
C     4.7128290   -4.1464940   -0.5507600  
C     3.3581520   -3.8959210   -0.0836230  
O     2.5785170   -4.7794040    0.2302210  
C     2.8707190   -2.4057020    0.0112170  
O     1.6816770   -2.2234580    0.2366280  
C     3.8449510   -1.3052370   -0.1803330  
H     6.2860400    0.1959090   -1.1613570  
H     5.0440530   -5.1747860   -0.6547150  
H     8.1893290   -1.5402410   -1.8739860  
H     7.3205140   -3.8771010   -1.5615870  
C    -3.0657890   -0.9418600    2.7507200  
C    -2.9186140   -0.6169580    1.4340970  
C    -3.6683440   -1.6225840    0.6829810  
C    -4.2612420   -2.5456400    1.6844460  
N    -3.8418730   -2.0870690    2.9147430  
C    -5.0462290   -3.6112680    1.3794900  
C    -5.3245610   -3.8899170   -0.0244210  
O    -6.0245970   -4.8201090   -0.3968580  
C    -4.6847350   -2.9420160   -1.1047890  
O    -4.9043490   -3.1589440   -2.2865340  
C    -3.8535050   -1.8236600   -0.6479640  
H    -5.4710550   -4.2725620    2.1286320  
H    -3.4120350   -1.1807270   -1.4022680  
H    -2.6730370   -0.4264710    3.6172250  
H    -4.1214970   -2.4772780    3.8007340  
