62


C     1.4977980   -0.1597670   -1.9641500  
C     0.7318410   -0.2352210   -0.8211030  
C     1.6601990   -0.2758190    0.2886640  
C     2.9660190   -0.2169490   -0.2563760  
N     2.8353170   -0.1368720   -1.6297660  
C     4.1403120   -0.2741140    0.5255270  
C     3.9546130   -0.3952710    1.9037820  
O     5.0345690   -0.4055740    2.7275460  
C     2.6519430   -0.4657430    2.4651270  
O     2.6521250   -0.5821240    3.8399140  
C     1.5135410   -0.4113440    1.6838830  
H     3.6035150   -0.1609470   -2.2823900  
H     4.7121120   -0.5688770    3.6310570  
H     1.7415170   -0.6505970    4.1632210  
H     0.5290120   -0.4743610    2.1406270  
H     1.1835540   -0.0864370   -2.9957830  
C    -1.5380330   -1.1036710   -1.5206760  
C    -0.7291200   -0.2971350   -0.7759540  
C    -1.6235020    0.5316800    0.0292290  
C    -3.0085780    0.1205210   -0.3098250  
N    -2.8848090   -0.8438420   -1.2791310  
C    -4.1651630    0.6323250    0.2393370  
C    -3.9645880    1.7627270    1.1432470  
O    -4.8799470    2.4624150    1.5832690  
C    -2.5082720    2.1703580    1.5802030  
O    -2.3828330    3.0275520    2.4399010  
C    -1.3771080    1.5206430    0.9274000  
H    -0.3756980    1.8330790    1.2025330  
H    -1.2560060   -1.8662190   -2.2346050  
H    -3.6532910   -1.4294880   -1.5753860  
C    -5.7673600   -3.5677730    0.0559140  
C    -4.9855820   -2.4606700    0.2748360  
C    -5.7545640   -1.3058250   -0.1152000  
C    -7.0138310   -1.7926390   -0.5558350  
N    -6.9848860   -3.1696310   -0.4546150  
C    -8.0571220   -0.9562250   -0.9668630  
C    -7.8242990    0.4071400   -0.9031150  
O    -8.7970390    1.2865030   -1.2610200  
C    -6.5732840    0.9299050   -0.4701080  
O    -6.5150580    2.3013140   -0.5006220  
C    -5.5066980    0.1017040   -0.1064540  
H    -3.9956000   -2.4713360    0.7078790  
H    -7.7577270   -3.7814480   -0.6654330  
H    -9.0219070   -1.3294810   -1.2946560  
H    -8.4200890    2.1726880   -1.0953950  
H    -6.0376460    2.5881090    0.3154910  
H    -5.5579260   -4.6134740    0.2316220  
C     6.1187920    2.8321780   -1.8567890  
C     7.3170230    2.2337350   -2.0825560  
C     7.2804170    0.9362860   -1.4393250  
C     5.9402130    0.8270210   -0.8150130  
N     5.2713660    1.9976480   -1.1349710  
C     5.4927920   -0.2259710   -0.0706380  
C     6.4251180   -1.3653170    0.0820070  
O     6.1188020   -2.3994170    0.6474600  
C     7.8626560   -1.2565280   -0.5528800  
O     8.6454700   -2.1785160   -0.3829250  
C     8.1988330   -0.0603100   -1.3221140  
H     8.1467270    2.6472710   -2.6371790  
H     9.1906910   -0.0010230   -1.7596650  
H     5.7715920    3.8092740   -2.1665520  
H     4.3995030    2.2753410   -0.7092780  
