60


C     1.7476260   -0.3904510   -1.5341090  
C     2.7669940   -0.1287890   -0.6292880  
C     2.2774750    0.9490960    0.2190020  
C     0.9613420    1.2526280   -0.2056180  
N     0.6694960    0.4087420   -1.2631900  
C     0.1724560    2.2896870    0.3382420  
C     0.7726840    3.0422450    1.3539250  
O     0.0622220    4.0113760    1.9846380  
C     2.1022670    2.7792870    1.7663710  
O     2.5494200    3.6201620    2.7682590  
C     2.8555200    1.7570650    1.2183320  
H    -0.1779370    0.4498040   -1.8089590  
H     0.6800690    4.5008850    2.5556340  
H     3.5126120    3.5496140    2.8431200  
H     3.8757370    1.5949380    1.5531530  
H     1.7278580   -1.0971450   -2.3474060  
C    -3.5029020   -0.1981820   -0.1676460  
C    -2.2395760    0.2814730    0.1285130  
C    -2.1880290    1.6670170   -0.2392810  
C    -3.5327680    1.9994260   -0.7658050  
N    -4.2639220    0.8342750   -0.7170840  
C    -3.9177250    3.2352400   -1.1781380  
C    -2.9434570    4.3133860   -1.1143200  
O    -3.1997020    5.4705080   -1.4128410  
C    -1.4792790    3.9701420   -0.6531270  
O    -0.6219900    4.8274430   -0.7686110  
C    -1.1827330    2.6026690   -0.1504210  
H    -1.4533770   -0.2578360    0.6300980  
H    -4.9191040    3.4603680   -1.5310220  
H    -5.2606140    0.7308800   -0.8627130  
C    -1.6657640   -4.2221070    0.4187480  
C    -1.8738520   -2.9017990    0.1408900  
C    -3.2887450   -2.6560340    0.2304250  
C    -3.9019380   -3.9587620    0.5739190  
N    -2.8585000   -4.8575830    0.7030270  
C    -5.2317950   -4.1882990    0.7290870  
C    -6.1421770   -3.0787130    0.5046240  
O    -7.3530520   -3.1605910    0.6317820  
C    -5.5337610   -1.7012030    0.0576820  
O    -6.3256010   -0.8295070   -0.2785280  
C    -4.0626900   -1.5183140    0.0469800  
H    -1.1076630   -2.1967030   -0.1377090  
H    -5.6462230   -5.1514490    1.0092820  
H    -0.7372000   -4.7771900    0.4330630  
H    -2.9695450   -5.8440800    0.8793120  
C     5.5256550   -1.4167750    2.6540480  
C     4.4563890   -0.9666050    1.9498210  
C     4.7758630   -1.0875940    0.5382440  
C     6.1310810   -1.6769030    0.4822410  
N     6.5428470   -1.8179970    1.7916170  
C     6.8075450   -2.0129670   -0.6525740  
C     6.1361230   -1.8181910   -1.9163730  
O     6.6289370   -2.0747220   -3.0067950  
C     4.6606060   -1.2626550   -1.8918360  
O     4.0497530   -1.2484670   -2.9466300  
C     4.0571150   -0.8014040   -0.6023150  
H     3.5270910   -0.6094870    2.3646650  
H     7.8108290   -2.4272050   -0.6493890  
H     5.6624100   -1.4976830    3.7241550  
H     7.4084070   -2.2510780    2.0724660  
