62


C    -0.8470270   -0.9982850   -0.2263050  
C    -1.9842760   -0.3407900    0.1769200  
C    -3.0764740   -1.2419040   -0.0424330  
C    -2.5385030   -2.4460390   -0.5696920  
N    -1.1711130   -2.2714400   -0.6685650  
C    -3.3206840   -3.5624680   -0.8814770  
C    -4.6892140   -3.4644060   -0.6760100  
O    -5.4989650   -4.5143110   -0.9836360  
C    -5.2580590   -2.2744880   -0.1557450  
O    -6.6232170   -2.3077730    0.0089940  
C    -4.4708280   -1.1744470    0.1709510  
H    -2.0239970    0.6524010    0.5989490  
H    -0.5238100   -2.9057610   -1.1120850  
H    -2.9030720   -4.4807300   -1.2804680  
H    -6.4161180   -4.2386650   -0.8115120  
H    -6.9502620   -1.3986710    0.1109850  
C     0.8547550    0.7062310   -0.8140670  
C     2.1929870    0.8853500   -0.7265650  
C     2.7546870   -0.2977110   -0.0997420  
C     1.6131420   -1.1966830    0.1797310  
N     0.4711890   -0.5372930   -0.2811330  
C     1.7121610   -2.4204180    0.7627720  
C     3.0386120   -2.8995090    1.1242400  
O     3.2405620   -4.0028780    1.6090040  
C     4.2652340   -1.9463090    0.8880940  
O     5.3496830   -2.2854200    1.3209740  
C     4.0450050   -0.6387600    0.2036520  
H     2.7491320    1.7386590   -1.0843210  
H     0.8610020   -3.0595090    0.9693880  
H     0.0915850    1.3442760   -1.2384130  
C     4.9539170    3.4698080    1.6311850  
C     6.1789310    3.6007470    1.0327450  
C     6.4265050    2.3868530    0.3065670  
C     5.2979590    1.5484070    0.5004670  
N     4.4161430    2.2358720    1.3091550  
C     5.1999220    0.2467710   -0.0403700  
C     6.2847660   -0.1844830   -0.8084520  
O     6.2379480   -1.4040390   -1.4109930  
C     7.4142900    0.6465300   -1.0177320  
O     8.3860920    0.0686920   -1.8141620  
C     7.4991560    1.9139680   -0.4742000  
H     6.8322830    4.4595930    1.1017390  
H     3.5404190    1.8714420    1.6492060  
H     7.1107720   -1.5617840   -1.8113050  
H     9.1812890    0.6214130   -1.8049420  
H     8.3778810    2.5312610   -0.6501770  
H     4.4073910    4.1561880    2.2623800  
C    -5.6131740    0.0668000    2.0298970  
C    -6.0119580    1.3272430    2.3283910  
C    -5.7320060    2.1551600    1.1732590  
C    -5.1283700    1.2560960    0.1586000  
N    -5.1001140   -0.0195330    0.7238480  
C    -4.7097240    1.6555290   -1.0685190  
C    -4.8554170    3.0659180   -1.4243370  
O    -4.4930860    3.5204660   -2.4985640  
C    -5.5060760    4.0349130   -0.3698980  
O    -5.6425480    5.2141690   -0.6547520  
C    -5.9197620    3.4774050    0.9210390  
H    -6.4526970    1.6564500    3.2583960  
H    -4.2663070    0.9811180   -1.7928550  
H    -6.3649430    4.1551050    1.6432630  
H    -5.6379030   -0.8294510    2.6359120  
