64


C     3.0731660   -0.2788290   -2.0834140  
C     1.7682940   -0.3318910   -1.6821270  
C     1.6901470    0.3065080   -0.3949020  
C     2.9931610    0.7406400   -0.0517640  
N     3.8230980    0.3678390   -1.1031870  
C     3.2954210    1.4330370    1.1234210  
C     2.2414690    1.6890240    1.9877210  
O     2.4624900    2.3606770    3.1514860  
C     0.9242230    1.2469100    1.6923410  
O     0.0023200    1.5248800    2.6774100  
C     0.6391820    0.5606900    0.5142530  
H     0.9498940   -0.7666330   -2.2378220  
H     4.2968770    1.7702070    1.3648380  
H     1.5979950    2.4583750    3.5893980  
H    -0.8962030    1.5285100    2.3039960  
H     3.5621090   -0.6358970   -2.9778450  
C     5.7474930    1.7616890   -1.7056670  
C     7.1059210    1.6586220   -1.6074040  
C     7.4020910    0.3927010   -0.9894000  
C     6.1675400   -0.2485040   -0.7248470  
N     5.1685590    0.6095130   -1.1742310  
C     6.0676260   -1.5074190   -0.1259270  
C     7.2539350   -2.1383650    0.2172240  
O     7.2239420   -3.3693150    0.8054430  
C     8.5055870   -1.5166120   -0.0375600  
O     9.5932740   -2.2716440    0.3601860  
C     8.5923250   -0.2707040   -0.6310650  
H     7.8209170    2.3999210   -1.9373860  
H     5.1166700   -1.9878860    0.0750050  
H     8.1458980   -3.6307240    0.9722140  
H    10.4095110   -1.7827440    0.1793800  
H     9.5631150    0.1850430   -0.8163750  
H     5.1132040    2.5417490   -2.1005690  
C    -1.0477640   -1.2189820    0.0455830  
C    -2.4039200   -1.3105490   -0.1139410  
C    -2.9422290    0.0168050    0.0018590  
C    -1.8356210    0.8822980    0.2121350  
N    -0.6818610    0.1057410    0.2503470  
C    -1.9619780    2.2758190    0.2996900  
C    -3.2405860    2.7978370    0.1628710  
O    -3.4375050    4.1405280    0.2166820  
C    -4.3675560    1.9592080   -0.0460940  
O    -5.5535850    2.6473350   -0.1390030  
C    -4.2556840    0.5645910   -0.1014930  
H    -2.9530780   -2.2227280   -0.2940080  
H    -1.1106660    2.9417270    0.3946430  
H    -4.3912690    4.2708640    0.0481130  
H    -6.0556210    2.2482840   -0.8881500  
H    -0.2881500   -1.9871360    0.0493610  
C    -5.5981320   -3.0078690    2.1658730  
C    -4.9645690   -1.8824780    1.7430600  
C    -5.6442270   -1.4197270    0.5543270  
C    -6.7489540   -2.3844100    0.3188400  
N    -6.6508770   -3.3318320    1.3175510  
C    -7.6397880   -2.3174160   -0.7039410  
C    -7.5253470   -1.1939760   -1.6150740  
O    -8.2332850   -1.0382130   -2.5973930  
C    -6.4456930   -0.0919100   -1.2994820  
O    -6.5304420    0.9519630   -1.9446180  
C    -5.4291740   -0.3270870   -0.2589740  
H    -4.1115700   -1.4156140    2.2086980  
H    -8.4087340   -3.0612310   -0.8855770  
H    -5.3889090   -3.6301570    3.0258840  
H    -7.3002340   -4.0903300    1.4545340  
