58


C     0.8205260    1.6381450   -0.2403750  
C    -0.5365460    1.3775470   -0.3568990  
C    -0.7152200   -0.0397380   -0.3793160  
C     0.6326980   -0.6333500   -0.2700550  
N     1.5090180    0.4292870   -0.2012730  
C     0.9100310   -1.9733840   -0.2487850  
C    -0.2579030   -2.8809740   -0.2664060  
O    -0.1700480   -4.0744990   -0.0478480  
C    -1.6920110   -2.2863460   -0.5057990  
O    -2.6213540   -3.0506150   -0.6997920  
C    -1.8424570   -0.8225180   -0.4941730  
H    -1.3300470    2.1063420   -0.3313190  
H     2.5072320    0.3894280   -0.0351170  
C    -0.2844640    5.8422250   -1.2656030  
C    -0.2536180    4.4799300   -1.1592390  
C     0.9616100    4.1233230   -0.4816990  
C     1.6564150    5.4017380   -0.2051330  
N     0.8323870    6.4043780   -0.6851720  
C     2.8598750    5.5275170    0.4102440  
C     3.5493960    4.3098200    0.8053440  
O     4.6172110    4.2994770    1.3947710  
C     2.8874780    2.9329630    0.4441150  
O     3.5593460    1.9276220    0.6418440  
C     1.5144710    2.9039910   -0.1102550  
H    -0.9946760    3.8081170   -1.5596940  
H     3.3280530    6.4825770    0.6259460  
H    -1.0335050    6.4726220   -1.7262170  
H     1.0571530    7.3874490   -0.6757180  
C     4.2886750   -1.4144790    2.5636870  
C     5.1959350   -2.2374000    1.9819150  
C     4.5701920   -2.8126030    0.8091910  
C     3.2012110   -2.2450200    0.7529590  
N     3.1025270   -1.3832270    1.8304890  
C     2.2613730   -2.5482400   -0.1924540  
C     2.6793290   -3.4838910   -1.2628480  
O     1.9793170   -3.7262230   -2.2294190  
C     4.1082650   -4.1327090   -1.1868350  
O     4.4207320   -4.9579650   -2.0301740  
C     5.0075170   -3.7083910   -0.1156710  
H     6.2033470   -2.4262310    2.3228230  
H     6.0006330   -4.1458390   -0.0850280  
H     4.3810250   -0.8087160    3.4551360  
H     2.2339860   -0.9926890    2.1628410  
C    -3.3954270    0.6030720   -1.8156970  
C    -4.7004260    0.9690420   -1.8299470  
C    -5.3417800    0.3261520   -0.7032290  
C    -4.2868000   -0.4642890   -0.0236730  
N    -3.1070000   -0.2550410   -0.7459520  
C    -4.4871170   -1.1828560    1.1070940  
C    -5.8285020   -1.2002110    1.6918980  
O    -6.0936970   -1.8043030    2.7192040  
C    -6.9664980   -0.3914070    0.9709890  
O    -8.0923610   -0.3996850    1.4434710  
C    -6.6178480    0.3586680   -0.2376930  
H    -5.1800520    1.6035410   -2.5614690  
H    -3.7113140   -1.7601640    1.5958490  
H    -7.4031290    0.9331130   -0.7197980  
H    -2.6006890    0.8542300   -2.5052620  
