62


C     1.2142260   -0.0526400   -1.4800080  
C     0.6073920    0.8513700   -0.6352800  
C     1.6706130    1.4195640    0.1713630  
C     2.8826570    0.8134300   -0.2475390  
N     2.5764010   -0.0682170   -1.2602720  
C     4.1227570    1.1289870    0.3414080  
C     4.1246630    2.0761090    1.3651600  
O     5.2996360    2.4240810    1.9614170  
C     2.9161650    2.6897630    1.7818590  
O     3.0933070    3.6062000    2.7983760  
C     1.6992010    2.3745850    1.2083560  
H     3.2291270   -0.7065490   -1.6894290  
H     5.0833250    3.0600910    2.6665240  
H     2.2306770    3.8979790    3.1293670  
H     0.7859730    2.8570540    1.5455630  
H     0.7716470   -0.6804830   -2.2399200  
C    -2.9983160   -1.7621640   -0.1428950  
C    -1.7279340   -1.2886160   -0.2773150  
C    -1.8129440    0.1377550   -0.4463890  
C    -3.1873640    0.4801760   -0.4110820  
N    -3.9115320   -0.7072990   -0.2370130  
C    -3.6334750    1.8036130   -0.4588700  
C    -2.6697360    2.7948500   -0.5821960  
O    -3.0539080    4.1044140   -0.6585540  
C    -1.2955830    2.4708870   -0.6424870  
O    -0.4643620    3.5675130   -0.7873470  
C    -0.8357630    1.1542190   -0.5713960  
H    -0.8263630   -1.8831410   -0.2408650  
H    -4.6787410    2.0792680   -0.4258670  
H    -2.2465270    4.6275420   -0.8029550  
H     0.4301970    3.2537830   -0.9997460  
H    -3.3585190   -2.7647380    0.0210660  
C    -6.2687060   -3.0058760    2.5810830  
C    -7.5276400   -2.7136060    2.1857180  
C    -7.3714060   -1.8193530    1.0414960  
C    -5.8897680   -1.6821630    0.8895130  
N    -5.2546900   -2.3745050    1.7869860  
C    -5.3043530   -0.8492140   -0.1570590  
C    -6.1746610   -0.2383300   -1.0162650  
O    -5.7883180    0.5144940   -2.0634540  
C    -7.6528570   -0.3568870   -0.8681960  
O    -8.3597810    0.2269860   -1.6925360  
C    -8.2222130   -1.1836460    0.2164170  
H    -8.4614350   -3.0522790    2.6124770  
H    -6.6264720    0.8151130   -2.4808180  
H    -9.3045880   -1.2414640    0.2792060  
H    -5.9532340   -3.6410030    3.3998060  
C     6.4671460    1.2470450   -0.5219230  
C     7.4738630    0.4155170   -0.8831830  
C     7.0107390   -0.9389050   -0.6748850  
C     5.6264110   -0.8237220   -0.1471040  
N     5.3371750    0.5354200   -0.0919810  
C     4.8540570   -1.8863090    0.2050410  
C     5.4025310   -3.2307010    0.0389960  
O     4.7798120   -4.2416090    0.3272050  
C     6.8568070   -3.3739160   -0.5404750  
O     7.3226420   -4.4911220   -0.7022790  
C     7.5962150   -2.1510270   -0.8615050  
H     8.4457350    0.7084540   -1.2530200  
H     3.8617150   -1.7873420    0.6311580  
H     8.6082870   -2.2594300   -1.2398460  
H     6.4291460    2.3269410   -0.5215270  
