60


C     1.7725210   -2.5633530    2.0394390  
C     0.8354890   -1.6198340    1.7012670  
C     1.4292700   -0.7635300    0.7156020  
C     2.7440180   -1.2457380    0.5036740  
N     2.9233670   -2.3481940    1.3085280  
C     3.6531360   -0.6301430   -0.3745920  
C     3.2215430    0.5111120   -1.0484830  
O     4.0497980    1.1250510   -1.9294730  
C     1.9169950    1.0245560   -0.8359840  
O     1.6526030    2.1337030   -1.6008120  
C     0.9980260    0.4077070    0.0273320  
H    -0.1545170   -1.5364010    2.1233320  
H     3.7938900   -2.8446400    1.4228490  
H     3.5616970    1.8764950   -2.3120670  
H     0.7054830    2.3635040   -1.5331180  
H     1.7156190   -3.3794800    2.7453700  
C    -0.3512230    0.9311470    0.1783400  
C    -1.5416190    0.2798790    0.3514890  
C    -2.6078890    1.2487160    0.3851120  
C    -1.9598770    2.5640710    0.2222780  
N    -0.5886150    2.3279560    0.0311350  
C    -2.5971380    3.7567930    0.2397100  
C    -4.0492970    3.7501260    0.3852400  
O    -4.7240440    4.7659580    0.3906280  
C    -4.7776800    2.3631270    0.5169560  
O    -5.9902070    2.3651970    0.6488420  
C    -3.9722900    1.1184810    0.5119770  
H    -1.6639290   -0.7926670    0.3603490  
H    -2.0928010    4.7108560    0.1218140  
H     0.0724970    2.9791180    0.4444140  
C    -4.2338110   -1.1284700    1.6167030  
C    -4.6358340   -0.1693550    0.7287010  
C    -5.8233990   -0.7117640    0.0566150  
C    -6.0510000   -2.0586130    0.6351830  
N    -5.0478590   -2.2474670    1.5686850  
C    -7.0550000   -2.8994770    0.2805540  
C    -7.9797330   -2.4707910   -0.7635910  
O    -8.9115430   -3.1567630   -1.1547200  
C    -7.7432020   -1.0608180   -1.4152360  
O    -8.4837340   -0.6916380   -2.3115870  
C    -6.6300190   -0.2359260   -0.9242390  
H    -7.1989390   -3.8787930    0.7267530  
H    -6.5100050    0.7485740   -1.3604600  
H    -3.4140090   -1.0882270    2.3216810  
H    -4.9909840   -3.0336300    2.1973450  
C     5.2121210   -2.4098600   -1.1782640  
C     6.5435950   -2.6499000   -1.2602430  
C     7.2254390   -1.5024410   -0.6973760  
C     6.1634040   -0.5586080   -0.2716790  
N     4.9470190   -1.1683910   -0.5811070  
C     6.3947340    0.6392230    0.3183640  
C     7.7807240    1.0421270    0.5486650  
O     8.0851090    2.1008270    1.0760790  
C     8.9241920    0.0604940    0.0991650  
O    10.0874740    0.3808840    0.2848090  
C     8.5409910   -1.2103180   -0.5226940  
H     7.0115170   -3.5275030   -1.6825650  
H     5.6043730    1.3174330    0.6193410  
H     9.3369820   -1.8847490   -0.8236200  
H     4.3789750   -3.0146860   -1.5121320  
