60


C    -4.0672840   -0.1097600   -0.0735840  
C    -4.7915750    1.0768370    0.0421760  
C    -3.8849320    2.1583260   -0.1263090  
C    -2.6009670    1.5832770   -0.3461420  
N    -2.7374430    0.2245990   -0.3068970  
C    -1.4535150    2.3698560   -0.5587160  
C    -1.6106600    3.7547960   -0.5517870  
O    -0.5383500    4.5574120   -0.7671500  
C    -2.8900000    4.3352100   -0.3156560  
O    -2.8665700    5.7138430   -0.3324560  
C    -4.0153030    3.5649710   -0.1105130  
H    -5.8603270    1.1574070    0.1686140  
H    -2.0412390   -0.4856060   -0.5004070  
H    -0.8452630    5.4787320   -0.6934930  
H    -3.7524070    6.0610010   -0.1504020  
H    -4.9808140    4.0346950    0.0633240  
C     0.1533430    0.9921330   -1.8908510  
C     1.4334910    0.5476330   -1.8119700  
C     1.9970230    1.0579290   -0.5809080  
C     0.9174740    1.8382940    0.0654310  
N    -0.1841410    1.7757900   -0.7842290  
C     1.0160490    2.4559250    1.2702610  
C     2.2741290    2.3506730    1.9879070  
O     2.4646110    2.8371450    3.0929200  
C     3.4576320    1.5656830    1.3095790  
O     4.5310360    1.5332980    1.8881230  
C     3.2377350    0.9156170   -0.0059780  
H     1.9256250   -0.0948270   -2.5259620  
H     0.2032580    3.0145100    1.7195680  
H    -0.5894960    0.8216220   -2.6589260  
C     4.6923340    0.3769690   -1.9843860  
C     4.3476950    0.2273860   -0.6697040  
C     5.2868380   -0.7558010   -0.1145720  
C     6.1834720   -1.1517310   -1.2291230  
N     5.7647800   -0.4294280   -2.3299890  
C     7.1957900   -2.0510390   -1.1338990  
C     7.4235000   -2.7027930    0.1500990  
O     8.3070750   -3.5260970    0.3367290  
C     6.4698000   -2.3241050    1.3402240  
O     6.6219060   -2.8763220    2.4177570  
C     5.4227740   -1.3186030    1.1120230  
H     7.8381840   -2.3156190   -1.9683410  
H     4.8026410   -1.0450980    1.9571020  
H     4.2529120    1.0354940   -2.7217370  
H     6.2247020   -0.4311470   -3.2269980  
C    -7.6872250   -2.1321680    1.5802090  
C    -6.7162470   -1.2267390    1.2808980  
C    -5.6943720   -1.9140500    0.5261750  
C    -6.1480250   -3.3162640    0.4172820  
N    -7.3742550   -3.3747960    1.0490230  
C    -5.4720500   -4.3259140   -0.1988950  
C    -4.1805910   -4.0180030   -0.7703630  
O    -3.4822090   -4.8208030   -1.3718720  
C    -3.6264730   -2.5537800   -0.5976130  
O    -2.4664400   -2.3586930   -0.9394840  
C    -4.4984740   -1.4920330   -0.0287490  
H    -6.6976370   -0.1979880    1.6018470  
H    -5.8550670   -5.3374860   -0.2856260  
H    -8.5990760   -1.9992690    2.1467730  
H    -7.9053760   -4.2202270    1.1875050  
