60


C     4.6906940    0.2866660    2.3698330  
C     5.8181810   -0.0944340    1.7183040  
C     5.4074800   -0.8338790    0.5413920  
C     3.9252970   -0.8474420    0.5605490  
N     3.5528720   -0.1248990    1.6779550  
C     3.1320460   -1.4963400   -0.3452870  
C     3.8218700   -2.1771670   -1.4631420  
O     3.2209680   -2.6903280   -2.3899770  
C     5.3933650   -2.1879920   -1.4861410  
O     5.9610250   -2.7980030   -2.3777090  
C     6.1109810   -1.4646430   -0.4364770  
H     6.8352500    0.1071370    2.0212460  
H     7.1962250   -1.4796460   -0.4633050  
H     4.5845390    0.8401710    3.2937030  
H     2.6038850   -0.0609090    2.0145770  
C    -0.1070750    1.6209930   -0.1724250  
C     1.1251370    1.0012610   -0.2367000  
C     0.8648790   -0.4108820   -0.2007820  
C    -0.6256470   -0.5011860   -0.0840240  
N    -1.1801270    0.6739300   -0.0633730  
C    -1.3175720   -1.7752470   -0.0057400  
C    -0.5306020   -2.8829270   -0.1134650  
O    -1.0086890   -4.1281830   -0.1267700  
C     0.9782160   -2.8253200   -0.2161550  
O     1.5619910   -3.9066260   -0.1884740  
C     1.6642180   -1.5190410   -0.2711170  
H     2.0809540    1.4587890   -0.4490120  
H    -0.2128640   -4.7091920   -0.1628180  
C    -4.9858670   -0.2693940   -2.1284190  
C    -3.6900050   -0.4605030   -1.7940580  
C    -3.7243960   -1.2871390   -0.5903120  
C    -5.1860530   -1.4962910   -0.3405920  
N    -5.9165120   -0.9088080   -1.2431340  
C    -5.6661160   -2.2872300    0.7636360  
C    -4.7457050   -2.8414830    1.5832220  
O    -5.0436360   -3.5878360    2.6614990  
C    -3.2692500   -2.6451350    1.3693820  
O    -2.5154240   -3.1211100    2.2143780  
C    -2.7780400   -1.8696340    0.1879050  
H    -2.8086650   -0.0613820   -2.2712990  
H    -6.7317690   -2.4173760    0.9160200  
H    -4.1765250   -3.8194350    3.0608940  
H    -5.3816740    0.2944940   -2.9648920  
C     2.2914090    4.9818350    1.3621440  
C     1.4155860    5.9882850    1.0518560  
C     0.2842610    5.3769720    0.4162980  
C     0.5343570    3.9844000    0.3590450  
N     1.7672520    3.7747770    0.9355230  
C    -0.3930590    3.0402650   -0.1629450  
C    -1.5985260    3.5824260   -0.6603140  
O    -2.5187900    2.7927640   -1.2550870  
C    -1.8465900    4.9804000   -0.6133070  
O    -3.0665340    5.3352640   -1.1541080  
C    -0.9333930    5.8730760   -0.0900470  
H     1.5569380    7.0414320    1.2514300  
H     2.1618920    2.8645730    1.1151950  
H    -3.2742070    3.3581200   -1.4986650  
H    -3.1929050    6.2928040   -1.0834500  
H    -1.1526250    6.9387420   -0.0723760  
H     3.2593770    5.0195430    1.8412460  
