60


C    -1.1568440   -0.1453580   -1.5282570  
C    -2.1932280   -0.5637950   -0.7129180  
C    -1.6525380   -1.6163130    0.1253170  
C    -0.2973210   -1.7836950   -0.2467050  
N    -0.0363810   -0.8879030   -1.2697080  
C     0.5514440   -2.7603620    0.3198770  
C    -0.0094790   -3.5284640    1.3465790  
O     0.7509460   -4.4371510    2.0104630  
C    -1.3711060   -3.3786060    1.7204950  
O    -1.7600850   -4.2405700    2.7240330  
C    -2.2001060   -2.4548120    1.1158450  
H     0.9035340   -0.6221190   -1.5307450  
H     0.1673870   -4.9004300    2.6372170  
H    -2.7120700   -4.1564020    2.8828080  
H    -3.2497500   -2.3934950    1.3913250  
H    -1.1406830    0.6536000   -2.2558450  
C     4.0066480   -0.0605480   -0.3155080  
C     4.9913430   -0.9504000   -0.6443310  
C     4.3558950   -2.2445670   -0.6516200  
C     2.9263880   -1.9696330   -0.2737570  
N     2.7337450   -0.6906220   -0.0978350  
C     1.9338650   -3.0198310   -0.1459720  
C     2.3690890   -4.2732870   -0.4828010  
O     1.5848580   -5.3488220   -0.5032300  
C     3.7981710   -4.5785970   -0.8760670  
O     4.0645900   -5.7489340   -1.1451240  
C     4.7831700   -3.4960290   -0.9341600  
H     6.0317230   -0.7449230   -0.8532450  
H     2.1699840   -6.0962670   -0.7668780  
H     5.7988610   -3.7508620   -1.2189010  
C     4.0679380    1.3680470   -0.1518840  
C     5.1078460    2.2496140   -0.3379130  
C     4.6247810    3.5658610   -0.0205760  
C     3.2008470    3.4031840    0.3767170  
N     2.9278550    2.0577010    0.2603230  
C     2.3948360    4.4243870    0.7635880  
C     2.9471710    5.7760590    0.7895770  
O     2.2982260    6.7552780    1.1230950  
C     4.4485950    5.9728980    0.3641420  
O     4.9278890    7.0960180    0.3754970  
C     5.2208540    4.7916090   -0.0309070  
H     6.1048750    1.9982380   -0.6698600  
H     1.3578170    4.2889890    1.0543420  
H     6.2576610    4.9385980   -0.3179630  
H     2.0724740    1.5845140    0.5129370  
C    -3.5315290   -0.0236590   -0.7225890  
C    -4.2474500    0.5557810   -1.7394990  
C    -5.5217420    0.9705980   -1.2197380  
C    -5.5175010    0.5961050    0.2162790  
N    -4.3152780   -0.0592290    0.4470180  
C    -6.5224600    0.8693450    1.0824920  
C    -7.7154420    1.5444460    0.5720370  
O    -8.6718230    1.8210640    1.2797700  
C    -7.7624450    1.9104640   -0.9568700  
O    -8.7603040    2.4646520   -1.3967600  
C    -6.6041180    1.5808760   -1.7813400  
H    -3.9289900    0.6259560   -2.7698770  
H    -6.4976720    0.5987490    2.1339980  
H    -6.6396450    1.8561610   -2.8310970  
H    -3.8929100   -0.1001230    1.3640320  
