60


C     1.9515060   -0.5438920   -0.0586130  
C     3.2245830   -0.0129070   -0.0230720  
C     3.0615590    1.4304900   -0.1153000  
C     1.6763550    1.6902610   -0.2348020  
N     1.0060500    0.4554310   -0.1951300  
C     1.1518740    2.9831660   -0.3161090  
C     2.0504640    4.0402800   -0.3088790  
O     1.5901850    5.3229770   -0.3831790  
C     3.4419730    3.7991070   -0.2168690  
O     4.2148200    4.9442130   -0.2206150  
C     3.9525610    2.5172330   -0.1220380  
H     0.0926860    3.1863270   -0.3958220  
H     2.3674650    5.9064080   -0.3366470  
H     5.1322400    4.7110710   -0.0132730  
H     5.0186110    2.3594640   -0.0035020  
H     1.6348190   -1.5668080    0.0617010  
C    -1.4102020   -2.0192760    2.4001800  
C    -2.6570240   -1.7721570    1.9341620  
C    -2.4762810   -0.8348020    0.8306930  
C    -1.0000300   -0.6299450    0.7747110  
N    -0.3856000   -1.3244460    1.6881770  
C    -0.3828740    0.2407250   -0.2168840  
C    -1.2150630    0.8138970   -1.1345470  
O    -0.7916370    1.6043950   -2.1354990  
C    -2.6966360    0.6498780   -1.0769630  
O    -3.3645700    1.2962110   -1.8814420  
C    -3.3209380   -0.2497870   -0.0549690  
H    -3.5949540   -2.1764120    2.2862830  
H    -1.6108870    1.8980980   -2.5936110  
H    -1.1172190   -2.6688270    3.2160900  
C    -6.5532510    0.4823080    2.9295760  
C    -5.3509230    0.3671330    2.3047380  
C    -5.6034930   -0.1394980    0.9745600  
C    -7.0759870   -0.3062610    0.8727500  
N    -7.5877210    0.0753170    2.0987050  
C    -7.7369020   -0.7312550   -0.2333990  
C    -6.9558200   -1.0558390   -1.4211020  
O    -7.4574060   -1.4179190   -2.4729750  
C    -5.3931120   -0.9440890   -1.3315250  
O    -4.7232730   -1.3435920   -2.2670530  
C    -4.7811920   -0.4153220   -0.0872180  
H    -4.3871750    0.6075730    2.7265790  
H    -8.8172380   -0.8243970   -0.2859660  
H    -6.7719930    0.8294040    3.9308300  
H    -8.5692430    0.1166270    2.3244360  
C     4.3452520   -3.8873720   -1.8682810  
C     3.7318240   -2.7206000   -1.5455810  
C     4.5723500   -2.0333290   -0.5838830  
C     5.7506740   -2.9047700   -0.3829510  
N     5.5391050   -4.0221420   -1.1631120  
C     6.8189870   -2.6196200    0.4130630  
C     6.8184590   -1.3540470    1.1114940  
O     7.7331310   -0.9639060    1.8250740  
C     5.5687190   -0.4058110    0.9359150  
O     5.5810600    0.6523430    1.5419320  
C     4.4344180   -0.8260570    0.0663260  
H     2.8013230   -2.3576090   -1.9530280  
H     7.6681330   -3.2848010    0.5346050  
H     4.0367120   -4.6602070   -2.5594230  
H     6.2044030   -4.7698680   -1.2807580  
