60


C    -2.0996180    1.6484580    0.1128520  
C    -3.2749400    1.0216910    0.4495720  
C    -2.9809560   -0.3765880    0.6359290  
C    -1.5929690   -0.5284220    0.4109150  
N    -1.0807730    0.7204530    0.1217370  
C    -0.9343750   -1.7833140    0.4691270  
C    -1.7634280   -2.8874170    0.7152370  
O    -1.2382570   -4.1478480    0.7465060  
C    -3.1528150   -2.7389740    0.9578990  
O    -3.7879390   -3.9329230    1.2184870  
C    -3.7684850   -1.5035780    0.9380150  
H    -0.1544560    0.8778210   -0.2473990  
H    -1.9733560   -4.7638790    0.9220210  
H    -4.7485160   -3.8061830    1.2370540  
H    -4.8345830   -1.4092100    1.1246380  
H    -1.9126060    2.6850630   -0.1273740  
C     0.5061230   -1.9047730    0.2782160  
C     1.4966650   -0.9704450    0.4937360  
C     2.7599180   -1.5588050    0.1373910  
C     2.4477630   -2.9323970   -0.3206300  
N     1.0819270   -3.0752770   -0.2103690  
C     3.3628800   -3.8325270   -0.7652360  
C     4.7562730   -3.4219450   -0.8124920  
O     5.6579380   -4.1407200   -1.2157460  
C     5.1241950   -1.9722200   -0.3212340  
O     6.2988060   -1.6413990   -0.3374420  
C     4.0482310   -1.0736620    0.1570510  
H     1.3613440    0.0096970    0.9229480  
H     3.1045410   -4.8331270   -1.0968790  
H     0.5667650   -3.9364570   -0.3197760  
C     3.9445800    0.7549200    1.8820500  
C     4.3918590    0.2456380    0.6950750  
C     5.2414330    1.2861240    0.1023550  
C     5.2284190    2.4267920    1.0512330  
N     4.4119800    2.0428180    2.0994090  
C     5.8971630    3.5943790    0.8741930  
C     6.6734410    3.7684410   -0.3484580  
O     7.3028970    4.7841330   -0.6026750  
C     6.6769010    2.5884020   -1.3863300  
O     7.2913100    2.7227400   -2.4317450  
C     5.9313300    1.3637700   -1.0627140  
H     5.8748130    4.4094020    1.5913140  
H     5.9824930    0.5461170   -1.7718590  
H     3.3206780    0.2751920    2.6247030  
H     4.3135400    2.5545100    2.9626650  
C    -4.8237080    2.6334060    1.5682660  
C    -6.1138040    3.0418830    1.4845510  
C    -6.7352740    2.2871100    0.4169470  
C    -5.6781180    1.3988160   -0.1280810  
N    -4.5279690    1.6488960    0.6161500  
C    -5.8584500    0.5365430   -1.1610400  
C    -7.1844210    0.4500340   -1.7683880  
O    -7.4456350   -0.3114240   -2.6873840  
C    -8.3224920    1.3760810   -1.2014550  
O    -9.4369850    1.3141820   -1.6960980  
C    -7.9946580    2.2785410   -0.0942420  
H    -6.5924160    3.7868660    2.1035170  
H    -5.0675210   -0.0915600   -1.5561380  
H    -8.7852960    2.9197700    0.2836310  
H    -4.0406490    2.9480470    2.2453550  
