60


C     2.3867450   -1.5059880    0.4953470  
C     1.1753380   -0.8944050    0.3137600  
C     1.3652650    0.5249460    0.4515170  
C     2.7371670    0.7256470    0.7110720  
N     3.3397410   -0.5282950    0.7461890  
C     3.3347040    1.9810760    0.8773890  
C     2.5118710    3.0844620    0.7665810  
O     3.0203880    4.3346450    0.9066240  
C     1.1166940    2.9446620    0.5070120  
O     0.4754050    4.1280100    0.4344950  
C     0.5019900    1.6709170    0.3621270  
H     0.2666610   -1.4207800    0.0701300  
H     4.3946470    2.1056190    1.0692280  
H     2.2782060    4.9537050    0.7741590  
H    -0.4893720    3.9357770    0.2039050  
H     2.6741260   -2.5464950    0.4619280  
C    -0.9217210    1.5748850    0.1544160  
C    -1.7755710    0.4866830    0.1064140  
C    -3.0880450    1.0002500   -0.1386250  
C    -2.9013700    2.4802710   -0.2267840  
N    -1.6484410    2.7976370   -0.0433190  
C    -3.9777100    3.3847290   -0.4971250  
C    -5.2054660    2.8369090   -0.6635650  
O    -6.3083210    3.5367410   -0.9193810  
C    -5.4576220    1.3423470   -0.5243960  
O    -6.6367990    0.9995310   -0.5559630  
C    -4.3267740    0.4218890   -0.2937530  
H    -1.5190000   -0.5549500    0.1927410  
H    -3.8029250    4.4521260   -0.5696920  
H    -7.0371270    2.8716810   -0.9385420  
C    -3.3227230   -2.5749970    2.7954240  
C    -3.9310150   -3.6620260    2.2570190  
C    -4.5279490   -3.2443610    1.0051160  
C    -4.2097660   -1.8030710    0.8567180  
N    -3.4920510   -1.4573350    1.9823660  
C    -4.6140330   -1.0119410   -0.1873510  
C    -5.3584010   -1.6874940   -1.2759160  
O    -5.6318340   -1.1332530   -2.3254030  
C    -5.7590130   -3.1953760   -1.0981840  
O    -6.4575310   -3.7195380   -1.9506670  
C    -5.2699400   -3.9099270    0.0796700  
H    -3.9743100   -4.6533550    2.6837490  
H    -5.5354570   -4.9575590    0.1830100  
H    -2.7712180   -2.4830290    3.7217480  
H    -3.0410440   -0.5639040    2.1147840  
C     5.2637180   -0.9447300    2.2138890  
C     6.5913670   -1.1729640    2.0836680  
C     6.9078440   -1.1429310    0.6667700  
C     5.6362180   -0.8722470   -0.0442990  
N     4.6703350   -0.7586620    0.9553050  
C     5.4987590   -0.7711670   -1.3869450  
C     6.6971900   -0.9402150   -2.2108610  
O     6.6804360   -0.8714520   -3.4287560  
C     8.0632280   -1.2249530   -1.4839280  
O     9.0723170   -1.3681540   -2.1545580  
C     8.0683430   -1.3097530   -0.0187110  
H     7.2926550   -1.3452610    2.8873220  
H     4.5519320   -0.5714870   -1.8771880  
H     9.0167420   -1.5077970    0.4714780  
H     4.6399700   -0.8866930    3.0955200  
