58


C    -1.6070620    0.0723370    0.5656280  
C    -1.3617350    1.3726770    0.2173030  
C    -2.5861250    1.8636960   -0.4189370  
C    -3.5452350    0.7323770   -0.4029010  
N    -2.8796350   -0.3500470    0.1927780  
C    -4.8221160    0.8035470   -0.8521590  
C    -5.2844370    2.0549810   -1.4520910  
O    -6.4173930    2.2015080   -1.8828510  
C    -4.2632040    3.2376420   -1.5543120  
O    -4.6060870    4.2741510   -2.0995150  
C    -2.9263870    3.0517370   -0.9787150  
H    -5.5226040   -0.0208080   -0.8005720  
H    -2.2594750    3.9043440   -0.9929600  
H    -0.9559100   -0.6106530    1.0882470  
C     2.9287920    0.1273780   -0.1381360  
C     1.5470140    0.1454630   -0.2133270  
C     1.1380670    1.4240260    0.2730940  
C     2.4233430    2.1122060    0.6156260  
N     3.4575550    1.3556150    0.3806140  
C     2.4580170    3.4554740    1.1269190  
C     1.2740730    4.0901390    1.2762950  
O     1.1447250    5.3432230    1.7255540  
C    -0.0498990    3.4287600    0.9462800  
O    -1.0548800    4.1113490    1.1524190  
C    -0.0827940    2.0436650    0.4356320  
H     0.9082220   -0.6370340   -0.5961070  
H     3.4039210    3.9270690    1.3679510  
H     0.1750830    5.5142490    1.7402750  
C     3.5751820   -2.1619040   -1.0141790  
C     3.8396500   -0.9062520   -0.5049280  
C     5.3164100   -0.8666610   -0.4215890  
C     5.7434880   -2.1952070   -0.9300110  
N     4.7083560   -2.9354760   -1.2708800  
C     7.1227380   -2.5700610   -1.0163440  
C     8.0468620   -1.6605710   -0.6123910  
O     9.3690240   -1.8706480   -0.6354910  
C     7.6466290   -0.3045990   -0.0914080  
O     8.5458470    0.4591030    0.2527490  
C     6.2125530    0.0522350   -0.0154580  
H     7.4005420   -3.5483120   -1.3924590  
H     9.7726210   -1.0439460   -0.2879570  
H     5.9346140    1.0300060    0.3602850  
H     2.5996820   -2.5861030   -1.2231940  
C    -5.0890050   -3.3720450   -2.1528630  
C    -4.3649320   -2.2785880   -1.7876830  
C    -4.0987610   -2.3956980   -0.3737050  
C    -4.7233630   -3.6678420    0.0622130  
N    -5.3193030   -4.1999460   -1.0655650  
C    -4.6751510   -4.1792730    1.3197440  
C    -3.9464660   -3.4359960    2.3347030  
O    -3.8161080   -3.8099470    3.4887200  
C    -3.2662690   -2.0793460    1.9182440  
O    -2.6243210   -1.4630830    2.7515380  
C    -3.4251760   -1.6061700    0.5244440  
H    -4.0523420   -1.4769900   -2.4380760  
H    -5.1442560   -5.1159000    1.6028640  
H    -5.4704650   -3.6425970   -3.1284420  
H    -5.8131080   -5.0783880   -1.0933910  
