60


C    -1.2195440   -0.9949180   -0.0905340  
C     0.0908210   -1.3894140   -0.1603700  
C     0.9158320   -0.2120670   -0.1977210  
C    -0.0084770    0.9317130   -0.1132800  
N    -1.2940990    0.4101390   -0.1345090  
C     0.3518600    2.2544890   -0.0404020  
C     1.7925150    2.5206710    0.0326680  
O     2.2619920    3.6141620    0.2967720  
C     2.8016100    1.3297870   -0.1698230  
O     3.9877380    1.6059070   -0.1977590  
C     2.2892820   -0.0616940   -0.3097450  
H     0.4361720   -2.4111510   -0.1985220  
H    -2.0599980    0.9144870    0.3009490  
C    -2.4181290   -1.7874100   -0.0307250  
C    -2.5928170   -3.0869750    0.3719990  
C    -3.9892210   -3.4079510    0.2483990  
C    -4.6477290   -2.1860220   -0.2733800  
N    -3.6584900   -1.2119940   -0.3641430  
C    -5.9633920   -2.0990070   -0.5823850  
C    -6.8092500   -3.2722210   -0.3566600  
O    -8.0053810   -3.2812700   -0.5998320  
C    -6.1410670   -4.5649010    0.2377510  
O    -6.8366110   -5.5483670    0.4434070  
C    -4.7044320   -4.5381260    0.5112900  
H    -1.8226330   -3.7336290    0.7677110  
H    -6.4290660   -1.2000250   -0.9746890  
H    -4.2489400   -5.4420710    0.9040400  
H    -3.7266890   -0.4430790   -1.0178800  
C    -3.1473030    3.1768790    2.4984030  
C    -3.5527480    4.3221860    1.9019420  
C    -2.6433030    4.5950630    0.8047740  
C    -1.6622440    3.4920930    0.8071580  
N    -2.0573860    2.6035780    1.8200460  
C    -0.5945710    3.3775640   -0.0318400  
C    -0.4631780    4.4405510   -1.0665790  
O     0.3495520    4.3749480   -1.9684210  
C    -1.4683660    5.6491870   -1.0467460  
O    -1.2986030    6.5612420   -1.8399010  
C    -2.5679680    5.6206700   -0.0849890  
H    -4.4017760    4.9272950    2.1868020  
H    -3.2738730    6.4452920   -0.0947170  
H    -3.5622830    2.6682370    3.3589600  
H    -1.3529400    2.0760780    2.3239730  
C     2.8470680   -2.2132640   -1.4596450  
C     3.1884110   -1.1594070   -0.6127230  
C     4.5493120   -1.4316670   -0.1709670  
C     4.9395600   -2.6562770   -0.7649340  
N     3.8819410   -3.0959840   -1.5482150  
C     6.1787350   -3.2642600   -0.5412210  
C     7.0589000   -2.6147340    0.3103980  
O     8.2853220   -3.1484260    0.5599620  
C     6.6883460   -1.3885830    0.9231280  
O     7.6653280   -0.8600000    1.7414410  
C     5.4584750   -0.7995060    0.6998830  
H     3.9067410   -3.9005960   -2.1565880  
H     6.4678310   -4.2019470   -1.0043190  
H     8.7542270   -2.5300950    1.1476500  
H     7.4188860    0.0408190    2.0004140  
H     5.2180970    0.1539780    1.1556840  
H     1.9558790   -2.3440430   -2.0557970  
