58


C    -0.1728960   -2.1279890   -0.1977940  
C     0.2466970   -3.1664260    0.5904320  
C     1.6591640   -2.9957750    0.8207350  
C     2.0386090   -1.7508520    0.1114480  
N     0.9039170   -1.3047620   -0.5531880  
C     3.2799380   -1.1807160    0.1381120  
C     4.2830760   -1.8565180    1.0011950  
O     5.3571660   -1.3565250    1.2819320  
C     3.9376330   -3.2595160    1.6177900  
O     4.8224640   -3.8825190    2.1830150  
C     2.5643390   -3.7417660    1.5111600  
H    -0.3578120   -3.9961930    0.9284800  
H     2.3112920   -4.6795280    1.9959160  
H     0.7885360   -0.2965390   -0.6620700  
C     1.3310150    2.8095860   -0.0654740  
C     2.3251340    3.5380800   -0.6812590  
C     3.3705780    2.6128360   -0.9862920  
C     2.8749850    1.2923060   -0.4572630  
N     1.6783040    1.4175670    0.0537130  
C     3.6608270    0.0771840   -0.5328100  
C     4.8389930    0.1944070   -1.2244650  
O     5.6402750   -0.8278870   -1.4891500  
C     5.3563260    1.5094460   -1.7865190  
O     6.4395480    1.4605980   -2.3711620  
C     4.5697300    2.7194580   -1.6165540  
H     2.3287990    4.5975240   -0.8957730  
H     6.4146540   -0.4387150   -1.9623000  
H     4.9673740    3.6458710   -2.0174780  
C    -0.4810600    4.5150400    0.3834190  
C     0.0686870    3.2514690    0.4390310  
C    -0.9677890    2.4502800    1.1262870  
C    -2.0632520    3.4229000    1.3888890  
N    -1.7535610    4.6241440    0.9534300  
C    -3.2777250    3.0442750    2.0470190  
C    -3.4164350    1.7459980    2.4207860  
O    -4.5026470    1.2568940    3.0299550  
C    -2.3346150    0.7347030    2.1572500  
O    -2.5525340   -0.4354020    2.4749820  
C    -1.0719820    1.1667730    1.5183990  
H    -4.0535130    3.7805710    2.2242070  
H    -4.3369920    0.2983350    3.1589340  
H    -0.2873080    0.4324160    1.3878490  
H    -0.0331620    5.3997660   -0.0543080  
C    -1.5008800   -1.8369790   -0.6807930  
C    -1.8812340   -1.1343980   -1.7936630  
C    -3.3226020   -1.1316730   -1.8392370  
C    -3.7698070   -1.8747930   -0.6352280  
N    -2.6217220   -2.3365640   -0.0022030  
C    -5.0666460   -2.0331070   -0.2758610  
C    -6.1029540   -1.4705300   -1.1419800  
O    -7.2949810   -1.5634770   -0.8967780  
C    -5.6512300   -0.7248810   -2.4505410  
O    -6.5024470   -0.2628190   -3.1936630  
C    -4.2154410   -0.6020140   -2.7189950  
H    -1.2164870   -0.7225730   -2.5397560  
H    -5.3788260   -2.5740680    0.6121240  
H    -3.9133100   -0.0692920   -3.6155540  
H    -2.5916360   -2.4720300    1.0010490  
