58


C    -1.2153870   -4.0206000   -1.0483590  
C    -2.2646780   -4.8668590   -0.9574700  
C    -3.3913730   -4.1217640   -0.4357760  
C    -2.9157320   -2.7333490   -0.2331360  
N    -1.5569950   -2.7204760   -0.6303560  
C    -3.6864960   -1.7422010    0.2710400  
C    -5.0641830   -2.0602190    0.6588530  
O    -5.7981920   -1.2343540    1.1809000  
C    -5.5988660   -3.5119980    0.4112220  
O    -6.7559350   -3.7795540    0.6896600  
C    -4.6619780   -4.4964760   -0.1410670  
H    -2.2637020   -5.9126230   -1.2303630  
H    -3.3257400   -0.7343070    0.4160740  
H    -5.0227180   -5.5096080   -0.2896040  
H    -0.2131180   -4.2102900   -1.4032600  
C    -0.6587910   -1.6798110   -0.5724280  
C     0.7149980   -1.7355720   -0.7148700  
C     1.1468610   -0.3876730   -0.5349290  
C    -0.1145230    0.3969320   -0.3141270  
N    -1.1617470   -0.3862690   -0.3366250  
C    -0.1334620    1.8277130   -0.1069130  
C     1.0944070    2.4245730   -0.0681480  
O     1.2732440    3.7165190    0.1827650  
C     2.3988020    1.6785380   -0.2921120  
O     3.4230330    2.3584940   -0.2934830  
C     2.3701880    0.2277490   -0.5155040  
H     1.3444870   -2.6025270   -0.8447770  
H     2.2406400    3.8784480    0.0864280  
C    -3.8548190    1.5787860    2.3717050  
C    -2.5947480    1.4189160    1.8846880  
C    -2.4282300    2.3529980    0.7949620  
C    -3.7070270    3.1061810    0.7087620  
N    -4.5209670    2.5932000    1.7003450  
C    -3.9682840    4.0980080   -0.1791230  
C    -2.9245250    4.4607580   -1.1271920  
O    -3.0431600    5.3609890   -1.9433390  
C    -1.5827200    3.6416760   -1.1053320  
O    -0.7530580    3.8717670   -1.9682030  
C    -1.3922550    2.5983200   -0.0673610  
H    -1.8608180    0.7112050    2.2363920  
H    -4.9078170    4.6408210   -0.2111860  
H    -4.3571790    1.0397960    3.1634050  
H    -5.4972850    2.8174830    1.8145250  
C     3.7534400   -1.2295090   -1.9723040  
C     4.9881840   -1.7844950   -2.0036290  
C     5.6830110   -1.3679120   -0.8040390  
C     4.7369170   -0.5044380   -0.0562270  
N     3.5676940   -0.4419380   -0.8250720  
C     5.0028800    0.0378400    1.1558830  
C     6.3149590   -0.2073370    1.7567340  
O     6.6346960    0.2406760    2.8463240  
C     7.3437660   -1.0901540    0.9637860  
O     8.4450760   -1.2979650    1.4472760  
C     6.9246280   -1.6429630   -0.3267250  
H     5.3886510   -2.4094210   -2.7889400  
H     4.3051230    0.6601330    1.7032460  
H     7.6295750   -2.2748760   -0.8583710  
H     2.9485670   -1.2923810   -2.6920150  
