60


C     1.9992050   -0.9834730   -1.7724570  
C     0.7676840   -0.5405220   -1.3772790  
C     0.9865140    0.5806400   -0.5071480  
C     2.3878070    0.7796780   -0.4176900  
N     2.9961690   -0.1951510   -1.2025200  
C     2.9671900    1.8210480    0.3145040  
C     2.1116250    2.6777160    0.9923510  
O     2.6180860    3.7081560    1.7185180  
C     0.7043330    2.4892320    0.9546240  
O    -0.0139580    3.3636650    1.7421340  
C     0.1423400    1.4502230    0.2156170  
H    -0.1803400   -0.9616740   -1.6806520  
H     4.0382060    1.9807580    0.3616860  
H     1.8598970    4.1849350    2.1026740  
H    -0.8530440    3.6046330    1.3103480  
H     2.2741930   -1.8108830   -2.4106370  
C    -1.9076140    0.1080170    0.6900610  
C    -3.2620080    0.2331080    0.6258670  
C    -3.5530800    1.5529740    0.0868360  
C    -2.2335710    2.1796290   -0.1602130  
N    -1.2701400    1.2535370    0.2116040  
C    -2.0691470    3.4326700   -0.6692500  
C    -3.2625600    4.2128870   -1.0005480  
O    -3.2104680    5.3351950   -1.4757840  
C    -4.6685800    3.5633590   -0.7352960  
O    -5.6763540    4.2029590   -0.9823290  
C    -4.7130460    2.1966150   -0.1959650  
H    -1.0978060    3.8500140   -0.9183420  
H    -5.6891160    1.7459610   -0.0441810  
H    -1.3125270   -0.7222710    1.0444470  
C    -5.2039650   -0.5655460    1.9716190  
C    -5.9960390   -1.6593830    2.0738390  
C    -5.5233230   -2.6296020    1.1077690  
C    -4.3717890   -1.9982440    0.4177740  
N    -4.2159870   -0.7341660    0.9875970  
C    -3.6550720   -2.5884260   -0.5705210  
C    -4.0282870   -3.9370670   -0.9912120  
O    -3.4402510   -4.5425420   -1.8739800  
C    -5.2390600   -4.6300040   -0.2665630  
O    -5.5599290   -5.7598610   -0.5979390  
C    -5.9372390   -3.8825310    0.7843600  
H    -6.8246550   -1.7881770    2.7550150  
H    -2.8195290   -2.1094150   -1.0693280  
H    -6.7770440   -4.3668930    1.2732220  
H    -5.2316210    0.3616090    2.5285910  
C     5.0500110   -0.2063390   -2.5759380  
C     4.3807060   -0.3592930   -1.3985400  
C     5.3489270   -0.7760960   -0.3937570  
C     6.6498920   -0.8484670   -1.1002230  
N     6.3927760   -0.5049880   -2.4179880  
C     7.8212800   -1.1939810   -0.5112290  
C     7.8086530   -1.5300920    0.9123650  
O     8.8127620   -1.8513980    1.5269210  
C     6.4337210   -1.4752380    1.6751510  
O     6.4019650   -1.7636140    2.8597870  
C     5.2362220   -1.0759840    0.9252690  
H     8.7678740   -1.2380180   -1.0410220  
H     4.2924740   -1.0316950    1.4591350  
H     4.6601660    0.0943680   -3.5392720  
H     7.0879530   -0.4533980   -3.1462130  
