62


C     3.2793100    1.2283550    0.4529240  
C     3.6919170    2.4156000    1.0332150  
C     2.6009520    3.3305490    0.9703450  
C     1.5257250    2.6513220    0.3382770  
N     1.9408770    1.3605250    0.0715170  
C     0.2812480    3.2475620    0.0556760  
C     0.1420500    4.5787870    0.4490910  
O    -1.0294810    5.2265220    0.2369520  
C     1.2056070    5.2721590    1.0992510  
O     0.8842320    6.5719200    1.4279070  
C     2.4174320    4.6723820    1.3693070  
H     4.6586450    2.5856480    1.4871600  
H     1.5017670    0.7846450   -0.6347380  
H    -0.9190510    6.1413540    0.5510110  
H     1.6554530    7.0151880    1.8116800  
H     3.2123100    5.2248350    1.8650610  
C    -1.9654580   -0.2276040    1.4865300  
C    -2.7785720   -0.4435570    0.3812900  
C    -2.4133000    0.5754510   -0.5899460  
C    -1.3948250    1.3600950    0.0007700  
N    -1.1369450    0.8336810    1.2559090  
C    -0.8066210    2.4868920   -0.6088680  
C    -1.2948200    2.8217100   -1.8712270  
O    -0.7667260    3.8754920   -2.5467520  
C    -2.3263410    2.0555370   -2.4764230  
O    -2.6891520    2.5163790   -3.7256280  
C    -2.8841260    0.9510910   -1.8631540  
H    -0.4503950    1.1983980    1.8993140  
H    -1.2462940    3.9454960   -3.3909540  
H    -3.3664020    1.9355360   -4.1032580  
H    -3.6497540    0.3721360   -2.3678510  
H    -1.8982820   -0.8002040    2.4000850  
C     3.9886780   -0.0063800    0.2670420  
C     5.3380450   -0.2560020    0.2560780  
C     5.5340110   -1.6624960    0.0409640  
C     4.1781310   -2.2523400   -0.0754580  
N     3.2779330   -1.1947040    0.0037270  
C     3.9288870   -3.5748150   -0.2252290  
C     5.0671860   -4.4903970   -0.3149950  
O     4.9347640   -5.6965270   -0.4531420  
C     6.5153380   -3.8825760   -0.2416260  
O     7.4743060   -4.6372020   -0.3274470  
C     6.6498030   -2.4405970   -0.0606630  
H     6.1156570    0.4899290    0.3371810  
H     2.9289770   -3.9918730   -0.2995710  
H     7.6539290   -2.0331580    0.0075230  
H     2.3340930   -1.3317800    0.3397300  
C    -5.5597170   -2.2635630    3.3633060  
C    -4.6853590   -1.4096100    2.7752230  
C    -4.5221710   -1.9047190    1.4101360  
C    -5.4127320   -3.0881370    1.3569000  
N    -6.0101970   -3.3031700    2.4989720  
C    -5.5753110   -3.8704220    0.1560910  
C    -4.8966390   -3.4775000   -0.9438590  
O    -4.9725610   -4.0947040   -2.1395270  
C    -3.9844330   -2.2853480   -0.9286030  
O    -3.4150100   -2.0112470   -1.9850140  
C    -3.7797060   -1.5003780    0.3354650  
H    -4.2357420   -0.5238190    3.1999660  
H    -6.2350150   -4.7310560    0.1527110  
H    -4.3634690   -3.5977770   -2.7267000  
H    -5.9462020   -2.2292080    4.3750120  
