58


C    -6.3964290   -2.9668560    1.6540260  
C    -7.6376020   -2.8065920    1.1265390  
C    -7.6114490   -1.5951660    0.3376630  
C    -6.2365480   -1.0455170    0.4820110  
N    -5.5605660   -1.9042400    1.3262190  
C    -5.7908800    0.1144660   -0.1005130  
C    -6.7187700    0.7181560   -1.0936080  
O    -6.3652560    1.5554770   -1.9046480  
C    -8.2090120    0.2268530   -1.1496450  
O    -9.0056490    0.8638930   -1.8220340  
C    -8.5646510   -0.9762180   -0.4097370  
H    -8.4873610   -3.4602250    1.2602440  
H    -9.5850490   -1.3399510   -0.4825460  
H    -6.0173950   -3.7681360    2.2754260  
H    -4.5444460   -1.9715960    1.2321680  
C    -1.6647610   -1.4925500    0.2180260  
C    -0.8953400   -0.3611160    0.2263700  
C    -1.8814150    0.7407670    0.2029750  
C    -3.2136770    0.0517400    0.1709280  
N    -3.0527710   -1.2477000    0.2140930  
C    -4.4801810    0.7601750    0.1046690  
C    -4.3808620    2.1265010    0.2046000  
O    -5.4324230    2.9405420    0.2992160  
C    -3.0659430    2.8470550    0.2200030  
O    -3.0903730    4.0756480    0.2731600  
C    -1.8052760    2.0835510    0.1922820  
H    -5.0646990    3.8529890    0.3015900  
H    -0.8827740    2.6470150    0.2245110  
H    -1.3129450   -2.5131110    0.2035190  
C     1.9465450   -3.2268360   -1.4255140  
C     3.1416040   -2.6470000   -1.1618130  
C     2.8217840   -1.4215520   -0.4465040  
C     1.3264770   -1.4104630   -0.3876840  
N     0.8308990   -2.4710870   -0.9576730  
C     0.5628650   -0.3144530    0.2126940  
C     1.3298300    0.6834180    0.7531150  
O     0.8221610    1.7420320    1.4140770  
C     2.8255430    0.6874940    0.7404000  
O     3.3816420    1.5979530    1.3507320  
C     3.5774200   -0.4155320    0.0702780  
H     4.1265990   -2.9936670   -1.4367510  
H     1.6107720    2.2463340    1.7232210  
H     1.7552930   -4.1581190   -1.9448330  
C     5.0334580   -0.3719010    0.0369080  
C     5.8997140   -1.4109180    0.2307070  
C     7.2266020   -0.8397190    0.0942220  
C     6.9726200    0.6049240   -0.2071870  
N     5.7015170    0.8756040   -0.2348140  
C     8.0559110    1.5277240   -0.4340980  
C     9.3198410    1.0497490   -0.3494330  
O    10.4200580    1.7937090   -0.5296600  
C     9.6058660   -0.3985360   -0.0352930  
O    10.7830240   -0.7473230    0.0214910  
C     8.4820070   -1.3279700    0.1830170  
H     5.6594710   -2.4320000    0.4911510  
H     7.8454020    2.5679950   -0.6552470  
H    11.1777840    1.1801330   -0.4066600  
H     8.7285910   -2.3632330    0.3983280  
