62


C     1.2701080   -1.0495940    1.2708420  
C     0.5481760   -0.2929300    0.3720340  
C     1.5285790    0.4080940   -0.4375130  
C     2.8122120    0.0196010    0.0228150  
N     2.6214610   -0.8784980    1.0542200  
C     4.0180960    0.5379840   -0.4975850  
C     3.8898830    1.4788250   -1.5218330  
O     5.0037040    1.9841680   -2.1124090  
C     2.6121800    1.8882390   -1.9860720  
O     2.6683220    2.8220240   -3.0012980  
C     1.4411550    1.3735290   -1.4635890  
H     3.3573590   -1.2462120    1.6376520  
H     4.7175100    2.6866310   -2.7221970  
H     1.7767660    3.1508470   -3.1899440  
H     0.4763710    1.7091210   -1.8346980  
H     0.9130870   -1.7254650    2.0344700  
C    -2.6669760    0.2240980    3.4675790  
C    -1.4628580    0.1230940    2.8221930  
C    -1.7431840   -0.0580430    1.4245150  
C    -3.1545200   -0.0457150    1.2822330  
N    -3.6897880    0.1229990    2.5425800  
C    -3.8162500   -0.2094410    0.0450300  
C    -2.9854070   -0.3715180   -1.0662350  
O    -3.5370850   -0.4869660   -2.3055690  
C    -1.5754290   -0.3817660   -0.9424350  
O    -0.9211050   -0.5716560   -2.1474530  
C    -0.9217760   -0.2328810    0.2796730  
H    -0.4876490    0.1855860    3.2828640  
H    -4.6757340    0.1493250    2.7492270  
H    -2.8162660   -0.7159790   -2.9181120  
H     0.0212500   -0.7270030   -1.9694250  
H    -2.8883630    0.3676200    4.5157570  
C    -7.0382560    2.6370160    1.1951160  
C    -5.8424070    2.0362550    0.9686250  
C    -6.1135800    0.7449570    0.3612000  
C    -7.5879750    0.6501590    0.2450260  
N    -8.0884300    1.8176880    0.7891630  
C    -8.2635140   -0.3853670   -0.3201740  
C    -7.4897850   -1.4971000   -0.8457440  
O    -7.9882100   -2.4546040   -1.4200040  
C    -5.9283450   -1.4714770   -0.6511620  
O    -5.2991650   -2.4756700   -0.9260980  
C    -5.2843510   -0.2508620   -0.0834250  
H    -4.8671520    2.4462050    1.1829880  
H    -9.3443110   -0.4110970   -0.4200020  
H    -7.2493480    3.6081900    1.6230290  
H    -9.0619340    2.0784330    0.7855870  
C     5.9709820   -3.3900680   -0.3064730  
C     7.1426290   -3.0444090    0.2871700  
C     7.1003810   -1.6167240    0.5287990  
C     5.7861050   -1.1541970    0.0220830  
N     5.1361410   -2.2858280   -0.4436010  
C     5.3438310    0.1374470    0.0202670  
C     6.2514460    1.1417890    0.6205450  
O     5.9403720    2.3096670    0.7684620  
C     7.6652500    0.6738380    1.1334230  
O     8.4329600    1.5158890    1.5731400  
C     7.9980640   -0.7472780    1.0660950  
H     7.9579540   -3.7088410    0.5336740  
H     8.9716390   -1.0582600    1.4323870  
H     5.6349810   -4.3609110   -0.6467120  
H     4.2830200   -2.2588620   -0.9813960  
