58


C    -3.3654750   -0.8949320    1.6327590  
C    -4.0739400   -0.1261470    0.7423190  
C    -5.1652580   -0.9794140    0.2504110  
C    -5.0057710   -2.2876100    0.9330380  
N    -3.8970900   -2.1588970    1.7536360  
C    -5.8060720   -3.3672660    0.7551550  
C    -6.9095760   -3.2610130   -0.1955330  
O    -7.6843680   -4.1760110   -0.4245540  
C    -7.0837130   -1.9002300   -0.9580120  
O    -7.9811720   -1.7900640   -1.7765100  
C    -6.1553770   -0.7994990   -0.6591200  
H    -5.6607570   -4.3097680    1.2741220  
H    -6.3196250    0.1388120   -1.1737130  
H    -2.5091560   -0.6052460    2.2267900  
H    -3.5824550   -2.8601460    2.4070230  
C    -0.2008290    2.0247540    0.0774920  
C    -1.1379550    1.0267540    0.2516080  
C    -2.4175330    1.6804730    0.2637230  
C    -2.0854410    3.1204290    0.0661580  
N    -0.8038100    3.3211840   -0.0301030  
C    -3.1083450    4.1328090   -0.0153650  
C    -4.3950940    3.7308500    0.0773000  
O    -5.4494880    4.5585770   -0.0014460  
C    -4.7712000    2.2873170    0.2883590  
O    -5.9728320    2.0383450    0.3828530  
C    -3.7128660    1.2444150    0.4022180  
H    -0.9525260   -0.0356360    0.3184570  
H    -2.8338650    5.1715330   -0.1602480  
H    -6.2411630    3.9889540    0.1151640  
C     1.2253700    1.8797320   -0.0155490  
C     1.9537730    0.7121480    0.0247820  
C     3.3306810    1.0982760   -0.1219400  
C     3.2757250    2.5920680   -0.2369400  
N     2.0594270    3.0418480   -0.1703700  
C     4.4677900    3.3865110   -0.3812420  
C     5.6517670    2.7351080   -0.4139990  
O     6.8403470    3.3399840   -0.5581050  
C     5.7467450    1.2330710   -0.3122780  
O     6.8673890    0.7406110   -0.4236450  
C     4.5153770    0.4201240   -0.1179930  
H     1.5809000   -0.2972300    0.1089360  
H     4.3952590    4.4649880   -0.4640750  
H     7.5009700    2.6120590   -0.5725420  
C     2.7996990   -2.9276780   -2.4263190  
C     3.3784680   -4.0023070   -1.8449360  
C     4.2080800   -3.4554170   -0.7758940  
C     3.9941850   -1.9725820   -0.8700340  
N     3.1720740   -1.6759900   -1.8316850  
C     4.6681720   -1.0394610    0.0225590  
C     5.4793640   -1.5945140    0.9694150  
O     6.1238300   -0.8844010    1.9011800  
C     5.6999150   -3.0807370    1.0870680  
O     6.4477150   -3.4703180    1.9812670  
C     5.0228790   -3.9938780    0.1509560  
H     3.2697120   -5.0462770   -2.1037600  
H     6.6365480   -1.5399730    2.4256280  
H     5.2165660   -5.0563640    0.2623990  
H     2.1127660   -2.9094530   -3.2638600  
