60


C     1.4137990   -0.3828860   -1.4559020  
C     0.6462540    0.7455330   -1.3481730  
C     1.1331900    1.4948940   -0.2167040  
C     2.2166960    0.7578780    0.3203810  
N     2.3709870   -0.3997010   -0.4450210  
C     3.0093490    1.2296810    1.3703740  
C     2.6983380    2.4801760    1.8777020  
O     3.4403690    3.0108790    2.8823540  
C     1.6054370    3.2399970    1.3740390  
O     1.4269990    4.4344020    2.0182260  
C     0.7755360    2.7549370    0.3569410  
H    -0.1458160    1.0300840   -2.0258090  
H     3.8439920    0.6734180    1.7791270  
H     3.0647670    3.8959300    3.0537900  
H     1.1522680    5.0996390    1.3410220  
H     1.3674950   -1.1986650   -2.1629780  
C    -3.2559570    1.1935350   -0.2316800  
C    -3.8871840    2.3157830   -0.7022460  
C    -2.9193440    3.3832080   -0.7273270  
C    -1.6487390    2.8029800   -0.2344300  
N    -1.9153850    1.4819940    0.0361380  
C    -0.4508440    3.4618710   -0.0822510  
C    -0.5121980    4.8994390   -0.3551870  
O     0.3978730    5.6859460   -0.0913470  
C    -1.8070730    5.5193870   -1.0053530  
O    -1.7663330    6.6850610   -1.3645160  
C    -2.9969010    4.6852350   -1.1209030  
H    -4.9088730    2.3723770   -1.0484670  
H    -3.8981470    5.1322280   -1.5274360  
H    -1.2780370    0.8863160    0.5457030  
C    -3.7446910   -0.1553450   -0.0746050  
C    -5.0275780   -0.6077730    0.0780110  
C    -4.9784680   -2.0443690    0.1803220  
C    -3.5467080   -2.4178660    0.0699660  
N    -2.8390190   -1.2276510   -0.0292000  
C    -3.0865470   -3.6921350    0.0672020  
C    -4.0552170   -4.7801330    0.2032370  
O    -3.7349470   -5.9577650    0.2002200  
C    -5.5739660   -4.4055780    0.3642660  
O    -6.3949560   -5.2999000    0.4929890  
C    -5.9462500   -2.9881810    0.3400240  
H    -5.9107630    0.0094460    0.1591510  
H    -2.0353980   -3.9491550   -0.0189010  
H    -6.9991340   -2.7407960    0.4348500  
H    -1.9062860   -1.1751350   -0.4189610  
C     5.3269520   -2.2196010   -3.1174650  
C     4.3738250   -1.4114180   -2.5814170  
C     4.1412000   -1.8666210   -1.2293030  
C     5.0459610   -3.0215310   -1.0156900  
N     5.7271430   -3.1884860   -2.2064280  
C     5.1600560   -3.7219880    0.1423430  
C     4.3264460   -3.3264680    1.2681240  
O     4.3813160   -3.8527770    2.3679210  
C     3.2957430   -2.1550410    1.0579660  
O     2.5077040   -1.8953830    1.9491510  
C     3.3055420   -1.4327370   -0.2359750  
H     3.8939030   -0.5754220   -3.0668140  
H     5.8464880   -4.5520600    0.2748190  
H     5.7759210   -2.1882590   -4.1013660  
H     6.4473810   -3.8759070   -2.3638550  
