58


C     4.9238310   -2.2112770   -2.0873850  
C     4.5496220   -1.4233020   -1.0336510  
C     5.7154070   -1.3392020   -0.1538640  
C     6.7863150   -2.1389890   -0.8000670  
N     6.2312590   -2.6505830   -1.9584030  
C     8.0356870   -2.3034040   -0.2984220  
C     8.3617920   -1.6678780    0.9763180  
O     9.4601270   -1.7536280    1.5020220  
C     7.2330580   -0.8475860    1.6996190  
O     7.4737280   -0.3282940    2.7771800  
C     5.9231490   -0.7375990    1.0462340  
H     8.8039360   -2.8926320   -0.7896610  
H     5.1544010   -0.1726520    1.5632490  
H     4.3401360   -2.4905290   -2.9547020  
H     6.7340550   -3.1852450   -2.6497970  
C     2.0160480   -1.4269030   -1.0255490  
C     3.2300010   -0.8397320   -0.8375450  
C     2.9012340    0.5560650   -0.4798600  
C     1.4076790    0.5992210   -0.5011100  
N     0.9073240   -0.5603310   -0.8237490  
C     0.6655900    1.8150550   -0.2140930  
C     1.4102860    2.9245100    0.0666810  
O     0.8782830    4.1067060    0.3953270  
C     2.9119850    2.9134860    0.0635910  
O     3.4917520    3.9652000    0.3230370  
C     3.6320090    1.6588240   -0.2372300  
H     1.6381920    4.7199040    0.5081520  
H     4.7166380    1.6955420   -0.2347890  
H     1.8238950   -2.4596370   -1.2924660  
C    -2.6079100   -0.4586160    1.7784610  
C    -1.4106520    0.0254820    1.3801600  
C    -1.6519460    1.0547760    0.3853820  
C    -3.1196960    1.1467890    0.2249660  
N    -3.6504000    0.1950080    1.0952110  
C    -3.7760390    2.0095340   -0.5859330  
C    -2.9724680    2.9311250   -1.3810600  
O    -3.4552530    3.7747570   -2.1180730  
C    -1.4071990    2.8264110   -1.2828970  
O    -0.7344570    3.5143940   -2.0273840  
C    -0.8051610    1.8679190   -0.3144120  
H    -0.4434920   -0.3083880    1.7211800  
H    -4.8569620    2.0561280   -0.6625070  
H    -2.8555430   -1.2310560    2.4936770  
C    -5.8010220    0.6401800    2.1986370  
C    -7.0593090    0.1454310    2.1634270  
C    -7.0886460   -0.9245130    1.1811590  
C    -5.7199420   -1.0244830    0.6241130  
N    -4.9792610   -0.0410620    1.2820170  
C    -5.3228810   -1.9101230   -0.3187660  
C    -6.3199800   -2.8493520   -0.8367060  
O    -6.0623830   -3.6909730   -1.6812160  
C    -7.7847420   -2.7627920   -0.2693940  
O    -8.6291270   -3.5360720   -0.6899060  
C    -8.0774750   -1.7509920    0.7535510  
H    -7.8961890    0.4848220    2.7566430  
H    -4.3114130   -1.9572150   -0.7081640  
H    -9.0914200   -1.7024360    1.1388340  
H    -5.3717960    1.4370550    2.7907970  
