58


C    -5.9518270    1.1874050   -1.6886780  
C    -5.3563190    0.4273270   -0.7147300  
C    -6.4342330   -0.3691720   -0.1096430  
C    -7.6805200    0.0127790   -0.8182730  
N    -7.3104910    0.9571500   -1.7599500  
C    -8.9141630   -0.4870820   -0.5578420  
C    -9.0501550   -1.4674030    0.5148040  
O   -10.1164970   -1.9745690    0.8260180  
C    -7.7529040   -1.8678500    1.3037050  
O    -7.8425260   -2.6612540    2.2256670  
C    -6.4704600   -1.2670420    0.9062760  
H    -9.8060240   -0.1872360   -1.0995950  
H    -5.5852010   -1.5907440    1.4395710  
H    -5.4840550    1.8783940   -2.3770110  
H    -7.9319400    1.3579330   -2.4457290  
C    -2.4575240    3.7602930   -0.3703640  
C    -3.5875960    3.0090830   -0.4668420  
C    -3.1925240    1.6236070   -0.3603180  
C    -1.7166410    1.6376560   -0.2131840  
N    -1.3336270    2.9569060   -0.2696480  
C    -0.9147890    0.5216220   -0.0764830  
C    -1.6667510   -0.7240960    0.1961510  
O    -1.1729620   -1.7036020    0.7249620  
C    -3.1937740   -0.7931750   -0.1471770  
O    -3.7076060   -1.8969880   -0.2086020  
C    -3.9357130    0.4621830   -0.3853450  
H    -4.5965550    3.3813620   -0.5565070  
H    -2.3493540    4.8369500   -0.3647530  
H    -0.4365440    3.2264560    0.1515730  
C     2.2330820    3.1774280    1.6348940  
C     3.3370530    2.4075640    1.4783830  
C     2.8951490    1.2385800    0.7400200  
C     1.4236860    1.4441200    0.5679280  
N     1.0672130    2.6023360    1.0646240  
C     0.5523100    0.4638350   -0.0659840  
C     1.2098140   -0.6046620   -0.6318830  
O     0.5826920   -1.5390090   -1.3581110  
C     2.6648880   -0.8439940   -0.4825580  
O     3.1085390   -1.9030320   -0.9477000  
C     3.5419680    0.1691980    0.1838750  
H     4.3269880    2.5999510    1.8613700  
H     1.2523010   -2.2281740   -1.5568700  
H     2.1491920    4.1331930    2.1372360  
C     4.9843270   -0.0137610    0.1636480  
C     5.9750820    0.9362000    0.3082030  
C     7.2439730    0.2795410    0.1606640  
C     6.9412780   -1.1500930   -0.0937160  
N     5.5685210   -1.2623450   -0.0610010  
C     7.8840590   -2.1027960   -0.3086530  
C     9.2899110   -1.7085480   -0.2836840  
O    10.2074140   -2.4934960   -0.4662960  
C     9.6331990   -0.1985090   -0.0070980  
O    10.8023530    0.1522960    0.0197680  
C     8.5260500    0.7391550    0.2062410  
H     5.8281660    1.9960660    0.4414290  
H     7.6465270   -3.1451710   -0.4958160  
H     8.7731620    1.7799980    0.3924420  
H     5.0211630   -2.0564350   -0.3652000  
