60


C    -0.8133210   -0.8809110    1.3433050  
C    -0.2022230   -0.0681080    0.4127150  
C    -1.2577750    0.4468020   -0.4338800  
C    -2.4768580   -0.0900910    0.0465920  
N    -2.1754830   -0.8859330    1.1357630  
C    -3.7293980    0.1571120   -0.5562610  
C    -3.7154760    0.9778100   -1.6853730  
O    -4.8860790    1.3035850   -2.2922910  
C    -2.4998590    1.5136460   -2.1874990  
O    -2.6684650    2.3018460   -3.3069630  
C    -1.2826800    1.2597200   -1.5849070  
H    -2.8420810   -1.4569620    1.6319900  
H    -4.6688690    1.8145970   -3.0915260  
H    -1.8070430    2.6163950   -3.6193040  
H    -0.3673640    1.6775250   -1.9960670  
H    -0.3760360   -1.4313680    2.1643540  
C     2.2181810   -0.7670610    0.3490310  
C     1.2360980    0.1752740    0.3125170  
C     1.9076490    1.4639220    0.1963060  
C     3.3632370    1.1858790    0.1669040  
N     3.5021700   -0.1994180    0.2981610  
C     4.3108840    2.1388410   -0.0105420  
C     3.8857830    3.5341880   -0.1273690  
O     4.6744510    4.4513980   -0.2955420  
C     2.3532450    3.8551300   -0.0286900  
O     1.9826210    5.0169730   -0.0982590  
C     1.4264220    2.7325250    0.1257270  
H     5.3717890    1.9314640   -0.0500830  
H     0.3647300    2.9529460    0.1613850  
H     2.1216970   -1.8409430    0.3893810  
C     4.4906700   -3.7932230   -1.9006300  
C     5.7783160   -3.9884390   -1.5380630  
C     6.0850180   -2.9057620   -0.6072070  
C     4.8119770   -2.1277540   -0.5303890  
N     3.8878500   -2.6484360   -1.2802970  
C     4.6975100   -0.9362380    0.3020110  
C     5.7884550   -0.5950350    1.0510380  
O     5.8119410    0.4405620    1.9080260  
C     7.0687190   -1.3579420    0.9773120  
O     7.9986540   -0.9781750    1.6908740  
C     7.1707710   -2.5426040    0.1003040  
H     6.4546510   -4.7675810   -1.8607710  
H     6.7214750    0.4397310    2.2840050  
H     8.1215040   -3.0666070    0.0854500  
H     3.8872580   -4.3826700   -2.5797200  
C    -5.7276100    0.6284330    3.3181910  
C    -6.8055200   -0.1767430    3.1315590  
C    -6.7011280   -0.7372710    1.7998760  
C    -5.4525890   -0.1861530    1.2210320  
N    -4.8906050    0.6088490    2.2071790  
C    -4.9864550   -0.4255390   -0.0392830  
C    -5.7895840   -1.3486550   -0.8721220  
O    -5.4419190   -1.7107750   -1.9815350  
C    -7.1318680   -1.9252380   -0.2825800  
O    -7.8151970   -2.6490180   -0.9903770  
C    -7.5020900   -1.5742980    1.0868970  
H    -7.5971950   -0.3645830    3.8421940  
H    -8.4267370   -1.9830960    1.4827040  
H    -5.4608800    1.2279920    4.1787880  
H    -4.1234970    1.2432580    2.0409720  
