62


C    -0.7574370   -1.4197320    0.1717810  
C    -1.2645100   -2.7153930    0.0674090  
C    -2.6757960   -2.6217550   -0.0619770  
C    -3.0078040   -1.2361150   -0.0287100  
N    -1.8324750   -0.5398540    0.1060820  
C    -4.3313310   -0.7517750   -0.1211390  
C    -5.3236480   -1.7242980   -0.2746810  
O    -6.6142860   -1.3464390   -0.4425050  
C    -5.0067810   -3.1132440   -0.3068540  
O    -6.1139840   -3.9222040   -0.4673020  
C    -3.7115200   -3.5714240   -0.2032920  
H    -0.6785430   -3.6211500    0.0199730  
H    -1.7012000    0.4619440    0.1576750  
H    -7.1603020   -2.1521090   -0.4363540  
H    -5.8562900   -4.8500450   -0.3634400  
H    -3.4955810   -4.6372370   -0.2339820  
C     3.0581940   -3.2909560    1.5398510  
C     1.7485690   -3.0298250    1.2735630  
C     1.6756330   -1.7107110    0.6898450  
C     3.0607490   -1.2140510    0.6395810  
N     3.8558520   -2.2331460    1.1320110  
C     3.4798950    0.0149620    0.1930040  
C     2.4209720    0.9081900   -0.2768080  
O     2.6169610    1.9816840   -0.8218890  
C     0.9212820    0.4579310   -0.1034420  
O     0.0659480    1.3164760   -0.2913220  
C     0.6044230   -0.9416950    0.2627050  
H     0.9161660   -3.6727360    1.5106120  
H     3.5060740   -4.1617850    1.9995280  
H     4.8421010   -2.1285110    1.3176450  
C     6.9451620   -1.7996330   -1.9029350  
C     7.8960160   -0.9016190   -1.4965650  
C     7.2389750    0.0601520   -0.6555510  
C     5.8730220   -0.3159560   -0.5830670  
N     5.7255140   -1.4647190   -1.3380440  
C     4.9004690    0.4152850    0.1357870  
C     5.3596560    1.5580630    0.7969610  
O     4.4965760    2.2904140    1.5509720  
C     6.7232400    1.9457870    0.7346710  
O     7.0054320    3.0905210    1.4571390  
C     7.6609800    1.2173320    0.0278160  
H     8.9437090   -0.9202070   -1.7639130  
H     4.8389930   -1.8822160   -1.5753080  
H     4.9765360    3.0799530    1.8560390  
H     7.9120290    3.3752880    1.2703190  
H     8.7008370    1.5368070    0.0002440  
H     7.0310830   -2.6660950   -2.5434480  
C    -2.8611400    2.7624260   -2.3510160  
C    -3.5834010    3.7385660   -1.7433360  
C    -4.4155810    3.1017210   -0.7458010  
C    -4.1150190    1.6498030   -0.8236760  
N    -3.1844530    1.5115440   -1.8382770  
C    -4.6732200    0.6832270   -0.0348280  
C    -5.6175900    1.1539130    1.0048180  
O    -6.0768400    0.4205640    1.8624380  
C    -6.0177850    2.6755100    1.0357510  
O    -6.8814080    3.0339950    1.8227170  
C    -5.3313410    3.5925300    0.1327240  
H    -3.5413080    4.7964300   -1.9572420  
H    -5.5849510    4.6467030    0.1884550  
H    -2.1187630    2.8433970   -3.1337030  
H    -2.7088590    0.6514100   -2.0629890  
