62


C    -0.4872870   -2.1964190   -0.1861500  
C    -0.8426700   -3.5183350   -0.0204450  
C    -2.2729730   -3.5866600    0.0170990  
C    -2.7560030   -2.2610280   -0.1028670  
N    -1.6540930   -1.4298960   -0.1982810  
C    -4.1348400   -1.9343760   -0.1236350  
C    -5.0250900   -3.0209970   -0.0740980  
O    -6.3673570   -2.8064940   -0.1158810  
C    -4.5494860   -4.3484040    0.0560830  
O    -5.5599550   -5.2871170    0.1223630  
C    -3.1994500   -4.6425340    0.1172920  
H    -0.1557770   -4.3462220    0.0893090  
H    -1.7026520   -0.4970090   -0.5814190  
H    -6.7995550   -3.6726620   -0.0056510  
H    -5.1832500   -6.1660400    0.2762890  
H    -2.8649280   -5.6727960    0.2178740  
C     1.9523890   -2.2303370   -0.7880940  
C     0.8177780   -1.5800470   -0.3478370  
C     1.2065040   -0.2035760   -0.1067650  
C     2.5854700   -0.1065720   -0.4237150  
N     3.0081760   -1.3501250   -0.8396860  
C     3.3063880    1.0983210   -0.3130010  
C     2.6087070    2.2270120    0.1139890  
O     3.2530000    3.4217110    0.2162450  
C     1.2285700    2.1419560    0.4276770  
O     0.6954450    3.3422700    0.8439510  
C     0.5298930    0.9520470    0.3359390  
H     3.9629710   -1.5955300   -1.0536830  
H     2.5989450    4.0759490    0.5213630  
H    -0.2684980    3.2792670    0.9178810  
H    -0.5187030    0.9235120    0.6180590  
H     2.0784600   -3.2594670   -1.0912550  
C     5.2163060    2.0953150   -1.5840340  
C     6.5551610    1.9398830   -1.7164320  
C     6.9580200    0.8769030   -0.8216180  
C     5.7191810    0.4214180   -0.1394310  
N     4.6796870    1.1868030   -0.6577100  
C     5.6853250   -0.5535480    0.8082050  
C     6.9364240   -1.2173870    1.1691320  
O     6.9981380   -2.1060150    2.0052540  
C     8.2540210   -0.7660750    0.4405830  
O     9.3043920   -1.3240330    0.7166630  
C     8.1633850    0.3137970   -0.5452820  
H     7.2047910    2.5081720   -2.3661600  
H     4.7822510   -0.8450270    1.3331420  
H     9.0825670    0.6347260   -1.0261380  
H     4.5496090    2.7915920   -2.0719400  
C    -4.5997110   -0.5574270   -0.1419250  
C    -5.7430280    0.0170650   -0.6267780  
C    -5.6951200    1.4300370   -0.3561950  
C    -4.4239260    1.6650130    0.3684650  
N    -3.7535060    0.4482440    0.4032760  
C    -4.0417700    2.8615650    0.8757190  
C    -4.9029840    4.0216210    0.6532880  
O    -4.6221110    5.1403290    1.0552450  
C    -6.2327800    3.8066300   -0.1585630  
O    -6.9575550    4.7699310   -0.3613050  
C    -6.5488230    2.4578280   -0.6243150  
H    -6.5331970   -0.5067160   -1.1413270  
H    -3.1209960    3.0090110    1.4342260  
H    -7.4829020    2.3171230   -1.1595360  
H    -3.1484220    0.2161310    1.1817200  
