60


C     1.8482710   -1.3829400   -1.0553050  
C     2.9177550   -1.1661790   -0.2170970  
C     2.6439900    0.0290150    0.5385430  
C     1.3781850    0.4918850    0.1068570  
N     0.9201840   -0.3867040   -0.8557320  
C     0.7825710    1.6765530    0.5964450  
C     1.5054970    2.3674890    1.5715640  
O     0.9765920    3.4834860    2.1357460  
C     2.7723190    1.9039740    2.0193080  
O     3.3357000    2.7039070    2.9908490  
C     3.3494980    0.7541340    1.5185330  
H     0.0200860   -0.3239160   -1.3071490  
H     1.6549310    3.8629050    2.7222060  
H     4.2580840    2.4453250    3.1364420  
H     4.3224770    0.4213270    1.8704580  
H     1.6862400   -2.1677620   -1.7799290  
C    -3.3738040   -0.0001360    0.2142280  
C    -2.0352920    0.1416050    0.5110190  
C    -1.6682840    1.4540270    0.0582530  
C    -2.9360610    2.0084860   -0.5201190  
N    -3.9181450    1.1561970   -0.4321420  
C    -3.0072450    3.3311750   -1.0763740  
C    -1.8727200    4.0676590   -1.0624180  
O    -1.7782070    5.3112970   -1.5423620  
C    -0.5603190    3.5302770   -0.5187290  
O     0.4174990    4.2613470   -0.6529590  
C    -0.5070840    2.1788080    0.0850280  
H    -1.3902740   -0.5598580    1.0211440  
H    -3.9400800    3.7070740   -1.4811180  
H    -0.8320010    5.5600560   -1.4269810  
C    -3.9165660   -2.2589230    1.1587670  
C    -4.2513250   -1.1094090    0.4805340  
C    -5.6642940   -1.2568390    0.1044900  
C    -6.0936860   -2.5782800    0.6190920  
N    -4.9805890   -3.1240910    1.2427590  
C    -7.3343700   -3.1066960    0.4846810  
C    -8.3423710   -2.3212130   -0.2251280  
O    -9.4864090   -2.7091780   -0.3997510  
C    -7.9143780   -0.9160160   -0.7829160  
O    -8.7380760   -0.2440330   -1.3806790  
C    -6.5327490   -0.4589370   -0.5658760  
H    -7.6175960   -4.0795450    0.8747170  
H    -6.2383030    0.5119950   -0.9447490  
H    -2.9681690   -2.5266900    1.6055720  
H    -4.9660820   -4.0170380    1.7122560  
C     4.0566960   -3.3197860    0.3388030  
C     5.3036210   -3.8547670    0.3360540  
C     6.2087430   -2.8272130   -0.1315280  
C     5.3678420   -1.6361360   -0.4125400  
N     4.0575510   -1.9932730   -0.1048050  
C     5.8437380   -0.4558920   -0.8850570  
C     7.2805180   -0.3329120   -1.1196920  
O     7.8020360    0.6925590   -1.5312540  
C     8.1922160   -1.5802470   -0.8214900  
O     9.3957870   -1.4919090   -1.0100470  
C     7.5541390   -2.8019240   -0.3263710  
H     5.5731400   -4.8577970    0.6336010  
H     5.2091490    0.3984330   -1.0941520  
H     8.1911310   -3.6593170   -0.1306080  
H     3.1145640   -3.7637580    0.6320470  
