58


C     4.5255830   -0.9334030   -1.8349920  
C     5.5826070   -1.7769770   -1.9138060  
C     6.4678850   -1.4673310   -0.8124610  
C     5.8346360   -0.3480510   -0.0741390  
N     4.6400930   -0.0536990   -0.7484060  
C     6.3407030    0.1902390    1.0605200  
C     7.6054180   -0.3374250    1.5784580  
O     8.1239580    0.0820630    2.6005250  
C     8.3097000   -1.4974710    0.7886540  
O     9.3692800   -1.9410270    1.2019710  
C     7.6459670   -2.0120000   -0.4112220  
H     5.7451980   -2.5293370   -2.6722490  
H     5.8749630    1.0058530    1.5999440  
H     8.1203860   -2.8341600   -0.9384120  
H     3.6687520   -0.8409080   -2.4883000  
C     0.2767660   -0.2757380   -0.2753190  
C     1.6138570   -0.5811140   -0.4313370  
C     2.3483580    0.6444210   -0.3459950  
C     1.3496840    1.7201080   -0.1268400  
N     0.1253710    1.0948460   -0.1050810  
C     1.6459750    3.0364350    0.0378040  
C     3.0406880    3.4404230   -0.0086800  
O     3.4228260    4.5856090    0.1739820  
C     4.1290990    2.3434540   -0.3109870  
O     5.2856840    2.6884830   -0.4738340  
C     3.6931300    0.9321720   -0.4220720  
H     2.0240930   -1.5714220   -0.5608270  
H     0.8928580    3.7976930    0.2121370  
H    -0.7822260    1.5176950    0.0320540  
C    -0.8930630   -1.1098000   -0.2569830  
C    -1.0140020   -2.4639040   -0.4134480  
C    -2.4279410   -2.7340170   -0.3009510  
C    -3.0529290   -1.3868570   -0.0857270  
N    -2.1514420   -0.4511360   -0.0464420  
C    -4.4840210   -1.2205090    0.0816810  
C    -5.2264180   -2.3625300    0.0731170  
O    -6.5542750   -2.3836590    0.2154500  
C    -4.6216110   -3.7319280   -0.1304230  
O    -5.3931340   -4.6901490   -0.1324900  
C    -3.1730640   -3.8629280   -0.3205420  
H    -0.2306470   -3.1906050   -0.5770340  
H    -6.8082630   -3.3331230    0.1608970  
H    -2.7730870   -4.8624500   -0.4583980  
C    -4.5875580    2.2667970   -2.5882480  
C    -5.2573080    3.1811440   -1.8506830  
C    -5.5780260    2.4981840   -0.6007380  
C    -4.9815340    1.1327760   -0.7692380  
N    -4.4159440    1.0018950   -1.9318300  
C    -5.0849880    0.1172260    0.2659140  
C    -5.7832720    0.4581640    1.3832580  
O    -5.9703090   -0.3631910    2.4244750  
C    -6.3986970    1.8213630    1.5703080  
O    -6.9974670    2.0297270    2.6232480  
C    -6.2592830    2.8359150    0.5107190  
H    -5.5216480    4.1952980   -2.1158140  
H    -6.4990970    0.1539840    3.0728260  
H    -6.7238480    3.8020720    0.6826360  
H    -4.1845200    2.3821790   -3.5873790  
