58


C     5.5077110    2.0888750   -1.1347310  
C     6.8243890    1.7811520   -1.1505690  
C     7.0003120    0.5624460   -0.3913040  
C     5.6487470    0.1760800    0.0875790  
N     4.7628910    1.1250350   -0.4218590  
C     5.4081130   -0.8913680    0.8964160  
C     6.5337520   -1.7428990    1.2855390  
O     6.4003200   -2.7229530    2.0008600  
C     7.9616200   -1.3763000    0.7472530  
O     8.9055800   -2.0944970    1.0323560  
C     8.0984460   -0.1719160   -0.0778950  
H     7.6058510    2.3479320   -1.6355900  
H     4.4356810   -1.1227310    1.3164700  
H     9.0962750    0.1004420   -0.4081670  
H     4.9890360    2.9277660   -1.5722610  
C     1.7283490   -1.9664950   -0.8814170  
C     0.6116800   -1.2517730   -0.5226820  
C     1.0754570    0.1085230   -0.2242990  
C     2.5393420    0.0965140   -0.4422910  
N     2.8600790   -1.1818340   -0.8556010  
C     3.3655790    1.1712260   -0.2540550  
C     2.7378040    2.4481860    0.1329320  
O     3.3740500    3.4795110    0.2684240  
C     1.1820230    2.4719110    0.3540340  
O     0.6638330    3.5349980    0.6496400  
C     0.4243280    1.2338750    0.1704100  
H    -0.6434060    1.2490750    0.3477280  
H     1.8016080   -3.0023550   -1.1840970  
H     3.8036230   -1.5234100   -0.9749580  
C    -0.7347630   -1.7683570   -0.4674360  
C    -1.1571760   -3.0702460   -0.5382750  
C    -2.5896240   -3.0287660   -0.4567960  
C    -2.9183380   -1.5659060   -0.3056650  
N    -1.8270530   -0.8457300   -0.3308540  
C    -4.2762240   -1.0798820   -0.1649580  
C    -5.2457670   -2.0425890   -0.2921800  
O    -6.5467300   -1.7764470   -0.3091180  
C    -4.9455000   -3.5210880   -0.4497740  
O    -5.9154160   -4.2741040   -0.5340220  
C    -3.5598290   -3.9721520   -0.5095220  
H    -0.5525770   -3.9629810   -0.6188690  
H    -6.9960700   -2.6518140   -0.3715650  
H    -3.3759020   -5.0359150   -0.6184880  
C    -2.8761190    2.8439600   -1.7340050  
C    -3.7176020    3.6642720   -1.0562570  
C    -4.5368440    2.8289750   -0.2051570  
C    -4.1047780    1.4316820   -0.4682840  
N    -3.1259100    1.5026470   -1.4430300  
C    -4.6301350    0.3209740    0.1364230  
C    -5.5997490    0.5811050    1.2295490  
O    -5.9735790   -0.2846950    2.0011520  
C    -6.1446210    2.0402170    1.4363590  
O    -7.0563970    2.2122410    2.2304470  
C    -5.5270300    3.1225590    0.6791460  
H    -3.7661800    4.7410590   -1.1275370  
H    -5.8820750    4.1338810    0.8517060  
H    -2.0997680    3.0987200   -2.4437160  
H    -2.4207360    0.7703010   -1.4876980  
