58


C    -1.8348110   -0.2795330    0.3708140  
C    -3.1208070   -0.0908220   -0.0456000  
C    -3.2629250    1.3473630   -0.2888240  
C    -1.9545930    1.9583230    0.0422940  
N    -1.1126240    0.9101710    0.4315140  
C    -1.6704470    3.2773290   -0.0734320  
C    -2.7307970    4.1792830   -0.5196160  
O    -2.5647770    5.3807850   -0.6601950  
C    -4.1393430    3.5616590   -0.8300320  
O    -5.0489650    4.2994050   -1.1726930  
C    -4.3065650    2.1089180   -0.7006310  
H    -0.7041640    3.7052030    0.1665400  
H    -5.2686840    1.6906440   -0.9714770  
H    -1.3424720   -1.2046760    0.6390980  
C     2.4472520   -0.9439760   -1.2840660  
C     1.1802290   -0.5205480   -1.0436210  
C     1.2192870    0.3091740    0.1333440  
C     2.6298100    0.3374310    0.5811620  
N     3.3388560   -0.4759990   -0.3115600  
C     3.0899850    1.0852090    1.6138990  
C     2.1308180    1.8822370    2.3742470  
O     2.4563550    2.6134230    3.2948340  
C     0.6100440    1.7946440    1.9933600  
O    -0.2135640    2.3549680    2.6937770  
C     0.2464300    1.0068560    0.7977430  
H     0.3121980   -0.7408780   -1.6469480  
H     4.1284170    1.1224900    1.9141850  
H     2.8260300   -1.5494050   -2.0930600  
C    -4.3611430   -3.3555960    2.6903170  
C    -3.7863120   -2.2530320    2.1429650  
C    -4.3403690   -2.0875190    0.8149920  
C    -5.3048250   -3.1991300    0.6353710  
N    -5.2497670   -3.9437480    1.7974670  
C    -6.0763630   -3.3957620   -0.4659640  
C    -5.9578820   -2.4460130   -1.5588130  
O    -6.6185800   -2.5092030   -2.5844210  
C    -4.9200630   -1.2702860   -1.4144920  
O    -4.7827850   -0.5065060   -2.3548900  
C    -4.1299680   -1.1461830   -0.1634380  
H    -3.0717510   -1.6030880    2.6244420  
H    -6.7805240   -4.2158840   -0.5652040  
H    -4.2159040   -3.7898880    3.6705360  
H    -5.8457450   -4.7305890    2.0016200  
C     6.1378280   -0.2927360   -3.6033990  
C     7.3058660   -0.5795720   -2.9867880  
C     6.9580820   -0.8067310   -1.5864660  
C     5.4784090   -0.6008990   -1.5482130  
N     5.0049050   -0.3074320   -2.7206430  
C     4.7229520   -0.7309390   -0.3095600  
C     5.4166700   -1.0985310    0.8061860  
O     4.8507900   -1.3053360    2.0054970  
C     6.9014670   -1.2971430    0.7847410  
O     7.4399470   -1.6248390    1.8409360  
C     7.6493930   -1.1303190   -0.4778570  
H     8.2959770   -0.6298210   -3.4176190  
H     5.5953110   -1.5425100    2.6044060  
H     8.7224120   -1.2910400   -0.4428480  
H     5.9680930   -0.0620000   -4.6476120  
