60


C     1.8367860   -0.7623670    0.0603860  
C     3.1453500   -0.4669370   -0.2285560  
C     3.2452580    0.9799260   -0.2882380  
C     1.9608150    1.5095990   -0.0316940  
N     1.1134110    0.4232070    0.1759380  
C     1.6798860    2.8781360   -0.0201930  
C     2.7349890    3.7403070   -0.2789920  
O     2.5271150    5.0846400   -0.2745910  
C     4.0349220    3.2327910   -0.5515620  
O     4.9696910    4.2146070   -0.7986490  
C     4.2977920    1.8754110   -0.5655290  
H     0.6900470    3.2747400    0.1756360  
H     3.3785840    5.5123390   -0.4727420  
H     5.8452930    3.8161070   -0.9141990  
H     5.2978550    1.5106330   -0.7845560  
H     1.3463890   -1.7120850    0.2169920  
C    -0.7406680    0.5496020    1.7788090  
C    -2.0944210    0.5212590    1.7388660  
C    -2.4992660    0.4317590    0.3473020  
C    -1.2526510    0.4003690   -0.4447690  
N    -0.2160560    0.5057690    0.4798370  
C    -1.1686560    0.2706680   -1.7920300  
C    -2.4139470    0.1461180   -2.5321910  
O    -2.4690310   -0.0189470   -3.7405950  
C    -3.7677720    0.2217740   -1.7310610  
O    -4.8096660    0.1764560   -2.3605990  
C    -3.7350080    0.3650030   -0.2496330  
H    -2.7531010    0.5344960    2.5939040  
H    -0.2276880    0.2468140   -2.3302450  
H    -0.0584900    0.5976590    2.6164350  
C    -5.2240110    1.4412200    1.4627570  
C    -4.9873060    0.5033860    0.4939990  
C    -6.2130450   -0.3001090    0.3991050  
C    -7.1546010    0.2592860    1.4000080  
N    -6.4874280    1.3083160    2.0077360  
C    -8.4071760   -0.2043150    1.6370720  
C    -8.8750360   -1.3551760    0.8710990  
O    -9.9838460   -1.8469020    1.0130320  
C    -7.8866410   -1.9877320   -0.1731250  
O    -8.2406950   -2.9704630   -0.8032270  
C    -6.5623350   -1.3749530   -0.3506370  
H    -9.0749120    0.2306850    2.3744340  
H    -5.9138200   -1.8037320   -1.1050710  
H    -4.5719370    2.2365300    1.7989190  
H    -6.9005830    1.9411760    2.6753110  
C     4.1338080   -2.5420220   -1.2765310  
C     4.2055740   -1.4487080   -0.4629240  
C     5.5324440   -1.4821830    0.1477530  
C     6.2149540   -2.6856620   -0.3915300  
N     5.3034400   -3.2924020   -1.2322290  
C     7.4808720   -3.0588600   -0.0742770  
C     8.2314480   -2.2366430    0.8702380  
O     9.3767320   -2.4886220    1.2118450  
C     7.5199200   -0.9704660    1.4739210  
O     8.1293250   -0.2698530    2.2667940  
C     6.1468710   -0.6747680    1.0518670  
H     7.9626850   -3.9425830   -0.4813560  
H     5.6639820    0.1973600    1.4805110  
H     3.3157010   -2.8531610   -1.9129260  
H     5.4945240   -4.1028190   -1.8003530  
