62


C     2.8751610    1.3878070   -0.8357210  
C     1.5979350    1.0115770   -0.5247280  
C     1.6723260   -0.2595150    0.1433230  
C     3.0453040   -0.6039230    0.2155360  
N     3.7742740    0.4147910   -0.3968020  
C     3.5102280   -1.7418160    0.8795470  
C     2.5588200   -2.5392010    1.4955180  
O     2.9393840   -3.6532770    2.1734300  
C     1.1741230   -2.2223940    1.4443670  
O     0.3765330   -3.1374850    2.0885080  
C     0.6957460   -1.1116140    0.7411570  
H     0.7051670    1.5723530   -0.7599760  
H     4.5585340   -2.0095200    0.9319530  
H     2.1178830   -4.0306910    2.5428660  
H    -0.3111530   -2.6292700    2.5763380  
H     3.2399810    2.2476060   -1.3800670  
C    -1.8372070   -0.2549930   -2.7987780  
C    -0.8209320   -0.5851230   -1.9602550  
C    -1.3413280   -0.5362620   -0.6130740  
C    -2.7706610   -0.1541190   -0.7406840  
N    -2.9941520    0.0328600   -2.0830720  
C    -3.6701450    0.0184840    0.2905850  
C    -3.0854540   -0.1571590    1.6095900  
O    -3.6335700    0.1586550    2.6675630  
C    -1.6586990   -0.7990360    1.7476340  
O    -1.3884100   -1.2721350    2.8497080  
C    -0.7449820   -0.8061610    0.6003800  
H     0.1887490   -0.8404030   -2.2401030  
H    -1.8441560   -0.1909340   -3.8787270  
H    -3.9162850    0.1587830   -2.4770480  
C    -6.8366630   -1.5986380   -2.4618930  
C    -5.6866410   -1.4162910   -1.7345600  
C    -5.8836870   -0.2564730   -0.9020160  
C    -7.1971530    0.2127080   -1.1701430  
N    -7.7433660   -0.6132130   -2.1326330  
C    -7.7722020    1.3006070   -0.5049820  
C    -7.0046060    1.9094070    0.4738020  
O    -7.5023440    2.9579490    1.1814170  
C    -5.6836610    1.4683670    0.7656950  
O    -5.0618670    2.2103680    1.7408490  
C    -5.0814110    0.4151130    0.0706370  
H    -4.8231380   -2.0656810   -1.7576630  
H    -8.6824950   -0.5408010   -2.4916770  
H    -8.7792470    1.6522390   -0.7043020  
H    -6.8082110    3.1885360    1.8291080  
H    -4.5662720    1.5791760    2.3149450  
H    -7.0888940   -2.3612690   -3.1850440  
C     6.4522210    3.4824450    1.0475500  
C     7.6225790    3.0093020    0.5466740  
C     7.3285920    1.7720270   -0.1472530  
C     5.8683010    1.5679710   -0.0044200  
N     5.3926810    2.6435870    0.7136700  
C     5.1774250    0.5046460   -0.5109680  
C     5.9369770   -0.5073260   -1.2653830  
O     5.4144290   -1.4714800   -1.7959770  
C     7.4972000   -0.3161940   -1.3940120  
O     8.1366020   -1.1780610   -1.9753290  
C     8.1090910    0.8760920   -0.8102050  
H     8.5957420    3.4669280    0.6475870  
H     9.1816190    0.9998950   -0.9216960  
H     6.2652570    4.3743670    1.6307460  
H     4.4352250    2.7443380    1.0157460  
