62


C     2.7772530   -1.8524380   -1.0097420  
C     3.8117530   -0.9506070   -0.8809710  
C     3.2069910    0.2987790   -0.4747150  
C     1.8097270    0.0760600   -0.3739760  
N     1.5802950   -1.2377770   -0.7264510  
C     0.8766280    1.0850110   -0.0323080  
C     1.4332830    2.3448440    0.1880850  
O     0.6161750    3.4077920    0.5185390  
C     2.8227640    2.5921480    0.0835360  
O     3.1683000    3.9071710    0.3309230  
C     3.7155910    1.5921470   -0.2462830  
H     0.6865870   -1.6992150   -0.6410660  
H     1.1967760    4.1762450    0.6726570  
H     4.1303760    3.9847290    0.4146200  
H     4.7774000    1.8046740   -0.3358610  
H     2.8122610   -2.9018420   -1.2670430  
C    -1.4900450   -2.1079570    2.0707380  
C    -0.4868800   -1.2824740    1.6320270  
C    -1.0868070   -0.3196900    0.7462210  
C    -2.4689560   -0.6193550    0.6910930  
N    -2.6806150   -1.7210830    1.4893330  
C    -3.4280140    0.1669000   -0.0017730  
C    -2.9059860    1.3110140   -0.6365200  
O    -3.6943560    2.1236710   -1.3657780  
C    -1.5152770    1.6155310   -0.6049340  
O    -1.1876480    2.7355960   -1.3392500  
C    -0.5782630    0.8113190    0.0416770  
H     0.5497480   -1.3304730    1.9324750  
H    -3.5975030   -2.0677790    1.7301930  
H    -3.1039160    2.8343770   -1.6890240  
H    -0.5773780    3.2820550   -0.7971600  
H    -1.4576930   -2.9454090    2.7530080  
C    -4.8320540   -0.1885760   -0.0182770  
C    -5.3858850   -1.4496030    0.0438790  
C    -6.8113920   -1.2586070    0.0391080  
C    -6.9765040    0.2328620   -0.0045750  
N    -5.8328000    0.8485060   -0.0467170  
C    -8.2808390    0.8454750    0.0027650  
C    -9.3570870    0.0254900    0.0228030  
O   -10.6301560    0.4453070    0.0230820  
C    -9.2213960   -1.4831810    0.0467460  
O   -10.2701040   -2.1330880    0.0650180  
C    -7.8901770   -2.0825250    0.0559390  
H    -4.8718050   -2.3990900   -0.0180890  
H    -8.3742920    1.9254620   -0.0188000  
H   -11.1662630   -0.3808860    0.0388970  
H    -7.8313590   -3.1663320    0.0829810  
C     5.7346020   -1.8612080   -2.2442110  
C     5.2231790   -1.2212340   -1.1532410  
C     6.3662150   -0.9033130   -0.2990720  
C     7.5741710   -1.4107800   -0.9986200  
N     7.1182270   -2.0013890   -2.1582480  
C     8.8428470   -1.2882570   -0.5298680  
C     9.0484520   -0.6273190    0.7543890  
O    10.1514780   -0.4651220    1.2544810  
C     7.7810340   -0.1053940    1.5265010  
O     7.9310950    0.4515840    2.6029410  
C     6.4626280   -0.3002220    0.9148500  
H     9.7133240   -1.6644280   -1.0587670  
H     5.5947800    0.0561610    1.4601190  
H     5.2065730   -2.2388570   -3.1099140  
H     7.7090230   -2.3794970   -2.8819150  
