62


C    -0.8056380    1.3212080    0.0771450  
C    -1.8932080    0.5720420   -0.3033250  
C    -3.0428670    1.1920580    0.2857210  
C    -2.5932840    2.3307710    1.0058790  
N    -1.2198800    2.3913070    0.8553360  
C    -3.4537980    3.1921940    1.6925030  
C    -4.8089660    2.8938020    1.6738360  
O    -5.6878900    3.6865460    2.3461100  
C    -5.2894840    1.7628340    0.9677480  
O    -6.6530770    1.5832290    1.0172940  
C    -4.4287010    0.9216310    0.2683310  
H    -1.8688030   -0.2955030   -0.9455830  
H    -0.5987480    3.0079810    1.3570970  
H    -3.1041650    4.0625010    2.2376060  
H    -6.5721430    3.2919940    2.2495780  
H    -6.8595180    0.6670660    0.7687190  
C     1.1791940   -0.1543020   -0.0784820  
C     2.4960880   -0.0962300   -0.4141020  
C     2.7671140    1.2992690   -0.7579650  
C     1.4916420    2.0378660   -0.5955090  
N     0.5496450    1.1026540   -0.1750570  
C     1.3366880    3.3629890   -0.8520970  
C     2.4979850    4.1266770   -1.3010730  
O     2.4517150    5.3222830   -1.5479860  
C     3.8603230    3.3652320   -1.4734810  
O     4.8477210    3.9875370   -1.8310710  
C     3.8902940    1.9252990   -1.1936000  
H     0.3888090    3.8829340   -0.7667250  
H     4.8263370    1.3988220   -1.3474610  
H     0.5997430   -0.9989510    0.2681040  
C     3.1739880   -2.4526540   -1.0024500  
C     3.4341760   -1.2165990   -0.4485390  
C     4.7707770   -1.2893920    0.1031790  
C     5.2556420   -2.5964850   -0.1554210  
N     4.2591530   -3.2802020   -0.8254260  
C     6.5238130   -3.0306540    0.2500930  
C     7.3198870   -2.1273950    0.9355970  
O     8.5667500   -2.4942750    1.3475580  
C     6.8467500   -0.8176530    1.2184700  
O     7.7477860   -0.0415760    1.9208590  
C     5.5922280   -0.3950390    0.8206180  
H     4.3289100   -4.2268940   -1.1646180  
H     6.8963000   -4.0298320    0.0488370  
H     8.9622560   -1.7234380    1.7902550  
H     7.4121500    0.8643850    1.9914210  
H     5.2515220    0.6086560    1.0622940  
H     2.2970040   -2.7939260   -1.5342490  
C    -5.7406300   -0.0568380   -1.6329520  
C    -6.0003130   -1.2665680   -2.1858020  
C    -5.3602470   -2.2675850   -1.3575180  
C    -4.6974690   -1.5277080   -0.2548180  
N    -4.9804150   -0.1763090   -0.4561530  
C    -3.9743290   -2.1112840    0.7339650  
C    -3.8253760   -3.5652720    0.7168930  
O    -3.1778730   -4.1763130    1.5532530  
C    -4.5290950   -4.3711610   -0.4361050  
O    -4.4181000   -5.5867480   -0.4616400  
C    -5.2884100   -3.6222050   -1.4412820  
H    -6.5733470   -1.4512340   -3.0830520  
H    -3.4945180   -1.5504590    1.5284540  
H    -5.7692240   -4.1872370   -2.2341410  
H    -6.0269640    0.9324360   -1.9651900  
