58


C    -6.9481500    2.9635130   -0.0353310  
C    -5.7529640    2.3183810    0.0257070  
C    -6.0232830    0.9014440   -0.0716580  
C    -7.4973850    0.7731440   -0.2023820  
N    -7.9965220    2.0609220   -0.1559430  
C    -8.1663840   -0.3976050   -0.3551450  
C    -7.3936290   -1.6331000   -0.3932630  
O    -7.8976390   -2.7332620   -0.5524540  
C    -5.8378810   -1.5381830   -0.2081220  
O    -5.1953950   -2.5691900   -0.1135930  
C    -5.2081770   -0.2000410   -0.0963280  
H    -4.7827230    2.7797580    0.1278430  
H    -9.2443160   -0.4604540   -0.4677210  
H    -7.1537750    4.0252500   -0.0001440  
H    -8.9666990    2.3059270   -0.2774060  
C    -2.2599570    1.3947030    2.8821430  
C    -3.4275370    1.0806920    2.2728400  
C    -3.0432700    0.4249810    1.0279440  
C    -1.5463530    0.4289780    1.0641440  
N    -1.1006710    0.9955530    2.1496390  
C    -0.7416580   -0.1469920   -0.0005620  
C    -1.4332490   -0.7197850   -1.0261010  
O    -0.8438990   -1.3263970   -2.0630370  
C    -2.9343570   -0.7223050   -1.1020550  
O    -3.4413220   -1.1734810   -2.1235090  
C    -3.7426510   -0.1368590    0.0105190  
H    -4.4341470    1.2626190    2.6202910  
H    -1.5737130   -1.5818340   -2.6701420  
H    -2.1185540    1.8929790    3.8340330  
C     2.4641910   -1.4190920    2.8327750  
C     1.2751010   -1.1806360    2.2271910  
C     1.5511010   -0.5131300    0.9724030  
C     3.0253930   -0.3901020    0.8924880  
N     3.5255240   -0.9956950    2.0318790  
C     3.7276560    0.1982460   -0.1225890  
C     2.9300400    0.7143950   -1.2504500  
O     3.4318520    1.1371010   -2.2764060  
C     1.3637150    0.6593230   -1.1584020  
O     0.7208650    1.2238790   -2.0250010  
C     0.7301570   -0.0493080   -0.0198500  
H     0.2977760   -1.4158400    2.6168980  
H     2.6671760   -1.8821610    3.7893630  
H     4.4746680   -0.8718630    2.3513970  
C     6.8803080   -2.8863100   -0.0439310  
C     7.9775760   -2.0925060   -0.1335090  
C     7.5155700   -0.7200420   -0.1833460  
C     6.0364020   -0.7823470   -0.1082840  
N     5.7156760   -2.1242380    0.0118090  
C     5.1958830    0.2936050   -0.1679040  
C     5.8365520    1.6262480   -0.2656260  
O     5.2026390    2.6638300   -0.2074580  
C     7.4030580    1.7068370   -0.3790840  
O     7.9238610    2.8025510   -0.5156090  
C     8.1714060    0.4651790   -0.3057690  
H     9.0065290   -2.4198620   -0.1665210  
H     9.2525860    0.5337630   -0.3770030  
H     6.8156300   -3.9655960    0.0009520  
H     4.7804460   -2.4866750   -0.0977760  
