58


C     0.3690280    4.5928600   -1.1502910  
C     1.5483290    5.2522700   -1.2103560  
C     2.5124630    4.5045860   -0.4295380  
C     1.7628810    3.3622770    0.1494760  
N     0.4714380    3.4274200   -0.3519400  
C     2.3142620    2.4567960    1.0080420  
C     3.7609110    2.4351510    1.1301410  
O     4.3677830    1.4462850    1.5367710  
C     4.5608120    3.6846480    0.6288320  
O     5.7440500    3.7836590    0.9048090  
C     3.8361150    4.6763450   -0.1780270  
H     1.7400170    6.1653690   -1.7551460  
H     1.7494380    1.6733590    1.4950050  
H     4.3995520    5.5259280   -0.5512310  
H    -0.5842340    4.8305390   -1.5959100  
C     0.7859280   -0.9313720   -0.3278820  
C    -0.5329110   -1.2210990   -0.0815170  
C    -1.2651980    0.0172070   -0.0342660  
C    -0.2748910    1.0810570   -0.2836470  
N     0.9250230    0.4502370   -0.4778930  
C    -0.5294130    2.4359620   -0.2476430  
C    -1.9205250    2.8367070   -0.1012470  
O    -2.2984980    3.9989880   -0.1123660  
C    -3.0151460    1.7101000    0.0493840  
O    -4.1736690    2.0860280    0.0626780  
C    -2.6103850    0.2882300    0.1812340  
H    -0.9326320   -2.2084860    0.0853960  
H     1.7835970    0.9057620   -0.7440110  
C     1.9629570   -1.7662390   -0.3546280  
C     2.0801990   -3.0862960   -0.7021420  
C     3.4691490   -3.4502230   -0.5852710  
C     4.1752530   -2.2314810   -0.1243710  
N     3.2226590   -1.2186950   -0.0500870  
C     5.4974820   -2.1737180    0.1629260  
C     6.2987440   -3.3841420   -0.0273670  
O     7.4969150   -3.4306890    0.1987300  
C     5.5785830   -4.6770260   -0.5610530  
O     6.2345780   -5.6911260   -0.7407540  
C     4.1362300   -4.6150440   -0.8136040  
H     1.2810950   -3.7179490   -1.0636140  
H     5.9888510   -1.2730640    0.5178100  
H     3.6439240   -5.5180480   -1.1615660  
H     3.3640580   -0.4263570    0.5741150  
C    -3.3105180   -1.8194480    1.3657510  
C    -3.5692470   -0.7232560    0.5715640  
C    -5.0098780   -0.8731120    0.2391580  
C    -5.4055770   -2.1392570    0.9212250  
N    -4.4032320   -2.6658500    1.5839540  
C    -6.7317660   -2.6782080    0.8377170  
C    -7.6420370   -2.0048850    0.0911170  
O    -8.9117180   -2.3914900   -0.0816830  
C    -7.2761040   -0.7348700   -0.6260170  
O    -8.1469680   -0.1857170   -1.2957220  
C    -5.9024630   -0.1940040   -0.5063200  
H    -6.9738510   -3.5993680    1.3557450  
H    -9.3183350   -1.7145940   -0.6671050  
H    -5.6965500    0.7419750   -1.0087680  
H    -2.3755430   -2.0474280    1.8630400  
