64


C     3.2602360    1.5844070   -1.1119160  
C     1.9709860    1.1241780   -1.1058110  
C     1.9955640   -0.1762160   -0.5011150  
C     3.3431430   -0.4489560   -0.1470050  
N     4.1087620    0.6447590   -0.5377060  
C     3.7346550   -1.6227570    0.5146870  
C     2.7453970   -2.5517310    0.8037960  
O     3.0682320   -3.7098420    1.4434310  
C     1.3946260   -2.3234480    0.4326660  
O     0.5425490   -3.3595690    0.7405640  
C     1.0129980   -1.1463280   -0.2070380  
H     1.1056970    1.6492090   -1.4842200  
H     4.7544500   -1.8034420    0.8364460  
H     2.2394110   -4.2012920    1.5827500  
H    -0.3795550   -3.0532120    0.7221080  
H     3.6724800    2.5090140   -1.4889640  
C     6.5917190    3.6831460    1.5467590  
C     5.5307560    2.9585390    1.0692050  
C     6.0775420    1.8628630    0.3199970  
C     7.4916890    1.9745120    0.3817280  
N     7.7738980    3.0962330    1.1342480  
C     8.3569530    1.0535150   -0.2214580  
C     7.7833940   -0.0023760   -0.9116880  
O     8.5763630   -0.9301180   -1.5203000  
C     6.3729550   -0.1308210   -1.0130690  
O     5.9577760   -1.2031150   -1.7713180  
C     5.5200970    0.7857740   -0.4047970  
H     4.4851980    3.1739530    1.2359810  
H     8.6988670    3.4260700    1.3606200  
H     9.4375300    1.1316220   -0.1615100  
H     7.9850170   -1.5909980   -1.9216250  
H     5.0152920   -1.3783530   -1.6124110  
H     6.6063860    4.5767230    2.1545950  
C    -0.8035780   -0.7360510   -1.8726470  
C    -2.1660250   -0.6046640   -1.8794870  
C    -2.6045240   -0.7389930   -0.5199330  
C    -1.4463740   -0.9399190    0.2766350  
N    -0.3477590   -0.9427280   -0.5756570  
C    -1.4924850   -1.0615120    1.6736080  
C    -2.7413860   -1.0000730    2.2769640  
O    -2.8490520   -1.1099480    3.6268640  
C    -3.9233460   -0.8382680    1.5062790  
O    -5.0907400   -0.8811710    2.2365480  
C    -3.8622580   -0.7042690    0.1199620  
H    -2.7808760   -0.4245860   -2.7498610  
H    -0.6017060   -1.1521440    2.2856060  
H    -3.7954760   -1.0173530    3.8417470  
H    -5.7508980   -0.2672220    1.8647990  
H    -0.0936030   -0.7116270   -2.6864260  
C    -5.4696480   -1.4464290   -1.6510010  
C    -6.6886750   -1.1124800   -2.1375190  
C    -7.1319240    0.0627600   -1.4163140  
C    -6.0425590    0.3925840   -0.4616430  
N    -5.0548940   -0.5596660   -0.6426140  
C    -6.0712430    1.4511110    0.3985620  
C    -7.2447550    2.3231390    0.3901450  
O    -7.3478800    3.3069300    1.1057030  
C    -8.4187950    1.9730350   -0.5942100  
O    -9.4209030    2.6690210   -0.5945290  
C    -8.2587420    0.8170620   -1.4844800  
H    -7.2344030   -1.6293260   -2.9134860  
H    -5.2298820    1.7310050    1.0261100  
H    -9.0663210    0.6027200   -2.1781050  
H    -4.8167810   -2.2664730   -1.9169460  
