58


C    -1.2570840   -0.6189660    2.6937970  
C    -2.3816110   -1.0325160    2.0564240  
C    -2.5262090   -0.2232810    0.8624750  
C    -1.3684840    0.6990020    0.8503670  
N    -0.6340970    0.4008880    1.9811950  
C    -1.1125900    1.6478550   -0.1026210  
C    -2.0639950    1.7205030   -1.2281330  
O    -1.8851440    2.4349880   -2.1979020  
C    -3.3327920    0.8005420   -1.2032490  
O    -4.1936790    0.9811250   -2.0435920  
C    -3.4699710   -0.2166830   -0.1298860  
H    -3.0462490   -1.8206490    2.3752470  
H    -0.8187410   -0.9750010    3.6166510  
H     0.1694050    0.9261600    2.2888580  
C    -6.9436380   -0.9540970    2.5809510  
C    -5.7895890   -0.4940220    2.0306760  
C    -5.5921640   -1.2037960    0.7841840  
C    -6.7488790   -2.1242030    0.6502110  
N    -7.5164270   -1.9385220    1.7849350  
C    -6.9736220   -2.9455590   -0.4070550  
C    -6.0099870   -2.9396520   -1.4995440  
O    -6.1304720   -3.6234880   -2.5037310  
C    -4.7456490   -2.0180270   -1.3646010  
O    -3.8681360   -2.1033130   -2.2045860  
C    -4.6271110   -1.1225970   -0.1840030  
H    -5.1451500    0.2679580    2.4415510  
H    -7.8417170   -3.5924240   -0.4880600  
H    -7.4272480   -0.6599960    3.5031640  
H    -8.4153000   -2.3659750    1.9443080  
C     3.3083500    0.9802730   -0.1022620  
C     1.9476090    0.8271860   -0.1059610  
C     1.3518570    2.1393250   -0.0715820  
C     2.4775770    3.0991430   -0.0600770  
N     3.6456950    2.3418630   -0.0013950  
C     2.3497960    4.4463950   -0.1302280  
C     1.0038830    5.0079690   -0.1835550  
O     0.7823910    6.2038260   -0.2800030  
C    -0.2127270    4.0217600   -0.0793860  
O    -1.3287350    4.4841100    0.0641920  
C     0.0428440    2.5536800   -0.0876180  
H     1.4200990   -0.1152250   -0.1056890  
H     3.1942630    5.1279880   -0.1583190  
H     4.5154590    2.6946130   -0.3799860  
C     4.3431080   -0.0238890   -0.1309720  
C     4.2968430   -1.3076850   -0.6036310  
C     5.5963340   -1.8989820   -0.4069420  
C     6.4316470   -0.8551950    0.2343360  
N     5.6398360    0.2861920    0.3196850  
C     7.7106490   -1.0400000    0.6387580  
C     8.3314600   -2.3448160    0.4035070  
O     9.4773780   -2.6017270    0.7344810  
C     7.4787500   -3.4523420   -0.3160540  
O     7.9840780   -4.5425560   -0.5306690  
C     6.0980200   -3.1323430   -0.6900240  
H     3.4518640   -1.7709670   -1.0928800  
H     8.3066010   -0.2684390    1.1165770  
H     5.5115140   -3.9097740   -1.1699160  
H     5.8029480    0.9951890    1.0222270  
