58


C    -0.5616040    1.2149230    0.0713540  
C    -1.5990600    0.3453450   -0.1072900  
C    -2.7722890    0.9393270    0.4647050  
C    -2.3430870    2.2653840    0.9658730  
N    -0.9902960    2.4081930    0.6537850  
C    -3.1317720    3.1467070    1.6213750  
C    -4.5295460    2.7829340    1.7965440  
O    -5.3362230    3.4804160    2.3869800  
C    -5.0410960    1.4399660    1.1517590  
O    -6.2572970    1.2692980    1.1762470  
C    -4.0805330    0.4899900    0.5647310  
H    -1.5342550   -0.6060590   -0.6068460  
H    -2.7843480    4.0963970    2.0149300  
H    -0.3755070    2.9879830    1.2096170  
C     1.3865090   -0.2473800   -0.1698500  
C     2.6921800   -0.1736230   -0.5345660  
C     2.9891530    1.2175310   -0.8606020  
C     1.7272650    1.9604420   -0.6506080  
N     0.7763360    1.0156950   -0.2238170  
C     1.5783090    3.2841400   -0.8971420  
C     2.7435620    4.0408620   -1.3717590  
O     2.6938480    5.2356740   -1.6064930  
C     4.0903760    3.2696200   -1.5912860  
O     5.0665240    3.8759970   -1.9946520  
C     4.1135730    1.8261810   -1.3102640  
H     0.6402900    3.8165950   -0.7929860  
H     5.0416610    1.2915610   -1.4826790  
H     0.8125140   -1.0996780    0.1676980  
C     3.3636700   -2.4137900   -1.3936910  
C     4.3646290   -3.3095780   -1.2323950  
C     5.3130080   -2.7408870   -0.2962900  
C     4.7717600   -1.4150410    0.0885590  
N     3.5811260   -1.2540330   -0.6280450  
C     5.3505100   -0.5837140    0.9891150  
C     6.6103760   -1.0007500    1.6084890  
O     7.1976640   -0.3187440    2.4322060  
C     7.2194070   -2.3873550    1.1900890  
O     8.2761170   -2.7442660    1.6843750  
C     6.4798890   -3.2039510    0.2217750  
H     4.4458290   -4.2711990   -1.7180850  
H     4.9318890    0.3728460    1.2815530  
H     6.8955240   -4.1713650   -0.0430220  
H     2.4794730   -2.4671460   -2.0148350  
C    -7.6680810   -1.2178000   -1.4911490  
C    -7.2622780   -2.5081920   -1.6063130  
C    -5.9644050   -2.6016630   -0.9795380  
C    -5.6379860   -1.2296490   -0.4967230  
N    -6.6961420   -0.4355900   -0.8768940  
C    -4.4706460   -0.8708140    0.1460660  
C    -3.5811350   -2.0091900    0.4855210  
O    -2.6174330   -1.9089690    1.2303150  
C    -3.8571640   -3.4314230   -0.1289650  
O    -2.9892600   -4.2834260   -0.0069350  
C    -5.1141410   -3.6519220   -0.8215490  
H    -7.8019810   -3.3185900   -2.0740240  
H    -5.3217580   -4.6428930   -1.2130080  
H    -8.5929540   -0.7580720   -1.8143470  
H    -6.8811830    0.4221340   -0.3613510  
