60


C     1.5391990   -1.6190670   -1.4336240  
C     0.8349100   -0.7022770   -0.6730900  
C     1.8194620    0.2166630   -0.1356200  
C     3.0832740   -0.1965680   -0.6213960  
N     2.8758970   -1.3113200   -1.4129710  
C     4.2990470    0.4340090   -0.2851850  
C     4.2014960    1.5137890    0.5948230  
O     5.3253090    2.1910640    0.9586350  
C     2.9464240    1.9275740    1.1135150  
O     3.0380370    3.0009300    1.9743000  
C     1.7652470    1.3010620    0.7629570  
H     3.6120170   -1.8496760   -1.8438000  
H     5.0565610    2.8882530    1.5828200  
H     2.1611530    3.2251330    2.3195760  
H     0.8227960    1.6309960    1.1924110  
H     1.1667730   -2.4461980   -2.0210290  
C    -1.4239330   -1.7970570   -0.3017110  
C    -0.6036000   -0.7240780   -0.4745680  
C    -1.5324710    0.4294970   -0.5144350  
C    -2.8835910   -0.1659480   -0.3259530  
N    -2.8008490   -1.4603950   -0.2138090  
C    -4.0973410    0.6558200   -0.3006200  
C    -3.8980350    1.9990200   -0.5120290  
O    -4.8872570    2.9206610   -0.5278170  
C    -2.5587620    2.6027180   -0.7482020  
O    -2.5067010    3.8244310   -0.9227540  
C    -1.3644170    1.7428090   -0.7509240  
H    -4.4290500    3.7766780   -0.7025710  
H    -0.4051070    2.2156950   -0.9350420  
H    -1.1386450   -2.8376670   -0.2109010  
C    -5.4067080    0.0668030   -0.0775210  
C    -5.7418200   -1.2487190    0.1504950  
C    -7.1680160   -1.3193030    0.3120580  
C    -7.6743100    0.0681750    0.1637030  
N    -6.5699440    0.8519940   -0.0685670  
C    -8.9840940    0.4187800    0.2526210  
C    -9.9676440   -0.6264770    0.5092500  
O   -11.1667350   -0.4087170    0.6051870  
C    -9.4536700   -2.1054550    0.6692450  
O   -10.2637480   -2.9948320    0.8842050  
C    -8.0160360   -2.3585250    0.5533100  
H    -5.0402840   -2.0657030    0.1904830  
H    -9.3369020    1.4395080    0.1418480  
H    -7.6717930   -3.3822090    0.6656070  
H    -6.5686830    1.8506980   -0.2109610  
C     5.9023480   -0.1680190   -2.1531040  
C     5.5896490   -0.0215890   -0.8325450  
C     6.7791140   -0.4302300   -0.0843240  
C     7.7965240   -0.8189460   -1.0904020  
N     7.1935560   -0.6537120   -2.3235400  
C     9.0493400   -1.2490360   -0.7944850  
C     9.4314910   -1.3526990    0.6106450  
O    10.5339200   -1.7300070    0.9768780  
C     8.3610620   -0.9646340    1.6958420  
O     8.6558450   -1.0542810    2.8766720  
C     7.0415730   -0.5060590    1.2442720  
H     9.7802700   -1.5257040   -1.5481530  
H     6.3181380   -0.2235490    2.0008460  
H     5.2944270    0.0606160   -3.0194060  
H     7.6640650   -0.7490250   -3.2099440  
