60


C     1.4960700   -0.2664690   -1.1812040  
C     1.0129450    0.8662460   -0.5432550  
C     2.1771010    1.5450610    0.0025040  
C     3.3033620    0.7541720   -0.3305550  
N     2.8586650   -0.3261860   -1.0673060  
C     4.6133550    1.0844520    0.0666820  
C     4.7790270    2.2527850    0.8079180  
O     6.0243200    2.6342670    1.2015560  
C     3.6580090    3.0572930    1.1339690  
O     3.9903200    4.1814040    1.8588070  
C     2.3740500    2.7193760    0.7542260  
H     3.4427910   -1.0739060   -1.4107440  
H     5.9255800    3.4691620    1.6935870  
H     3.2032750    4.7312930    1.9906890  
H     1.5417780    3.3715940    0.9917850  
H     0.9600080   -1.0066020   -1.7572040  
C    -2.5997390   -1.6041060    0.0576000  
C    -1.3366850   -1.1327060   -0.0126300  
C    -1.3991490    0.2866420   -0.3028720  
C    -2.8344430    0.6236540   -0.3931850  
N    -3.5349090   -0.5706960   -0.1617850  
C    -3.3244500    1.8578870   -0.6888760  
C    -2.3713900    2.9433510   -0.8484180  
O    -2.6987460    4.0948260   -1.0900000  
C    -0.8400460    2.6284140   -0.6848990  
O    -0.0616730    3.5639200   -0.7435750  
C    -0.4031390    1.2188730   -0.4819160  
H    -0.4395810   -1.7049050    0.1680690  
H    -4.3743890    2.0766250   -0.8380440  
H    -2.9628240   -2.5930140    0.2970430  
C    -4.9038110   -0.7748710   -0.1317210  
C    -5.6005950   -1.9112170   -0.4366290  
C    -6.9908860   -1.6473650   -0.1684550  
C    -7.0591330   -0.2498980    0.3222750  
N    -5.7596680    0.2537810    0.2723880  
C    -8.1913140    0.3668030    0.7306780  
C    -9.4503990   -0.3801030    0.6588460  
O   -10.5188350    0.0970790    1.0040250  
C    -9.4099360   -1.8494070    0.1017510  
O   -10.4544280   -2.4791050    0.0277240  
C    -8.1160030   -2.4043150   -0.2913440  
H    -5.1913530   -2.8159700   -0.8613450  
H    -8.2211140    1.3892470    1.0947050  
H    -8.0969980   -3.4261920   -0.6574280  
H    -5.4487150    1.0154870    0.8594370  
C     6.8677300    0.7554390   -0.9705080  
C     7.7683070   -0.2350740   -1.1767640  
C     7.2238200   -1.4429410   -0.5953510  
C     5.9094310   -1.0637360   -0.0157450  
N     5.7314390    0.2873030   -0.2913070  
C     5.0929660   -1.9235630    0.6506720  
C     5.5117780   -3.3159870    0.7889940  
O     4.8352040   -4.1585210    1.3598680  
C     6.8904310   -3.7417120    0.1652760  
O     7.2487190   -4.9050720    0.2594650  
C     7.6914950   -2.7157760   -0.5077910  
H     8.7202250   -0.1410180   -1.6788730  
H     4.1570850   -1.6226610    1.1083830  
H     8.6515320   -3.0156080   -0.9170850  
H     6.9124020    1.7994400   -1.2455130  
