60


C    -2.1241110    0.1716890    0.9947980  
C    -1.5591480    1.3082500    0.4554010  
C    -2.6441530    2.0635470   -0.1486080  
C    -3.8352510    1.3275990    0.0392490  
N    -3.4938560    0.1826950    0.7574590  
C    -5.0832700    1.7355940   -0.4388500  
C    -5.1273590    2.9381660   -1.1273050  
O    -6.3104500    3.3995310   -1.6117960  
C    -3.9434670    3.7011650   -1.3259550  
O    -4.1531160    4.8734040   -2.0196630  
C    -2.7156320    3.2805430   -0.8546550  
H    -5.9889520    1.1585310   -0.2903860  
H    -6.1353910    4.2568590   -2.0383710  
H    -3.3400530    5.4008080   -2.0241410  
H    -1.8319750    3.8944410   -0.9919320  
H    -1.6907360   -0.6148910    1.5961410  
C     1.8879250   -1.2354740   -0.3267180  
C     2.9278970   -0.3731990   -0.0576640  
C     2.3087040    0.9070600    0.3081140  
C     0.8474720    0.6933540    0.2435430  
N     0.6731480   -0.6314840   -0.1305500  
C    -0.1258130    1.6241590    0.4905040  
C     0.3614660    2.9785420    0.8223540  
O    -0.3839170    3.9224890    1.0306270  
C     1.9141310    3.2261430    0.9138750  
O     2.2980590    4.3492780    1.1976770  
C     2.8279870    2.1168710    0.6427100  
H     3.8961140    2.2850080    0.6978680  
H     1.9312890   -2.2666830   -0.6513390  
H    -0.2272800   -1.0294500   -0.3585780  
C     4.3279560   -0.6930900   -0.1379200  
C     4.9286710   -1.8889830   -0.4588340  
C     6.3402150   -1.6505790   -0.3921020  
C     6.4523960   -0.2016130   -0.0000620  
N     5.2815410    0.3462220    0.1459280  
C     7.7285110    0.4382040    0.1756890  
C     8.8347530   -0.3159860   -0.0252600  
O    10.0877000    0.1324830    0.0989460  
C     8.7560700   -1.7815660   -0.4211750  
O     9.8312400   -2.3649190   -0.5759160  
C     7.4513080   -2.4074340   -0.5935690  
H     4.4523200   -2.8269950   -0.7090340  
H     7.7825700    1.4836220    0.4581090  
H    10.6568030   -0.6449160   -0.1096760  
H     7.4318020   -3.4550600   -0.8768760  
C    -5.0647280   -0.8378780    2.3481460  
C    -5.7286440   -2.0098510    2.4797500  
C    -5.4374390   -2.8171120    1.3082700  
C    -4.5342600   -2.0091730    0.4553220  
N    -4.3586600   -0.8062490    1.1331610  
C    -4.0068270   -2.4127160   -0.7250850  
C    -4.3460320   -3.7515550   -1.2048330  
O    -3.9021630   -4.2182610   -2.2417990  
C    -5.3220150   -4.6245640   -0.3322660  
O    -5.6262980   -5.7396250   -0.7222900  
C    -5.8230250   -4.0626020    0.9283740  
H    -6.3647210   -2.2952670    3.3051530  
H    -3.3564570   -1.7899300   -1.3301710  
H    -6.4892140   -4.6789100    1.5244400  
H    -5.0155070    0.0244460    2.9990850  
