60


C     1.9086080   -0.4923070    0.0296830  
C     3.2126630   -0.0439100    0.0211940  
C     3.1391190    1.4008390   -0.1344860  
C     1.7721070    1.7425270   -0.2525710  
N     1.0241400    0.5614600   -0.1302470  
C     1.3290760    3.0594320   -0.4073140  
C     2.2925920    4.0538490   -0.4680730  
O     1.9173370    5.3558220   -0.6168120  
C     3.6693940    3.7289140   -0.3673680  
O     4.5098910    4.8213790   -0.4375610  
C     4.0994920    2.4255630   -0.2053300  
H     0.2836590    3.3231940   -0.5044580  
H     2.7309250    5.8889740   -0.6326460  
H     5.4219850    4.5358770   -0.2778670  
H     5.1549220    2.2057550   -0.0873970  
H     1.5299110   -1.4969500    0.1426660  
C    -1.6120810   -1.4398950    2.7276780  
C    -0.5379650   -0.8785740    2.1126210  
C    -1.0189380   -0.2504020    0.9012950  
C    -2.4762660   -0.4874060    0.8593990  
N    -2.7695950   -1.2202040    1.9928180  
C    -3.3320220   -0.0626790   -0.1223390  
C    -2.7341780    0.7401390   -1.2023020  
O    -3.3937730    1.3183690   -2.0473730  
C    -1.1729690    0.9255010   -1.2435510  
O    -0.6754760    1.4463750   -2.2241490  
C    -0.3748880    0.4365280   -0.0967740  
H     0.4812770   -0.8855360    2.4672840  
H    -1.6602330   -1.9896300    3.6581650  
H    -3.6956350   -1.5308500    2.2417820  
C    -6.6754810    0.7301090    2.7349450  
C    -5.4590800    0.6599090    2.1319020  
C    -5.6428140   -0.0211530    0.8645740  
C    -7.0881770   -0.3394810    0.7789870  
N    -7.6502910    0.1200070    1.9569490  
C    -7.6956880   -0.9377070   -0.2781190  
C    -6.8736700   -1.3102430   -1.4206170  
O    -7.3246730   -1.8186490   -2.4352130  
C    -5.3252130   -1.0619380   -1.3286860  
O    -4.6097590   -1.5212540   -2.1992500  
C    -4.7742470   -0.3407940   -0.1470900  
H    -4.5353790    1.0699630    2.5115890  
H    -8.7627120   -1.1325640   -0.3231360  
H    -6.9454200    1.1785950    3.6820080  
H    -8.6387460    0.1239410    2.1550040  
C     4.1073700   -3.9841960   -1.8100290  
C     3.5560550   -2.7874920   -1.4839830  
C     4.4427480   -2.1399690   -0.5367880  
C     5.5793690   -3.0690430   -0.3467650  
N     5.3007670   -4.1781220   -1.1182190  
C     6.6702240   -2.8319690    0.4332480  
C     6.7405690   -1.5638280    1.1264350  
O     7.6818690   -1.2186110    1.8278240  
C     5.5365150   -0.5570130    0.9636130  
O     5.6012290    0.4992380    1.5702990  
C     4.3766480   -0.9241900    0.1067550  
H     2.6413210   -2.3784560   -1.8839110  
H     7.4885930   -3.5360120    0.5467460  
H     3.7524300   -4.7416390   -2.4959730  
H     5.9315650   -4.9527300   -1.2519530  
