60


C     2.8906190    1.3166270   -0.6525690  
C     3.8060330    0.3576970   -0.2519360  
C     3.0193220   -0.7993540    0.1402040  
C     1.6567040   -0.4589110   -0.0374760  
N     1.6136910    0.8348550   -0.5196280  
C     0.5864460   -1.3166550    0.3101740  
C     0.9419790   -2.5695020    0.8208720  
O    -0.0229150   -3.4845890    1.0956630  
C     2.3020250   -2.9249650    0.9957500  
O     2.4777350   -4.1979520    1.4990690  
C     3.3321270   -2.0632660    0.6760540  
H     0.7775300    1.3075590   -0.8289430  
H     0.4226550   -4.2781200    1.4423120  
H     3.4157400   -4.4376360    1.4569880  
H     4.3640870   -2.3733690    0.7960360  
H     3.0677690    2.2960200   -1.0724850  
C    -1.9424940    0.2794350   -3.0216530  
C    -0.8889400   -0.2200840   -2.3304810  
C    -1.3882720   -0.4341240   -0.9747950  
C    -2.8127440    0.0016410   -1.0458720  
N    -3.1269450    0.4202110   -2.2398950  
C    -3.7010560   -0.0593380    0.1036390  
C    -3.1596950   -0.5537820    1.2500970  
O    -3.8521020   -0.7156610    2.3845420  
C    -1.7133950   -0.9610670    1.3650680  
O    -1.3183120   -1.2652850    2.4843920  
C    -0.8221610   -0.9223970    0.1615750  
H     0.1012820   -0.4527540   -2.6957990  
H    -3.1945610   -1.0177060    3.0507520  
H    -1.9809150    0.5595370   -4.0677030  
C    -7.3320610   -1.0545410   -2.3418900  
C    -6.0603550   -1.0463250   -1.8824660  
C    -6.0405180   -0.0338810   -0.8308540  
C    -7.4474290    0.4782300   -0.7994390  
N    -8.1968120   -0.1227150   -1.6772950  
C    -7.8665120    1.4958860    0.1298620  
C    -6.9392580    1.9842660    0.9833470  
O    -7.1800390    2.9433400    1.8940510  
C    -5.5129800    1.5018760    0.9726000  
O    -4.7297710    2.0588020    1.7370970  
C    -5.0983090    0.4128700    0.0358970  
H    -5.2206940   -1.6334170   -2.2219980  
H    -8.8926960    1.8460910    0.1261640  
H    -6.3173510    3.0994950    2.3373990  
H    -7.7513880   -1.6682650   -3.1302760  
C     6.3272990    3.8553460    0.8084530  
C     5.2963480    2.9881590    0.6412530  
C     5.8423390    1.7540560    0.1101010  
C     7.3013630    1.9761900   -0.0068620  
N     7.5255710    3.2740980    0.4038790  
C     8.2096140    1.0537330   -0.4286740  
C     7.7195970   -0.2618530   -0.7783260  
O     8.4356020   -1.1872170   -1.1353740  
C     6.1675130   -0.5288540   -0.6827750  
O     5.7702090   -1.6416560   -0.9869140  
C     5.2537110    0.5595390   -0.2411240  
H     4.2633700    3.1738560    0.8907840  
H     9.2743200    1.2520400   -0.5008720  
H     6.3215510    4.8656630    1.1951090  
H     8.4363520    3.6976970    0.4863570  
