60


C    -1.4920340   -4.1380830   -0.0259430  
C    -1.7768480   -2.7983560   -0.1388260  
C    -3.2397010   -2.6908950   -0.1024160  
C    -3.7546550   -4.0744890    0.0456480  
N    -2.6387440   -4.8944020    0.0745660  
C    -5.0640570   -4.4162680    0.1265970  
C    -6.0607400   -3.3494170    0.0685200  
O    -7.2620150   -3.5548030    0.1377740  
C    -5.5438180   -1.8745150   -0.0885430  
O    -6.3544940   -0.9628090   -0.1069560  
C    -4.0961970   -1.6414540   -0.1915610  
H    -5.4099880   -5.4403800    0.2279760  
H    -3.7514930   -0.6240150   -0.3281780  
H    -0.5241640   -4.6205890    0.0052340  
H    -2.6638310   -5.8954510    0.1963650  
C    -0.8038450   -1.7387640   -0.2571950  
C     0.5447010   -1.8311140   -0.4940250  
C     1.0485920   -0.4879830   -0.4486830  
C    -0.1513750    0.3609740   -0.2045450  
N    -1.2222530   -0.3826480   -0.0792700  
C    -0.0915440    1.8123850   -0.0975010  
C     1.1753890    2.3308110   -0.0869650  
O     1.4393100    3.6177410    0.1461040  
C     2.4173120    1.5161780   -0.3371050  
O     3.4805820    2.1290930   -0.3971380  
C     2.3047410    0.0488660   -0.5212680  
H     1.1284600   -2.7244650   -0.6618340  
H     2.4048590    3.7273820   -0.0048420  
C    -3.9897340    1.6609790    2.0674480  
C    -4.4915710    2.8656140    1.6944470  
C    -3.5296910    3.4706990    0.8006570  
C    -2.4000910    2.5084830    0.7046710  
N    -2.7196510    1.4516570    1.5334670  
C    -1.2683030    2.6985770   -0.0464990  
C    -1.2846880    3.8893010   -0.9353100  
O    -0.4806120    4.0541200   -1.8356760  
C    -2.4111310    4.9682490   -0.7499150  
O    -2.3137820    6.0201700   -1.3633630  
C    -3.5268510    4.6561100    0.1337020  
H    -5.4382810    3.2911780    1.9934440  
H    -4.3243360    5.3866860    0.2283230  
H    -4.4321000    0.9044260    2.7021980  
H    -2.3152830    0.5354830    1.3421940  
C     3.4487020   -1.6478920   -1.8883010  
C     4.6681100   -2.2492960   -1.9503800  
C     5.4805280   -1.6872570   -0.9031020  
C     4.6969280   -0.7160640   -0.2346920  
N     3.4366290   -0.6939990   -0.8584770  
C     5.1666440   -0.0264010    0.8874080  
C     6.4594400   -0.2939160    1.3138380  
O     6.9608000    0.3657950    2.3967090  
C     7.2648820   -1.2453940    0.6380950  
O     8.5240340   -1.4004220    1.1792660  
C     6.7886190   -1.9438870   -0.4576040  
H     4.9693300   -2.9944230   -2.6742610  
H     4.5839000    0.7177160    1.4138900  
H     7.8763080    0.0629690    2.5237900  
H     9.0383160   -2.0172370    0.6376230  
H     7.4113570   -2.6855220   -0.9535870  
H     2.5782040   -1.7537800   -2.5180180  
