60


C    -0.2755040    4.5240320    0.0932830  
C    -0.8275030    3.2707480   -0.0396270  
C    -2.2847350    3.4661680   -0.0472140  
C    -2.5052770    4.9246880    0.0969970  
N    -1.2431480    5.4953670    0.1795920  
C    -3.7142830    5.5357780    0.1360830  
C    -4.9092960    4.7014590    0.0286870  
O    -6.0423220    5.1547780    0.0563040  
C    -4.7058700    3.1516640   -0.1286910  
O    -5.6887980    2.4368730   -0.2287400  
C    -3.3355850    2.6141120   -0.1527160  
H    -3.8404480    6.6087470    0.2438810  
H    -3.2019690    1.5443870   -0.2619060  
H     0.7699450    4.8011760    0.1261610  
H    -1.0650790    6.4856770    0.2547740  
C    -0.0976610    2.0357590   -0.1545690  
C     1.2594710    1.8088550   -0.0864140  
C     1.4383940    0.4007470   -0.3099720  
C     0.0481170   -0.1150770   -0.5020880  
N    -0.8350030    0.8356370   -0.4012470  
C    -0.2288260   -1.5154600   -0.7742750  
C     0.8559590   -2.3348760   -0.8886460  
O     0.7728180   -3.6420070   -1.1653840  
C     2.2600480   -1.8560230   -0.6466120  
O     3.1368620   -2.7177890   -0.6494140  
C     2.5316100   -0.4188570   -0.3827110  
H     2.0459060    2.5376350    0.0515410  
H     1.7008980   -3.9700590   -1.1285840  
C     4.4749440    1.7439990    2.9350030  
C     5.7559130    1.7392600    2.4866100  
C     5.7586510    1.0723960    1.2006180  
C     4.3517030    0.6862390    0.9332470  
N     3.6281960    1.1187110    2.0238840  
C     3.9216960   -0.0045790   -0.1694120  
C     4.9418870   -0.3068760   -1.1994960  
O     4.6573040   -0.7721070   -2.2883170  
C     6.4428700    0.0492810   -0.9044070  
O     7.2927230   -0.2784650   -1.7165740  
C     6.7578080    0.7686450    0.3292200  
H     6.6176890    2.1456460    2.9954110  
H     7.7969710    1.0215410    0.5161720  
H     4.0693320    2.1428860    3.8553910  
H     2.6253410    1.0438540    2.1066190  
C    -2.5347310   -1.3454840   -1.6801470  
C    -3.7210990   -2.0031750   -1.5418400  
C    -3.5089800   -3.0805220   -0.6134020  
C    -2.1480900   -3.0354690   -0.2217080  
N    -1.5548820   -1.9604770   -0.8944630  
C    -1.6106990   -3.9182450    0.7207040  
C    -2.4576040   -4.8770850    1.2588750  
O    -1.9758740   -5.7650430    2.1796520  
C    -3.8171750   -4.9457270    0.8665410  
O    -4.5324750   -5.9529080    1.4879010  
C    -4.3483280   -4.0614900   -0.0561890  
H    -4.6459920   -1.7499680   -2.0417610  
H    -0.5741520   -3.8932620    1.0308860  
H    -2.7128470   -6.3507080    2.4241060  
H    -5.4467290   -5.9419410    1.1684720  
H    -5.3990300   -4.1189130   -0.3339130  
H    -2.2748260   -0.4873370   -2.2794140  
