62


C    -1.4943080    0.5435670    1.9898660  
C    -2.8344850    0.4563730    1.7365620  
C    -2.9936690   -0.1684930    0.4465690  
C    -1.6891620   -0.4530110   -0.0288810  
N    -0.7752440    0.0132380    0.9216410  
C    -1.4505280   -1.1681230   -1.2068540  
C    -2.5621310   -1.5873740   -1.9206130  
O    -2.4065630   -2.2996500   -3.0654370  
C    -3.8837150   -1.2950770   -1.4838850  
O    -4.8550240   -1.7665430   -2.3268620  
C    -4.1323560   -0.5588760   -0.3200310  
H    -3.6186160    0.7792740    2.4061480  
H    -0.4577110   -1.4328870   -1.5505280  
H    -3.3105400   -2.5214910   -3.3629870  
H    -5.5826910   -2.1247950   -1.7609540  
H    -0.9631420    0.9628250    2.8318800  
C     1.4517990   -0.4588850    1.8959040  
C     0.6174360   -0.0985400    0.8867860  
C     1.5062170    0.3304330   -0.2128580  
C     2.8734950    0.0960700    0.3274000  
N     2.8245240   -0.3422840    1.5531240  
C     4.0786760    0.3930120   -0.4506890  
C     3.8444850    1.0029010   -1.6510010  
O     4.8452100    1.3909400   -2.4963730  
C     2.4988090    1.2992920   -2.1887130  
O     2.4161260    1.8383840   -3.2972930  
C     1.3052480    0.9219140   -1.4020640  
H     4.3770360    1.7733250   -3.2746580  
H     0.3318000    1.1382010   -1.8303830  
H     1.1829570   -0.8070420    2.8852750  
C     5.9778280   -3.2856410    1.3407850  
C     5.1023020   -2.4079610    0.7581130  
C     5.7783780   -1.1485100    0.6304690  
C     7.0867010   -1.3357240    1.1516960  
N     7.1751450   -2.6408180    1.5878370  
C     8.0615840   -0.3328160    1.1608150  
C     7.7154670    0.8867030    0.6024330  
O     8.6193250    1.9048860    0.5638350  
C     6.4248760    1.1043560    0.0545370  
O     6.2352660    2.3825100   -0.4316270  
C     5.4271960    0.1190570    0.0813120  
H     4.0865790   -2.6332000    0.4712120  
H     7.9997270   -3.0668480    1.9799760  
H     9.0581330   -0.4814330    1.5643550  
H     8.1602650    2.6420920    0.1180540  
H     5.8453880    2.3115300   -1.3287770  
H     5.8471900   -4.3244010    1.6092780  
C    -5.7160230    3.3394140    0.9253350  
C    -6.9900790    3.0007460    1.2461280  
C    -7.1355070    1.5848480    0.9797640  
C    -5.8164660    1.1187870    0.4783900  
N    -5.0122150    2.2329940    0.4575140  
C    -5.4997210   -0.1691600    0.1047170  
C    -6.6257690   -1.1018930    0.1169080  
O    -6.5843580   -2.2327730   -0.3720780  
C    -7.9996630   -0.6680540    0.7513960  
O    -8.8639210   -1.5177740    0.8884520  
C    -8.1826810    0.7308280    1.1221400  
H    -7.7599550    3.6614620    1.6165990  
H    -9.1464260    1.0327700    1.5192440  
H    -5.2250980    4.3021180    0.9778110  
H    -4.0242410    2.2057890    0.2520790  
