58


C     0.4801120    2.0851980    0.1375590  
C    -0.8429920    1.8998940   -0.1587220  
C    -1.1069940    0.4854060   -0.0944510  
C     0.1712410   -0.1550090    0.2760370  
N     1.1082250    0.8650880    0.3638580  
C     0.3734680   -1.4880080    0.4967540  
C    -0.8055250   -2.3520990    0.3168950  
O    -0.7788690   -3.5558640    0.5065160  
C    -2.1681660   -1.7057060   -0.1326120  
O    -3.1094900   -2.4565030   -0.3269880  
C    -2.2548810   -0.2429310   -0.3144720  
H    -1.5497490    2.6715470   -0.4207710  
H     2.0261220    0.7501370    0.7647760  
C     0.5884210    4.4805120    0.6897830  
C     1.4971000    5.4762090    0.7613410  
C     2.7802160    4.9342990    0.3592580  
C     2.5452830    3.5084780    0.0254620  
N     1.1826180    3.2719780    0.2667700  
C     3.5026360    2.6775730   -0.4571860  
C     4.8685560    3.1946010   -0.6003600  
O     5.7874960    2.5054800   -1.0089820  
C     5.1437380    4.6874940   -0.2089250  
O     6.2757730    5.1293860   -0.3023770  
C     4.0089940    5.4982230    0.2499010  
H     1.3065280    6.4916250    1.0777280  
H     3.3230900    1.6574070   -0.7760840  
H     4.1963900    6.5420520    0.4822770  
H    -0.4643030    4.4820540    0.9343220  
C    -3.6229000    1.2587240   -1.8011740  
C    -3.5066680    0.3592800   -0.7770490  
C    -4.8653240    0.1561390   -0.2594210  
C    -5.7545770    1.0214330   -1.0722850  
N    -4.9336200    1.6675610   -1.9797930  
C    -7.0975550    1.1262980   -0.9117820  
C    -7.7293940    0.3527480    0.1526260  
O    -8.9288000    0.3843120    0.3801760  
C    -6.8053760   -0.5468610    1.0500470  
O    -7.3036820   -1.1761070    1.9686260  
C    -5.3661710   -0.5917750    0.7549400  
H    -7.7244420    1.7643640   -1.5271760  
H    -4.7543790   -1.2505610    1.3598090  
H    -2.8470200    1.6353170   -2.4547890  
H    -5.2626710    2.2376720   -2.7437310  
C     2.4022120   -1.6823510    2.0025590  
C     1.6596100   -2.0579030    0.9181080  
C     2.4062560   -3.1390070    0.2676160  
C     3.6374660   -3.3373300    1.0680940  
N     3.5765990   -2.4128080    2.0965400  
C     4.5977840   -4.2559370    0.7960660  
C     4.4249390   -5.1107440   -0.3755370  
O     5.2322090   -5.9664180   -0.7021710  
C     3.1381660   -4.9024660   -1.2539420  
O     2.9850280   -5.5852680   -2.2527360  
C     2.1643670   -3.8818740   -0.8403960  
H     5.4902300   -4.3852210    1.4005490  
H     1.2668470   -3.7741980   -1.4390910  
H     2.1644920   -0.9489220    2.7632990  
H     4.2305340   -2.3631890    2.8623660  
