58


C    -0.6840190    1.2821170    0.1770900  
C    -1.7664500    0.4203350    0.0985300  
C    -2.9596410    1.2049460    0.0234910  
C    -2.5204780    2.6201410    0.0451000  
N    -1.1498450    2.5958370    0.1633440  
C    -3.3515540    3.6893930   -0.0596500  
C    -4.7791070    3.4424850   -0.2039410  
O    -5.6041570    4.3333590   -0.3380490  
C    -5.2837070    1.9555930   -0.1676890  
O    -6.4841830    1.7470810   -0.1363160  
C    -4.2869910    0.8584740   -0.0971640  
H    -1.7227620   -0.6526950    0.0178300  
H    -3.0011940    4.7166260   -0.0639020  
H    -0.5117190    3.3789200    0.0892920  
C     1.6343560   -2.3775160    1.2506430  
C     0.6443550   -1.4540580    1.0703630  
C     1.2530060   -0.2598260    0.5480580  
C     2.6941580   -0.5564600    0.4433010  
N     2.8523510   -1.8699420    0.8522450  
C     3.6743080    0.3135090    0.0475540  
C     3.2175930    1.6669040   -0.3191950  
O     3.9432210    2.4951890   -0.8359330  
C     1.7143180    2.0460560   -0.0963840  
O     1.4270940    3.2324100   -0.1996400  
C     0.7323080    0.9856270    0.2109430  
H    -0.3923950   -1.5924010    1.3309360  
H     1.5674880   -3.3824210    1.6459380  
H     3.7470730   -2.3214950    0.9639480  
C     5.9802300   -2.8261560   -2.1484260  
C     4.9866150   -2.0487110   -1.6378810  
C     5.6083620   -1.0584860   -0.7842870  
C     7.0662930   -1.3252960   -0.8461000  
N     7.2184690   -2.4265350   -1.6708870  
C     8.0217420   -0.5892450   -0.2240930  
C     7.5976180    0.5521120    0.5781530  
O     8.3788800    1.2966810    1.1471920  
C     6.0581660    0.8175010    0.7294540  
O     5.6864690    1.6557750    1.5291480  
C     5.1008600   -0.0150230   -0.0500950  
H     3.9335960   -2.1381540   -1.8577600  
H     9.0846590   -0.7921530   -0.3108740  
H     5.9111380   -3.6582380   -2.8368100  
H     8.1061960   -2.7953620   -1.9751750  
C    -3.9051750   -2.5858660    2.7152360  
C    -3.7999500   -1.3742880    2.1102290  
C    -4.5224050   -1.4514690    0.8547310  
C    -5.0692340   -2.8264080    0.7838540  
N    -4.6302210   -3.4727870    1.9257090  
C    -5.8662520   -3.3024560   -0.2084230  
C    -6.2098890   -2.4055370   -1.3010880  
O    -6.9465340   -2.7205140   -2.2233010  
C    -5.5803240   -0.9662320   -1.2994180  
O    -5.7079790   -0.2764310   -2.2928800  
C    -4.7770410   -0.5236020   -0.1220870  
H    -3.2897180   -0.5068220    2.4998590  
H    -6.2779580   -4.3070650   -0.2142690  
H    -3.5164600   -2.9115530    3.6712070  
H    -4.9481280   -4.3829590    2.2202820  
