58


C    -5.9026130   -0.8940430    2.6374500  
C    -6.7551850   -1.4822660    1.7606460  
C    -6.1578970   -1.3809740    0.4448440  
C    -4.8639910   -0.6794660    0.6326990  
N    -4.7647060   -0.4259880    1.9857660  
C    -3.9983470   -0.3461900   -0.3717260  
C    -4.3724510   -0.7705420   -1.7386210  
O    -3.6278240   -0.6318350   -2.6931020  
C    -5.7532370   -1.4871430   -1.9574260  
O    -6.0816290   -1.7905750   -3.0930930  
C    -6.5828690   -1.7701210   -0.7869160  
H    -7.7064000   -1.9370140    1.9953650  
H    -7.5320250   -2.2716070   -0.9490360  
H    -5.9988510   -0.7623690    3.7070810  
H    -4.0229550    0.1079960    2.4113870  
C    -0.3696510   -1.0997390    2.1122500  
C    -1.5798000   -1.1839760    1.5033580  
C    -1.7252960   -0.0189410    0.6511940  
C    -0.4731800    0.7566050    0.8016960  
N     0.3085710    0.0455310    1.6969000  
C    -0.1647150    1.9141600    0.1379540  
C    -1.1763350    2.4026440   -0.8219170  
O    -0.9615410    3.3166540   -1.5970980  
C    -2.5634050    1.6791980   -0.8886950  
O    -3.4708650    2.2241240   -1.4876230  
C    -2.7381710    0.3850850   -0.1793070  
H    -2.2858410   -1.9948330    1.6002070  
H     0.1147380   -1.7997800    2.7803600  
H     1.1450850    0.4128870    2.1245170  
C     3.9952630    0.6081460   -0.4635430  
C     4.6370020    1.7983010   -0.2800310  
C     3.6303690    2.7824250    0.0438100  
C     2.3363950    2.0676810    0.0361420  
N     2.6203120    0.7283520   -0.2353550  
C     1.1139500    2.6345620    0.2396840  
C     1.1157850    4.0782450    0.5975610  
O     0.1109710    4.6551610    0.9663710  
C     2.4780020    4.8601730    0.5845500  
O     2.4628850    6.0610980    0.8040720  
C     3.7046030    4.1140110    0.3167660  
H     5.7051300    1.9592650   -0.2958600  
H     4.6412510    4.6625650    0.3174330  
H     1.9458650    0.1301550   -0.6969090  
C     5.6607620   -0.8245130   -1.5998320  
C     5.9948500   -2.1318970   -1.6750010  
C     5.0486470   -2.8786850   -0.8687640  
C     4.1102130   -1.8816060   -0.3031210  
N     4.5162390   -0.6329130   -0.7993530  
C     3.1080750   -2.1840160    0.5572910  
C     2.9138800   -3.5798500    0.9447020  
O     2.0499170   -3.9225120    1.7381960  
C     3.8641750   -4.6597410    0.3197490  
O     3.7017050   -5.8334430    0.6061150  
C     4.9296770   -4.2001100   -0.5820050  
H     6.8126850   -2.5478490   -2.2455460  
H     2.4456450   -1.4452950    0.9875900  
H     5.6053100   -4.9495580   -0.9824590  
H     6.1114890    0.0366930   -2.0731790  
