60


C    -1.1487780   -4.7370550   -0.2122270  
C    -1.5263500   -3.4177850   -0.1261600  
C    -2.9917150   -3.4222220   -0.0350290  
C    -3.4078890   -4.8449970   -0.0687820  
N    -2.2392620   -5.5792270   -0.1826190  
C    -4.6888810   -5.2853630   -0.0025750  
C    -5.7544180   -4.2927000    0.1152410  
O    -6.9373020   -4.5881420    0.1816820  
C    -5.3400280   -2.7777850    0.1584870  
O    -6.2089810   -1.9298550    0.2874000  
C    -3.9161440   -2.4329040    0.0549890  
H    -4.9635490   -6.3352350   -0.0352100  
H    -3.6333540   -1.3878890    0.0613420  
H    -0.1520430   -5.1510230   -0.2876840  
H    -2.1942700   -6.5861980   -0.2223450  
C    -0.6467530   -2.2762050   -0.1149290  
C     0.7187110   -2.2211560   -0.2734090  
C     1.0781290   -0.8389500   -0.1493730  
C    -0.2141120   -0.1417640    0.1043780  
N    -1.2100980   -0.9833340    0.1041830  
C    -0.3191910    1.3052900    0.3157250  
C     0.8834320    1.9615000    0.3113040  
O     1.0058290    3.2864020    0.5565060  
C     2.1908360    1.3008100    0.0698940  
O     3.1933280    2.0281980    0.1146780  
C     2.2738430   -0.1593470   -0.2127330  
H     1.3949230   -3.0469910   -0.4388790  
H     1.9742600    3.4537890    0.5056780  
C     3.6786550   -1.8240710   -1.4621610  
C     3.5302450   -0.7717900   -0.5866850  
C     4.9202300   -0.4975010   -0.1387770  
C     5.7369550   -1.5131610   -0.8607800  
N     4.9960260   -2.2671980   -1.6377220  
C     7.1582250   -1.6179050   -0.6922710  
C     7.7570970   -0.7669290    0.1769950  
O     9.0721600   -0.7524620    0.4382150  
C     6.9634030    0.2548800    0.9395650  
O     7.5723390    0.9878740    1.7172310  
C     5.5014030    0.3481960    0.7341360  
H     7.7137640   -2.3670370   -1.2453180  
H     9.1984310   -0.0383700    1.1018130  
H     4.9742030    1.1183810    1.2819860  
H     2.8923230   -2.2892740   -2.0435130  
C    -2.6933430    1.3094860    1.1438540  
C    -1.6160170    1.9345380    0.5263560  
C    -2.0862430    3.2590480    0.1504540  
C    -3.4366030    3.3530120    0.5709290  
N    -3.7629080    2.1557430    1.1864440  
C    -4.2389160    4.4754900    0.3446160  
C    -3.6677250    5.5406360   -0.3343950  
O    -4.3997400    6.6644160   -0.5830090  
C    -2.3225940    5.4657260   -0.7763430  
O    -1.8908250    6.5980390   -1.4422270  
C    -1.5362680    4.3506140   -0.5508520  
H    -4.6726140    1.9163040    1.5514140  
H    -5.2725880    4.5343960    0.6695520  
H    -3.8212250    7.2826350   -1.0620660  
H    -0.9600510    6.4897550   -1.6873260  
H    -0.5059520    4.3315670   -0.8879530  
H    -2.7482040    0.3197320    1.5660160  
