64


C    -3.5424420   -0.1399130   -0.1681430  
C    -2.2586110    0.2535990    0.1810260  
C    -2.1087170    1.6249020   -0.1869160  
C    -3.3450590    2.0393750   -0.7509360  
N    -4.1853590    0.9512620   -0.7380690  
C    -3.5683940    3.3455070   -1.2041680  
C    -2.5201120    4.2456650   -1.0942280  
O    -2.6741020    5.5295650   -1.5342210  
C    -1.2743890    3.8494210   -0.5395020  
O    -0.3250060    4.8522190   -0.5233270  
C    -1.0401020    2.5527260   -0.0789360  
H    -1.5301320   -0.3366670    0.7159720  
H    -5.1693970    0.9448350   -0.9634960  
H    -4.5101770    3.6668410   -1.6368830  
H    -1.8190510    5.9768750   -1.4091240  
H     0.5328540    4.4645620   -0.2789220  
C    -1.8062930   -4.1858640    0.1321390  
C    -2.9765980   -4.8793590    0.2916550  
C    -4.0428110   -3.9193540    0.2483410  
C    -3.4477520   -2.6424560    0.0722950  
N    -2.0826560   -2.8369600    0.0159550  
C    -4.1927510   -1.4413340   -0.0328480  
C    -5.5841800   -1.5991130   -0.0001220  
O    -6.4077820   -0.5038030   -0.1288600  
C    -6.1895920   -2.8655240    0.1754090  
O    -7.5739790   -2.8167960    0.1967910  
C    -5.4456100   -4.0211870    0.3120780  
H    -3.0721100   -5.9481630    0.4249090  
H    -1.4157360   -2.1249500   -0.2405870  
H    -7.3217850   -0.8272880   -0.0413430  
H    -7.9239640   -3.6961140    0.4013790  
H    -5.9350770   -4.9835670    0.4461710  
H    -0.7843330   -4.5367880    0.1041470  
C     2.0217470   -0.4447940   -1.4242580  
C     0.9108750    0.3391190   -1.3074480  
C     1.0796520    1.1445570   -0.1274290  
C     2.3247140    0.7929170    0.4472430  
N     2.8997920   -0.1921520   -0.3644370  
C     2.8374990    1.4313680    1.5819240  
C     2.0590960    2.4210000    2.1605850  
O     2.4985450    3.0621960    3.2807390  
C     0.8019960    2.7772090    1.6073730  
O     0.1387390    3.7632390    2.3051940  
C     0.2894960    2.1624170    0.4639860  
H     0.0602150    0.3449350   -1.9737750  
H     3.7833460    1.1647720    2.0360810  
H     1.7866510    3.6617150    3.5652160  
H    -0.7753200    3.8156700    1.9744030  
H     2.2714970   -1.2051600   -2.1497050  
C     6.2015970   -0.8072290   -3.1748610  
C     5.0473430   -0.3965680   -2.5882020  
C     5.0450590   -0.9167020   -1.2368620  
C     6.3078050   -1.6732280   -1.0802710  
N     6.9542380   -1.5803090   -2.2969200  
C     6.7177090   -2.2942000    0.0584340  
C     5.8518020   -2.2275020    1.2211030  
O     6.1357430   -2.7015520    2.3107980  
C     4.4616410   -1.4991470    1.0753970  
O     3.6771680   -1.5453370    2.0044550  
C     4.1490400   -0.8124890   -0.2050470  
H     4.2815750    0.2161140   -3.0384830  
H     7.6611420   -2.8237840    0.1436530  
H     6.5719780   -0.6104840   -4.1720940  
H     7.8691700   -1.9569980   -2.4886430  
