60


C    -1.8228410    0.0382310    1.0269740  
C    -1.0236610    0.8640890    0.2784710  
C    -1.8600780    1.5842570   -0.6514310  
C    -3.1846190    1.1490600   -0.4230810  
N    -3.1341360    0.2042550    0.6024670  
C    -4.2814400    1.6263700   -1.1452750  
C    -4.0264000    2.5739800   -2.1248370  
O    -5.0516610    3.0790420   -2.8561080  
C    -2.6981540    3.0256390   -2.3728760  
O    -2.6173410    3.9613250   -3.3765570  
C    -1.6198590    2.5439200   -1.6551670  
H    -5.2956280    1.2863750   -0.9696180  
H    -4.6805360    3.7233110   -3.4843420  
H    -1.7035550    4.2673090   -3.4785580  
H    -0.6141900    2.9013680   -1.8597950  
H    -1.5845390   -0.6472580    1.8265490  
C     1.2720320   -0.0822720    0.1634270  
C     2.5741760    0.2980060    0.3590470  
C     2.5378490    1.7064890    0.7463480  
C     1.1070350    2.0921390    0.7546020  
N     0.3830540    0.9533950    0.3914350  
C     0.6399510    3.3216310    1.0805490  
C     1.6082940    4.3596500    1.4368740  
O     1.2818390    5.5001650    1.7222000  
C     3.1296140    3.9731510    1.4514220  
O     3.9551220    4.8179780    1.7552410  
C     3.5023410    2.5978750    1.0961340  
H    -0.4152670    3.5709980    1.0933240  
H     4.5547790    2.3407550    1.1536690  
H     0.8907570   -1.0404210   -0.1637600  
C     3.7293180   -0.5568180    0.1904700  
C     3.8364130   -1.9164690    0.3275550  
C     5.1870710   -2.2966640    0.0064870  
C     5.8935430   -1.0395370   -0.3413030  
N     4.9762060   -0.0139370   -0.1594290  
C     7.1826390   -0.9723630   -0.7523250  
C     7.9498150   -2.2155620   -0.8340890  
O     9.1163510   -2.2505570   -1.1926500  
C     7.2336780   -3.5566480   -0.4313160  
O     7.8662270   -4.6010050   -0.4847180  
C     5.8321170   -3.4962170   -0.0198360  
H     3.0574000   -2.5793660    0.6766690  
H     7.6818770   -0.0436970   -1.0118600  
H     5.3426550   -4.4303300    0.2386030  
H     5.0756620    0.8918170   -0.5944120  
C    -5.0102270   -0.0320200    2.1737440  
C    -5.9849830   -0.9328860    2.4340780  
C    -5.8323800   -2.0349950    1.4997770  
C    -4.6668280   -1.7071870    0.6462660  
N    -4.2070590   -0.4738840    1.1072490  
C    -4.1887080   -2.4821580   -0.3547780  
C    -4.8693980   -3.7504090   -0.6225740  
O    -4.5127810   -4.5220860   -1.4973550  
C    -6.1123310   -4.1253140    0.2655860  
O    -6.6933050   -5.1770240    0.0570540  
C    -6.5251870   -3.1885680    1.3189390  
H    -6.7434880   -0.8501270    3.1990540  
H    -3.3352580   -2.2101620   -0.9665500  
H    -7.3843540   -3.4591790    1.9251290  
H    -4.7811430    0.9166860    2.6398140  
