60


C    -0.6705710    1.0917200    0.3398800  
C    -1.7890780    0.3116160    0.0207840  
C    -2.9538550    1.0976900    0.2525710  
C    -2.4983090    2.3711720    0.7046980  
N    -1.1289940    2.3272330    0.7636010  
C    -3.3639240    3.4346290    0.9749010  
C    -4.7122410    3.2122830    0.7470380  
O    -5.6117710    4.2025670    0.9561730  
C    -5.2019700    1.9487670    0.2930410  
O    -6.5627340    1.9162810    0.1504280  
C    -4.3556160    0.8596770    0.0801320  
H    -1.7724660   -0.6530510   -0.4637130  
H    -0.4879680    3.0834980    0.9727420  
H    -3.0194260    4.4066050    1.3107860  
H    -6.4788090    3.8359100    0.6926830  
H    -6.7599550    1.3839350   -0.6598140  
C     1.5171440   -2.7011900   -0.0243190  
C     2.7863500   -2.2209910   -0.0823790  
C     2.7202350   -0.7841560    0.0229240  
C     1.2869840   -0.4593010    0.1200970  
N     0.6039490   -1.6572190    0.0613490  
C     0.7426530    0.8019990    0.2571010  
C     1.7428250    1.8745540    0.3560670  
O     1.4792140    3.0300960    0.6640790  
C     3.2500660    1.5654330    0.0203980  
O     3.9414550    2.5567340   -0.2055980  
C     3.7209350    0.1832600   -0.0033430  
H     3.6789090   -2.8166100   -0.1751720  
H     1.1669760   -3.7241170   -0.0566580  
H    -0.3542850   -1.7551840    0.3613500  
C     7.2565930    1.8313950   -2.1790780  
C     8.2050410    0.9614580   -1.7449460  
C     7.5600390    0.0550910   -0.8234460  
C     6.1313590    0.4660240   -0.7729610  
N     6.0089480    1.5239590   -1.6501300  
C     5.1530180   -0.1583940   -0.0296370  
C     5.6507760   -1.2183580    0.8871530  
O     4.9587880   -1.7259420    1.7544890  
C     7.1388690   -1.7196960    0.7706710  
O     7.4644490   -2.7015690    1.4216850  
C     8.0423750   -0.9971240   -0.1065730  
H     9.2473640    0.9448350   -2.0281990  
H     9.0738960   -1.3293730   -0.1701830  
H     7.3544180    2.6696050   -2.8567420  
H     5.2582850    2.1959290   -1.5127060  
C    -3.4325140   -3.0510620    1.8420090  
C    -4.1385460   -3.8674070    1.0190330  
C    -4.8155930   -3.0227110    0.0560150  
C    -4.4286130   -1.6274500    0.3831540  
N    -3.5899650   -1.7185250    1.4695020  
C    -4.8525490   -0.4914330   -0.2722770  
C    -5.8615840   -0.7267660   -1.3054100  
O    -6.5092730    0.1711550   -1.8467570  
C    -6.1926560   -2.1972210   -1.7599990  
O    -6.9109520   -2.3503080   -2.7337930  
C    -5.6491430   -3.3039440   -0.9801910  
H    -4.2059950   -4.9436690    1.0806320  
H    -5.9213650   -4.3143070   -1.2677000  
H    -2.8169290   -3.2993510    2.6967600  
H    -3.1446180   -0.9222910    1.9014000  
