60


C     0.8017760   -1.1117690    0.5533340  
C     2.1419920   -1.2814540    0.4097800  
C     2.6864990   -0.0503360   -0.1027230  
C     1.6062780    0.8555640   -0.2474280  
N     0.4433870    0.1901120    0.1731470  
C     1.7573370    2.1437870   -0.7689540  
C     3.0440030    2.5389000   -1.1102830  
O     3.2489030    3.7787950   -1.6319680  
C     4.1389640    1.6642310   -0.9301420  
O     5.3664260    2.2183760   -1.2850120  
C     4.0017490    0.3660860   -0.4319050  
H     2.6846320   -2.1879590    0.6282750  
H     0.9288640    2.8145990   -0.9593950  
H     4.1875970    3.8298350   -1.8859720  
H     5.9280990    1.5169590   -1.6571630  
H     0.0421770   -1.7822640    0.9255310  
C    -0.8501880    0.6705840    0.2214250  
C    -2.0272390   -0.0157570    0.0924360  
C    -3.0995330    0.9202290    0.3027370  
C    -2.4577330    2.2304370    0.5586100  
N    -1.0840830    2.0289330    0.4487360  
C    -3.1155120    3.3824640    0.8266880  
C    -4.5755250    3.3510030    0.8413440  
O    -5.2577740    4.3406300    1.0519250  
C    -5.2892350    1.9786470    0.5747720  
O    -6.5010440    1.9240390    0.6954690  
C    -4.4649780    0.7886030    0.2629920  
H    -2.1273580   -1.0528880   -0.1871550  
H    -2.6172050    4.3315310    0.9988310  
H    -0.4059140    2.6269830    0.8996550  
C    -4.4708420   -3.2563940    2.1545440  
C    -4.2247360   -1.9561980    1.8502800  
C    -5.0085910   -1.6297510    0.6745970  
C    -5.7482690   -2.8660060    0.3217060  
N    -5.3580410   -3.8196420    1.2435240  
C    -6.6402190   -2.9792090   -0.6962640  
C    -6.8928670   -1.8060820   -1.5196110  
O    -7.6986380   -1.7902110   -2.4375880  
C    -6.0713020   -0.5009630   -1.2179040  
O    -6.1600870    0.4338290   -1.9921320  
C    -5.1616240   -0.4721890   -0.0392250  
H    -3.5744720   -1.2844930    2.3893430  
H    -7.1864370   -3.8918160   -0.9141190  
H    -4.0808980   -3.8572630    2.9656250  
H    -5.7529200   -4.7444450    1.3113550  
C     7.8477960    1.0080590    1.6468590  
C     8.4123700   -0.2137470    1.4789500  
C     7.4793310   -1.0162950    0.7162250  
C     6.3039820   -0.1452830    0.4529920  
N     6.5776240    1.0568880    1.0746300  
C     5.1807540   -0.5144430   -0.2460980  
C     5.1890670   -1.8855660   -0.8025680  
O     4.2896260   -2.3247360   -1.4994030  
C     6.4095240   -2.8325910   -0.4950950  
O     6.3709560   -3.9791810   -0.9114790  
C     7.5293290   -2.3009320    0.2758240  
H     9.3735500   -0.5370260    1.8509510  
H     8.3688690   -2.9597690    0.4749850  
H     8.2365190    1.8804080    2.1556320  
H     6.0816270    1.9094840    0.8574720  
