58


C    -0.9577630   -1.0693190   -0.1826660  
C    -1.1417060   -2.4320430   -0.1975660  
C    -2.5531430   -2.6754110   -0.1954430  
C    -3.2155080   -1.3387990   -0.1709180  
N    -2.1966210   -0.4259920   -0.1302100  
C    -4.5847180   -1.1294330   -0.1298890  
C    -5.3947610   -2.3551150   -0.1323170  
O    -6.6214920   -2.3647020   -0.0412340  
C    -4.7095830   -3.7701770   -0.2246110  
O    -5.4323810   -4.7542380   -0.2730540  
C    -3.2609870   -3.8397960   -0.2183960  
H    -0.3681810   -3.1861110   -0.2106470  
H    -2.7896980   -4.8170350   -0.2466510  
H    -2.2956880    0.5453840   -0.4009720  
C     0.2405700   -0.2793700   -0.2172270  
C     1.5543550   -0.6853640   -0.2481760  
C     2.3327600    0.5237260   -0.2819610  
C     1.3182770    1.6107420   -0.2510890  
N     0.1020890    1.1404430   -0.2212570  
C     1.6828570    3.0033620   -0.2398900  
C     3.0008150    3.3025410   -0.2256630  
O     3.4849060    4.5534400   -0.1883400  
C     4.0627990    2.2356040   -0.2439420  
O     5.2297710    2.6244280   -0.2199220  
C     3.6856960    0.7890100   -0.3166520  
H     1.9252660   -1.6991740   -0.2165470  
H     0.9146510    3.7682560   -0.2287620  
H     4.4623180    4.4626110   -0.1947580  
C     4.5483510   -1.3867300   -1.2151640  
C     4.7029480   -0.2225680   -0.4920140  
C     6.0886840   -0.3206000    0.0275740  
C     6.5724390   -1.6351050   -0.4902890  
N     5.6620030   -2.2309960   -1.2245480  
C     7.8783860   -2.1464690   -0.1959970  
C     8.6844580   -1.3993980    0.5991940  
O     9.9232170   -1.7502860    0.9598140  
C     8.2259420   -0.0777560    1.1557820  
O     9.0054670    0.5385030    1.8769730  
C     6.8756180    0.4283630    0.8232680  
H     8.1873740   -3.1040770   -0.5995640  
H    10.2513150   -1.0226250    1.5337220  
H     6.6018130    1.3950250    1.2256730  
H     3.6794110   -1.6659470   -1.7986750  
C    -8.0523230    0.5040000    2.1406920  
C    -7.9918890    1.8017700    1.7516420  
C    -6.8950080    1.9124850    0.8166580  
C    -6.3026480    0.5492780    0.7073340  
N    -7.0268160   -0.2450700    1.5692580  
C    -5.2133830    0.2121270   -0.0728810  
C    -4.6858220    1.3133060   -0.9005230  
O    -3.7546820    1.1758830   -1.6863840  
C    -5.3001300    2.7606900   -0.7904950  
O    -4.8024530    3.6457330   -1.4685490  
C    -6.4128030    2.9740710    0.1192640  
H    -8.6367030    2.6069850    2.0721470  
H    -6.8280680    3.9736200    0.2008690  
H    -8.7497490    0.0205570    2.8123870  
H    -7.0941520   -1.2419860    1.3788240  
