60


C    -1.7427250    0.1157380    0.8645640  
C    -1.2019400    1.2531780    0.3003670  
C    -2.3259590    2.1068560   -0.0669440  
C    -3.5103460    1.4291800    0.3015930  
N    -3.1196410    0.2233930    0.8869650  
C    -4.7967530    1.9206510    0.0749410  
C    -4.8978780    3.1494620   -0.5602530  
O    -6.1231230    3.6871190   -0.8107280  
C    -3.7277840    3.8485500   -0.9535030  
O    -3.9847210    5.0527010   -1.5771300  
C    -2.4596730    3.3468560   -0.7227580  
H    -5.6920070    1.3801360    0.3612220  
H    -5.9797890    4.5368180   -1.2627170  
H    -3.1482700    5.4857080   -1.8035420  
H    -1.5847580    3.9134430   -1.0200030  
H    -1.2594790   -0.7733560    1.2342120  
C     1.9370990   -1.6837060   -0.4659680  
C     3.0663770   -0.9281240   -0.5372400  
C     2.5868010    0.4525930   -0.3193490  
C     1.1139580    0.3119080   -0.1272750  
N     0.7530990   -0.9367740   -0.2254710  
C     0.2347010    1.4595760    0.1142420  
C     0.8659800    2.6747600    0.1483450  
O     0.2377660    3.8437870    0.4086580  
C     2.3245750    2.8433260   -0.0805430  
O     2.7926020    3.9842580   -0.0307970  
C     3.1751340    1.6599940   -0.3313180  
H     0.9533340    4.5187980    0.3819130  
H     4.2340610    1.8340280   -0.4933320  
H     1.8606130   -2.7606650   -0.5590400  
C     4.7581670   -2.2655480   -1.8225770  
C     4.4192030   -1.3675870   -0.8479660  
C     5.6685960   -1.0000720   -0.1805600  
C     6.7468380   -1.7583400   -0.8638930  
N     6.1208460   -2.5151570   -1.8366460  
C     8.0631760   -1.6861380   -0.5444990  
C     8.4637000   -0.8166420    0.5589880  
O     9.6240000   -0.6804220    0.9132960  
C     7.3364830   -0.0334090    1.3244170  
O     7.6434270    0.6804970    2.2650040  
C     5.9477720   -0.1914340    0.8746130  
H     8.8344780   -2.2502140   -1.0599180  
H     5.1828910    0.3518400    1.4197240  
H     4.1095010   -2.7518850   -2.5392430  
H     6.5977040   -3.0924230   -2.5119190  
C    -4.5329150   -0.7904700    2.6189670  
C    -5.3401440   -1.8698850    2.7484370  
C    -5.3158620   -2.5923390    1.4897140  
C    -4.4153000   -1.8366200    0.5871630  
N    -3.9687210   -0.7490610    1.3355630  
C    -4.1159950   -2.1827610   -0.6868240  
C    -4.7258000   -3.3991690   -1.2244800  
O    -4.5168080   -3.8030420   -2.3572100  
C    -5.6904180   -4.2212450   -0.2912500  
O    -6.2080690   -5.2380310   -0.7247490  
C    -5.9268870   -3.7311190    1.0709060  
H    -5.9009810   -2.1469600    3.6293240  
H    -3.4466520   -1.6090120   -1.3186830  
H    -6.5920670   -4.3081720    1.7061580  
H    -4.2813560   -0.0079340    3.3218740  
