60


C     1.0020640   -1.1962810   -1.2543640  
C     0.3685010   -0.3063080   -0.3983190  
C     1.3970660    0.6090160    0.0599860  
C     2.6094790    0.2130760   -0.5521180  
N     2.3330900   -0.8773850   -1.3546350  
C     3.8519220    0.8403000   -0.3196780  
C     3.8346640    1.9032180    0.5832270  
O     4.9844910    2.5795740    0.8540260  
C     2.6277700    2.3123740    1.2108170  
O     2.7911000    3.3846040    2.0636320  
C     1.4217050    1.6888730    0.9641870  
H     3.0235730   -1.3821420   -1.8890180  
H     4.7577630    3.2954270    1.4742900  
H     1.9237250    3.7234170    2.3319770  
H     0.5116460    2.0458380    1.4339260  
H     0.5781320   -1.9835780   -1.8621830  
C    -2.2736540   -3.6985650    0.3968580  
C    -3.4587770   -3.0458180    0.5605930  
C    -3.1920260   -1.6352960    0.4178840  
C    -1.7488650   -1.5103470    0.1438380  
N    -1.2548890   -2.8073180    0.1151410  
C    -1.0526780   -0.3451480   -0.0539930  
C    -1.8569860    0.8903060    0.0504630  
O    -1.3988270    2.0049730   -0.1342400  
C    -3.3912950    0.7969460    0.4071720  
O    -3.9972290    1.8354350    0.6093590  
C    -4.0039520   -0.5317210    0.5151060  
H    -4.4203610   -3.5016650    0.7425650  
H    -2.0669290   -4.7599120    0.4394350  
H    -0.2666030   -3.0147300    0.1277690  
C    -5.8627010   -1.2389580    2.0219580  
C    -7.2131390   -1.1537300    2.0981330  
C    -7.6687560   -0.4524440    0.9169650  
C    -6.4510550   -0.1278000    0.1345910  
N    -5.3685660   -0.6362680    0.8568760  
C    -6.4634550    0.5013500   -1.0654420  
C    -7.7518930    0.9091300   -1.6235030  
O    -7.8586730    1.4703300   -2.7030510  
C    -9.0528870    0.5965640   -0.7983250  
O   -10.1365110    0.9356460   -1.2480620  
C    -8.9073860   -0.1059840    0.4783200  
H    -7.8344670   -1.5276850    2.8991560  
H    -5.5676090    0.7308590   -1.6306980  
H    -9.8114830   -0.3364520    1.0337980  
H    -5.1593830   -1.6740430    2.7193860  
C     5.2849590    0.3251420   -2.3479070  
C     5.0851570    0.4051240   -1.0005300  
C     6.3282810   -0.0482450   -0.3767890  
C     7.2543650   -0.3926840   -1.4824550  
N     6.5518260   -0.1647520   -2.6507300  
C     8.5235400   -0.8433330   -1.3125560  
C     9.0185510   -1.0201340    0.0491120  
O    10.1430040   -1.4238040    0.3041390  
C     8.0451260   -0.6808470    1.2377700  
O     8.4343120   -0.8376050    2.3839480  
C     6.6991470   -0.1891960    0.9203680  
H     9.1876310   -1.0853140   -2.1367500  
H     6.0430660    0.0623710    1.7464300  
H     4.6097610    0.6035750   -3.1472260  
H     6.9512270   -0.2005960   -3.5756460  
