60


C    -0.2166710    0.8956870   -0.7243780  
C     0.2847830   -0.3370930   -1.1539140  
C    -0.8179950   -1.2202670   -1.3064460  
C    -1.9893080   -0.4875090   -0.9596760  
N    -1.5917460    0.7764020   -0.6112280  
C    -3.2906170   -1.0337450   -0.9898540  
C    -3.3735760   -2.3691460   -1.3910100  
O    -4.5886650   -2.9747060   -1.4822170  
C    -2.2104860   -3.1195840   -1.7320980  
O    -2.4936340   -4.4190070   -2.1008670  
C    -0.9472420   -2.5704200   -1.7007760  
H     1.3087620   -0.5580890   -1.4193060  
H    -2.1702550    1.5644020   -0.3495410  
H    -4.4366100   -3.8906710   -1.7757860  
H    -1.6754830   -4.8758100   -2.3461750  
H    -0.0764170   -3.1639120   -1.9701400  
C     4.0024150    1.8468710    0.1097610  
C     3.8980960    3.2185660    0.1610670  
C     2.5174480    3.5583990   -0.0354690  
C     1.8024140    2.2802600   -0.2296010  
N     2.7514680    1.2919630   -0.1547150  
C     0.4447610    2.1525400   -0.4445320  
C    -0.3261870    3.4116700   -0.3535820  
O    -1.5522570    3.4526100   -0.3620690  
C     0.4342040    4.7877820   -0.2324100  
O    -0.2376020    5.8097330   -0.2803900  
C     1.8706720    4.7657780   -0.0586280  
H     4.7065760    3.9153640    0.3288770  
H     2.3899670    5.7120390    0.0515240  
H     2.5816340    0.2991430   -0.0742440  
C     5.1224630    0.9624980    0.2803570  
C     6.4391040    1.2443730    0.5251870  
C     7.0965160   -0.0379920    0.6083100  
C     5.9976010   -1.0370240    0.3851610  
N     4.8525880   -0.4488530    0.1941230  
C     6.2511360   -2.4531100    0.3947220  
C     7.5245520   -2.8601160    0.6115450  
O     7.9090780   -4.1400590    0.6469470  
C     8.6552160   -1.8775170    0.8386490  
O     9.7757420   -2.3482530    1.0261410  
C     8.3720590   -0.4376390    0.8260200  
H     6.9017990    2.2150280    0.6348960  
H     5.4408170   -3.1550150    0.2332960  
H     8.8773940   -4.1191730    0.8214020  
H     9.2060480    0.2366350    0.9936190  
C    -4.7483610    1.0297920   -1.0917660  
C    -4.4723410   -0.2283810   -0.6369770  
C    -5.5436510   -0.5647940    0.3016120  
C    -6.4555740    0.6058100    0.3356360  
N    -5.9201610    1.5290110   -0.5392570  
C    -7.5742280    0.6929030    1.1004540  
C    -7.9148730   -0.4343140    1.9604360  
O    -8.9004740   -0.4523050    2.6829560  
C    -6.9561820   -1.6809910    1.9517860  
O    -7.2174590   -2.6329270    2.6707590  
C    -5.7786870   -1.6533240    1.0773520  
H    -8.2251430    1.5618470    1.1077250  
H    -5.1360960   -2.5257970    1.0708810  
H    -4.1953200    1.6286570   -1.8039550  
H    -6.2853260    2.4552150   -0.6972570  
