58


C    -4.5482180   -0.3619230    0.0393860  
C    -4.0847330    0.8511370   -0.4491150  
C    -5.1381790    1.8124010   -0.3406030  
C    -6.2912360    1.0899720    0.2536920  
N    -5.8668420   -0.2012070    0.4650090  
C    -7.4966230    1.6599660    0.5099030  
C    -7.6818000    3.0725130    0.1901150  
O    -8.7302380    3.6686230    0.3886900  
C    -6.4718920    3.8584460   -0.4374590  
O    -6.6112170    5.0444470   -0.7063170  
C    -5.2269640    3.1351130   -0.6712840  
H    -3.1275910    1.0275870   -0.9115960  
H    -8.3314610    1.1170480    0.9418470  
H    -4.3997350    3.6864500   -1.1089980  
H    -6.4234540   -1.0009350    0.7443030  
C    -0.2344950   -1.6058810   -0.1159360  
C    -1.4324480   -0.8859560   -0.0481100  
C    -2.5082810   -1.8092710    0.0128360  
C    -1.8851830   -3.1524420   -0.0144490  
N    -0.5254680   -2.9555020   -0.1202880  
C    -2.5587600   -4.3277620    0.0552810  
C    -4.0044930   -4.2766300    0.2106210  
O    -4.7086490   -5.2713210    0.2669840  
C    -4.6916680   -2.8708020    0.3298940  
O    -5.8885910   -2.8661780    0.6033950  
C    -3.8924120   -1.6495700    0.1158630  
H    -1.5177310    0.1759890    0.1130150  
H    -2.0742520   -5.2977600    0.0121070  
H     0.2105280   -3.6518270   -0.0614560  
C     1.4813370    2.2857500   -1.2482220  
C     2.7826670    2.0481880   -0.9598640  
C     2.8733580    0.6917640   -0.4546380  
C     1.5009590    0.1564180   -0.4673190  
N     0.7041070    1.1677210   -0.9236860  
C     1.1294090   -1.1433720   -0.1369990  
C     2.2404870   -2.0620340    0.1394780  
O     2.1191890   -3.2776930    0.2420890  
C     3.6683770   -1.4673200    0.3563400  
O     4.4860980   -2.1493780    0.9397670  
C     3.9514810   -0.0690370   -0.0743540  
H     3.6057790    2.7324490   -1.0952450  
H     1.0077080    3.1659570   -1.6604970  
H    -0.2505320    1.0270440   -1.2224320  
C     6.0188460    3.3793950    1.9007830  
C     5.0819250    2.4993870    1.4491670  
C     5.7644800    1.5198460    0.6382860  
C     7.1988280    1.9007310    0.6620390  
N     7.2773830    3.0495350    1.4293170  
C     8.2006420    1.2118720    0.0602790  
C     7.8597500   -0.0031530   -0.6724320  
O     8.6915040   -0.7092200   -1.2169470  
C     6.3477930   -0.4044890   -0.7717320  
O     6.0338890   -1.3218880   -1.5075590  
C     5.3374720    0.3940240   -0.0265620  
H     4.0261100    2.5297670    1.6697490  
H     9.2447670    1.5039330    0.1153650  
H     5.8912630    4.2428420    2.5403950  
H     8.1358820    3.5148060    1.6808220  
