62


C     0.5634380   -1.0487050   -1.0157870  
C    -0.1040770   -0.0518770   -0.3404230  
C     0.9124780    0.7303160    0.3285890  
C     2.1671530    0.1601210    0.0010500  
N     1.9220480   -0.9155380   -0.8236220  
C     3.3991180    0.6450380    0.5098380  
C     3.2992150    1.7119060    1.4153710  
O     4.4235830    2.2441400    1.9828720  
C     2.0494990    2.2848420    1.7545660  
O     2.1529610    3.3262880    2.6538920  
C     0.8637260    1.8155270    1.2243230  
H     2.6216250   -1.5845270   -1.1075330  
H     4.1394180    2.9952710    2.5354910  
H     1.3058290    3.7911640    2.7244860  
H    -0.0835040    2.2662090    1.5080440  
H     0.1704060   -1.8300800   -1.6506620  
C    -2.4918630   -0.8317010   -0.0747500  
C    -1.5547240    0.1319550   -0.2942030  
C    -2.2964720    1.3700220   -0.5215730  
C    -3.7352510    1.0285940   -0.3934310  
N    -3.7995990   -0.3262190   -0.1367130  
C    -4.7517080    1.9312520   -0.5180400  
C    -4.4174700    3.3241280   -0.8027300  
O    -5.2558030    4.2072460   -0.8971040  
C    -2.9021370    3.6939030   -0.9888770  
O    -2.5979670    4.8452680   -1.2553550  
C    -1.8999970    2.6340070   -0.8179660  
H    -5.7924470    1.6806430   -0.3333680  
H    -0.8559910    2.9054420   -0.9374670  
H    -2.3515530   -1.8837760    0.1325380  
C    -5.2456120   -3.0063450    3.0902380  
C    -4.5148220   -2.1010060    2.3653300  
C    -5.2102600   -1.9023120    1.1247660  
C    -6.3716960   -2.7196540    1.1574850  
N    -6.3614480   -3.3825550    2.3667590  
C    -7.3085680   -2.7592630    0.1182340  
C    -7.0676970   -1.9584120   -0.9877300  
O    -7.9431000   -1.9520030   -2.0286620  
C    -5.9030290   -1.1484470   -1.0679420  
O    -5.7556850   -0.4747540   -2.2626440  
C    -4.9780100   -1.1179120   -0.0265270  
H    -3.5980430   -1.6259830    2.6842760  
H    -7.0722460   -4.0234830    2.6832290  
H    -8.2021740   -3.3735640    0.1527670  
H    -7.5948910   -1.3185590   -2.6826430  
H    -5.3689620    0.4073120   -2.1121450  
H    -5.0652840   -3.4171260    4.0734540  
C     4.6765970    0.0671910    0.1085330  
C     5.0031680   -0.6159660   -1.0424110  
C     6.3915050   -0.9862360   -0.9661970  
C     6.8800140   -0.4675440    0.3359910  
N     5.7968590    0.1332470    0.9403980  
C     8.1555190   -0.5968080    0.7819170  
C     9.1194450   -1.2947130   -0.0638490  
O    10.2878440   -1.4591680    0.2543760  
C     8.6216620   -1.8600280   -1.4455260  
O     9.4163190   -2.4521440   -2.1615210  
C     7.2225860   -1.6531940   -1.8150780  
H     4.3673460   -0.7578230   -1.9037830  
H     8.4958090   -0.2090430    1.7371770  
H     6.8924370   -2.0436420   -2.7731570  
H     5.8316180    0.7279450    1.7555740  
