60


C     0.7662460   -0.9754920    0.1104990  
C     2.0423160   -0.4337690    0.0180660  
C     2.9814270   -1.4832150    0.2358800  
C     2.2288300   -2.6705960    0.4522930  
N     0.8940070   -2.3400670    0.3479060  
C     2.8161980   -3.9155360    0.6898700  
C     4.2015690   -3.9762320    0.6978200  
O     4.8228320   -5.1568960    0.9441030  
C     4.9859040   -2.8150930    0.4570960  
O     6.3341050   -3.0461790    0.5133130  
C     4.4072060   -1.5623490    0.2265280  
H     2.2554380    0.5873230   -0.2636150  
H     0.1376490   -2.9340170    0.6533880  
H     2.2390340   -4.8173820    0.8647870  
H     5.7826980   -4.9923770    0.9337690  
H     6.8063640   -2.1926410    0.5579320  
C    -0.8389240    0.9759610    0.2003620  
C    -0.5151070   -0.3346080   -0.0207800  
C    -1.7895950   -0.9547560   -0.4578440  
C    -2.7670090    0.1591980   -0.4078880  
N    -2.1968040    1.2746730   -0.0374750  
C    -4.1621800   -0.0350730   -0.7623070  
C    -4.5258470   -1.2733650   -1.2204280  
O    -5.7694470   -1.5783180   -1.6335280  
C    -3.5556230   -2.3916120   -1.3046460  
O    -3.9538290   -3.4780430   -1.7318110  
C    -2.1455160   -2.1712820   -0.9083770  
H    -5.7288730   -2.5245960   -1.8973510  
H    -1.4711720   -3.0131510   -1.0311350  
H    -0.1844470    1.7663930    0.5452980  
C    -4.8117830    2.3494920   -1.0453200  
C    -5.8594310    3.1644340   -0.7790810  
C    -6.8741830    2.3746290   -0.1195810  
C    -6.3294520    0.9982290   -0.0229170  
N    -5.0671110    1.0309100   -0.6294060  
C    -6.9645030   -0.0230500    0.6014840  
C    -8.2864860    0.2269520    1.1794320  
O    -8.9238150   -0.6385200    1.7587210  
C    -8.8989720    1.6661600    1.0472920  
O   -10.0075780    1.8844450    1.5100510  
C    -8.0964030    2.6933830    0.3812360  
H    -5.9221150    4.2175420   -1.0123900  
H    -6.5593500   -1.0225550    0.6864590  
H    -8.5067550    3.6970190    0.3245750  
H    -3.8632440    2.5741710   -1.5079320  
C     5.2529450   -0.3893670    0.0498760  
C     6.4816070   -0.2608880   -0.5605630  
C     6.9117040    1.1098930   -0.4236580  
C     5.8473740    1.7963620    0.3471970  
N     4.8567600    0.8511420    0.5604250  
C     5.8948500    3.0941800    0.7346720  
C     7.0568610    3.8917770    0.3437350  
O     7.1839820    5.0684700    0.6431160  
C     8.1794550    3.1958900   -0.5098420  
O     9.1512410    3.8510750   -0.8535480  
C     8.0171460    1.7806160   -0.8476560  
H     6.9647190   -1.0106740   -1.1725840  
H     5.1101240    3.5782120    1.3080790  
H     8.8070140    1.3068250   -1.4226530  
H     4.1212650    0.9497750    1.2452010  
