58


C    -6.3179910   -1.8711840   -0.7424450  
C    -7.4388850   -1.1939580   -1.0842470  
C    -7.2225800    0.1992050   -0.7622790  
C    -5.8563440    0.2803160   -0.1840340  
N    -5.3329320   -1.0076280   -0.2238710  
C    -5.3034340    1.4275890    0.2978640  
C    -6.0732290    2.6666590    0.2087360  
O    -5.6477380    3.7394200    0.6101330  
C    -7.5022870    2.6067170   -0.4398160  
O    -8.1463630    3.6377370   -0.5505130  
C    -8.0047240    1.3032420   -0.8824860  
H    -8.3358610   -1.6180220   -1.5116330  
H    -4.3387380    1.4670080    0.7910330  
H    -9.0095240    1.2646870   -1.2922730  
H    -6.0989390   -2.9256430   -0.8127960  
C    -1.3657460    0.5961340   -1.0563960  
C    -0.6056830   -0.2514240   -0.3018500  
C    -1.5429210   -1.2070970    0.3040580  
C    -2.8923830   -0.8112880   -0.1638150  
N    -2.7131030    0.2594940   -1.0067190  
C    -4.0567880   -1.4281290    0.2107990  
C    -3.9590440   -2.5964810    1.0940850  
O    -4.9310660   -3.2524850    1.4346700  
C    -2.5332470   -3.0187790    1.6004990  
O    -2.4518890   -3.9710190    2.3570300  
C    -1.3673430   -2.2605690    1.1411250  
H    -0.3922400   -2.5906550    1.4761550  
H    -1.0425920    1.4209580   -1.6766430  
H    -3.4634100    0.8211490   -1.3825830  
C     2.1310160    3.1643770    0.3766140  
C     1.0395640    2.3611460    0.2498800  
C     1.5192040    1.0166560    0.0368460  
C     3.0015110    1.1168160    0.0279090  
N     3.3044170    2.4529320    0.1926880  
C     3.8696170    0.0639980   -0.1395030  
C     3.2265290   -1.2691190   -0.0768220  
O     3.8392120   -2.2962990    0.1519870  
C     1.6732080   -1.3857280   -0.2555490  
O     1.2129600   -2.4934600   -0.4836910  
C     0.8478780   -0.1725820   -0.1425300  
H     0.0081750    2.6679830    0.3330750  
H     2.1749840    4.2256170    0.5846680  
H     4.2159320    2.7018750    0.5921860  
C     7.0473550    2.5551590    1.8127580  
C     8.1648250    1.9224920    1.3955420  
C     7.7009300    0.8825520    0.4859110  
C     6.2035910    1.0103880    0.4975690  
N     5.8462070    2.0081090    1.2607130  
C     5.3360030    0.1235710   -0.2663580  
C     5.9952990   -0.7201560   -1.1280930  
O     5.3720660   -1.5040190   -2.0092260  
C     7.4922110   -0.8466910   -1.1813950  
O     7.9671690   -1.6531410   -1.9786720  
C     8.3266990   -0.0067470   -0.3055850  
H     9.1922050    2.1363730    1.6542960  
H     6.0786760   -2.0260230   -2.4520220  
H     9.4035100   -0.1282460   -0.3688660  
H     6.9640440    3.3962010    2.4900210  
