58


C     0.5181760    0.5651330   -1.6274200  
C     1.8543570    0.4612500   -1.4109770  
C     2.0631280    0.1754850   -0.0096210  
C     0.7246610    0.1418050    0.6078550  
N    -0.1815480    0.3373250   -0.4375450  
C     0.4537340   -0.0529080    1.9212850  
C     1.5862700   -0.2215060    2.8198070  
O     1.4750500   -0.4346090    4.0146990  
C     3.0311790   -0.1109880    2.2153560  
O     3.9644380   -0.0793240    3.0045450  
C     3.2072450   -0.0322520    0.7407630  
H     2.6203250    0.6125880   -2.1545040  
H    -0.5505020   -0.0881840    2.3288960  
H    -0.0322490    0.7889260   -2.5310280  
C    -2.4562320   -0.5520410   -0.3916340  
C    -3.7325800   -0.0837420   -0.2998520  
C    -3.6357690    1.3736440   -0.1218360  
C    -2.1942750    1.7058610   -0.1157550  
N    -1.5289420    0.4858640   -0.2786940  
C    -1.6686280    2.9443330    0.0187400  
C    -2.5954670    4.0654690    0.1925720  
O    -2.2243440    5.2199750    0.3143720  
C    -4.1309440    3.7438690    0.2282430  
O    -4.9250170    4.6529370    0.3944320  
C    -4.5621680    2.3468040    0.0552170  
H    -0.6030080    3.1474480    0.0154580  
H    -5.6282780    2.1549820    0.0538790  
H    -2.1029260   -1.5617780   -0.5502170  
C     4.5348830   -0.1576250    0.1657710  
C     4.9021490   -0.5178390   -1.1171030  
C     6.3359630   -0.5577080   -1.1740970  
C     6.8117810   -0.1966110    0.1840960  
N     5.6816070    0.0468740    0.9337700  
C     8.1190060   -0.1376750    0.5441600  
C     9.1321660   -0.4426960   -0.4627380  
O    10.3312280   -0.4151700   -0.2323110  
C     8.6497070   -0.8228980   -1.9109770  
O     9.4824230   -1.0789860   -2.7673790  
C     7.2100650   -0.8556010   -2.1771120  
H     4.2373900   -0.7991730   -1.9186210  
H     8.4506580    0.1260600    1.5434180  
H     6.8876800   -1.1224420   -3.1791560  
H     5.6300380    0.1681030    1.9372150  
C    -4.8655340   -3.9935040    1.5311910  
C    -4.1855910   -2.8550510    1.2518090  
C    -5.0303210   -2.1277260    0.3095880  
C    -6.2231260   -3.0132360    0.1422650  
N    -6.1177720   -4.1016400    0.8502230  
C    -7.3279790   -2.6500710   -0.7065560  
C    -7.2607910   -1.4643760   -1.3534580  
O    -8.2217810   -0.9958290   -2.1653590  
C    -6.0712090   -0.5533460   -1.2216130  
O    -6.0851240    0.4878100   -1.8735010  
C    -4.9221130   -0.9385320   -0.3432340  
H    -3.2396680   -2.5318490    1.6618140  
H    -8.1793440   -3.3142830   -0.8037740  
H    -7.8953500   -0.1338210   -2.5020930  
H    -4.5736110   -4.7943120    2.2000570  
