64


C    -3.6608200   -0.6162310   -0.2746180  
C    -4.6217540    0.2225900   -0.7967310  
C    -4.0662600    1.5413900   -0.8728570  
C    -2.7331520    1.4582790   -0.3980740  
N    -2.4897390    0.1318870   -0.0768080  
C    -1.8728600    2.5707930   -0.2861180  
C    -2.4431970    3.7949570   -0.6370090  
O    -1.7030920    4.9546860   -0.4971710  
C    -3.7638830    3.9013390   -1.1286760  
O    -4.1326300    5.1951380   -1.4450470  
C    -4.5771900    2.7919020   -1.2685900  
H    -5.6030110   -0.0834190   -1.1294110  
H    -1.7701760   -0.1412590    0.5800160  
H    -2.2646740    5.6907040   -0.8024940  
H    -5.0526940    5.2091180   -1.7474330  
H    -5.5921000    2.8923560   -1.6466110  
C    -6.9585700   -3.2872630    1.1716470  
C    -6.2191690   -2.2026170    0.7762850  
C    -4.9041190   -2.6797440    0.4496330  
C    -4.9085320   -4.0806970    0.6797770  
N    -6.1740960   -4.4227240    1.1096750  
C    -3.7809880   -4.8893710    0.4990840  
C    -2.6184900   -4.2662250    0.0766050  
O    -1.4889480   -5.0040090   -0.1288760  
C    -2.5818360   -2.8686360   -0.1603790  
O    -1.3381230   -2.4234740   -0.5763140  
C    -3.7042250   -2.0507670    0.0121190  
H    -6.5659260   -1.1806550    0.7461780  
H    -6.4699220   -5.3524630    1.3617370  
H    -3.7861870   -5.9605530    0.6724570  
H    -0.8092360   -4.3885080   -0.4552070  
H    -1.4118410   -1.5438860   -0.9852660  
H    -7.9873680   -3.3474340    1.4975450  
C     1.4289720   -0.1323560   -1.6003180  
C     0.2724270    0.5785350   -1.5010850  
C     0.4001700    1.4718620   -0.3747070  
C     1.6901290    1.2720650    0.1709250  
N     2.3180780    0.2728910   -0.5957490  
C     2.1556040    1.9806190    1.2841600  
C     1.3166410    2.9611230    1.7972260  
O     1.7226450    3.7125430    2.8524350  
C     0.0278340    3.1968240    1.2514780  
O    -0.6792820    4.1876340    1.8893970  
C    -0.4755610    2.4313970    0.1972120  
H    -0.5624560    0.5236100   -2.1851570  
H     3.1132910    1.7995050    1.7557490  
H     0.9958720    4.3400830    3.0295640  
H    -1.1301770    4.7254180    1.2021730  
H     1.7493450   -0.8610890   -2.3293640  
C     3.5892960   -0.2468090   -0.4514530  
C     4.0507370   -1.4932630   -0.7773350  
C     5.4645250   -1.5122810   -0.5128860  
C     5.8064110   -0.1639220    0.0035400  
N     4.6123680    0.5494720    0.0735180  
C     7.0565610    0.2414710    0.3243080  
C     8.1529870   -0.7199910    0.1866220  
O     9.3105810   -0.4411830    0.4555600  
C     7.8094410   -2.1692670   -0.3170290  
O     8.7164760   -2.9820580   -0.4267910  
C     6.4203380   -2.4744740   -0.6456160  
H     3.4486710   -2.3260150   -1.1090090  
H     7.2889140    1.2359030    0.6931850  
H     6.1972670   -3.4726810   -1.0096780  
H     4.5763100    1.5589650    0.0381890  
