60


C    -2.1906600    0.1330730    0.6138590  
C    -1.6196460    1.3470590    0.2704610  
C    -2.7141680    2.1927080   -0.1784150  
C    -3.8960530    1.4205660   -0.0989380  
N    -3.5537920    0.1614200    0.4070580  
C    -5.1480350    1.8910720   -0.5092160  
C    -5.2118040    3.1841600   -1.0037530  
O    -6.4052800    3.6995030   -1.4073980  
C    -4.0384280    3.9791280   -1.0877460  
O    -4.2595170    5.2433540   -1.5914200  
C    -2.8040930    3.5006340   -0.6931780  
H    -6.0474590    1.2877920   -0.4643270  
H    -6.2407530    4.6120970   -1.7031940  
H    -3.4473790    5.7677670   -1.5235900  
H    -1.9276130    4.1365060   -0.7453370  
H    -1.7333630   -0.7324510    1.0703380  
C     1.9406590   -1.1372700   -0.5711430  
C     0.6946300   -0.6231270   -0.4984500  
C     0.7821010    0.6991750    0.0892220  
C     2.2144140    0.9335030    0.3569040  
N     2.8896380   -0.2218990   -0.0682300  
C     2.7225040    2.0514600    0.9443210  
C     1.8006180    3.1286130    1.2585600  
O     2.1479760    4.1860300    1.7622550  
C     0.2775590    2.9364680    0.9198320  
O    -0.4687030    3.8768290    1.1258060  
C    -0.1922340    1.6259670    0.3861760  
H    -0.2031220   -1.0978020   -0.8629520  
H     3.7630040    2.1769180    1.2163440  
H     2.2861960   -2.0730990   -0.9856050  
C     4.2477990   -0.4857430   -0.0405530  
C     4.8770390   -1.6959620    0.0602980  
C     6.2928550   -1.4535780   -0.0401960  
C     6.4505560    0.0111480   -0.2087480  
N     5.1701830    0.5591670   -0.1469820  
C     7.6338650    0.6411860   -0.3879840  
C     8.8556270   -0.1681210   -0.3869790  
O     9.9653290    0.3156740   -0.5395620  
C     8.7176490   -1.7185360   -0.1674420  
O     9.7302390   -2.4025810   -0.1544840  
C     7.3771820   -2.2765920   -0.0019310  
H     4.4024180   -2.6482520    0.2454660  
H     7.7293980    1.7148820   -0.5178540  
H     7.2920610   -3.3507610    0.1304830  
H     4.9357540    1.4456080   -0.5719950  
C    -5.5668810   -0.8034010    1.4785110  
C    -4.4370800   -0.8856970    0.7185720  
C    -4.3109930   -2.2633180    0.2686120  
C    -5.4729600   -2.9814950    0.8458580  
N    -6.1964430   -2.0367910    1.5515990  
C    -5.7162860   -4.3039540    0.6686950  
C    -4.7831850   -5.0802050   -0.1473280  
O    -4.9182020   -6.2748690   -0.3561460  
C    -3.5537160   -4.3318310   -0.7811350  
O    -2.7633420   -4.9597460   -1.4666590  
C    -3.4017940   -2.8975270   -0.5151980  
H    -6.5708670   -4.8172510    1.0984980  
H    -2.5577700   -2.3863870   -0.9667210  
H    -5.9815940    0.0586960    1.9825200  
H    -7.0562730   -2.2185050    2.0454030  
