58


C    -4.7403880    0.3316750    0.1716210  
C    -4.3892280   -0.9589050   -0.1802410  
C    -5.4826140   -1.8249880    0.1516340  
C    -6.5365150   -0.9561160    0.7297430  
N    -6.0226300    0.3219050    0.7247670  
C    -7.7447470   -1.4031780    1.1566300  
C    -8.0365880   -2.8303350    1.0499520  
O    -9.0946850   -3.3238460    1.4076690  
C    -6.9312140   -3.7708880    0.4443800  
O    -7.1544020   -4.9675820    0.3465430  
C    -5.6655410   -3.1696480    0.0148850  
H    -3.4796010   -1.2579400   -0.6758110  
H    -8.5070160   -0.7537910    1.5753580  
H    -4.9096980   -3.8274310   -0.4035700  
H    -6.5231350    1.1758590    0.9292850  
C    -0.4100940    1.3535930   -0.5428370  
C    -1.5608710    0.6459460   -0.2571550  
C    -2.6214090    1.6107280   -0.2324770  
C    -1.9346080    2.9038030   -0.5366790  
N    -0.6547070    2.7508080   -0.7209390  
C    -2.6463530    4.1502700   -0.6024350  
C    -3.9668930    4.1352320   -0.3104190  
O    -4.7388470    5.2313420   -0.2909200  
C    -4.6876280    2.8663370    0.0466450  
O    -5.8756100    2.9859100    0.3657200  
C    -3.9808300    1.5547620   -0.0012780  
H    -1.6189360   -0.3966840    0.0134900  
H    -2.1181070    5.0656050   -0.8436770  
H    -5.6332140    4.9309740   -0.0214280  
C     1.3217910   -2.4284960   -2.1198300  
C     0.4356970   -1.4577290   -1.7755560  
C     1.2303070   -0.4129520   -1.1650630  
C     2.6342340   -0.9364600   -1.2324020  
N     2.6666900   -2.1178900   -1.7874670  
C     3.7826980   -0.1878690   -0.7404540  
C     3.4917360    1.0771590   -0.2985790  
O     4.4269210    1.9468600    0.1131790  
C     2.1020820    1.6315470   -0.1953820  
O     1.9947070    2.7469130    0.3050090  
C     0.9313920    0.8217650   -0.6586190  
H    -0.6296110   -1.4423620   -1.9490030  
H     3.9270200    2.7451710    0.4032930  
H     1.1148520   -3.3723590   -2.6103930  
C     5.5384400   -1.6963800   -1.7020930  
C     5.1203950   -0.7737690   -0.7731600  
C     6.2478330   -0.5838740    0.1467920  
C     7.3445140   -1.4470230   -0.3622380  
N     6.8432610   -2.0762430   -1.4873780  
C     8.5693530   -1.5766230    0.2043800  
C     8.8492250   -0.8316480    1.4279580  
O     9.9220620   -0.8789810    2.0093070  
C     7.6962050    0.0552000    2.0160690  
O     7.8929560    0.6713010    3.0515840  
C     6.4161550    0.1152170    1.2997520  
H     9.3460560   -2.2200820   -0.1976210  
H     5.6470850    0.7481990    1.7212440  
H     4.9664600   -2.1235730   -2.5112730  
H     7.3455180   -2.7550920   -2.0387480  
