62


C    -0.9634390   -0.8297320   -0.1420120  
C     0.2829300   -1.4311330   -0.0565650  
C     1.2611130   -0.3955580   -0.0110680  
C     0.5506690    0.8386010   -0.0515030  
N    -0.7848230    0.5434830   -0.1418360  
C     1.1532620    2.1139400   -0.0008210  
C     2.5426530    2.0734610    0.1087670  
O     3.2575470    3.2439690    0.1615540  
C     3.2883970    0.8685550    0.1816170  
O     4.6442360    1.0812530    0.2837720  
C     2.6878950   -0.3895380    0.0922180  
H     0.4549500   -2.4954240   -0.0001960  
H    -1.5041290    1.2386210   -0.2771250  
H     4.1925520    2.9751270    0.2799310  
H     4.9817330    0.4653940    0.9716440  
C    -2.5675700    3.4934780    2.1548070  
C    -1.4428090    2.8020470    1.7767230  
C    -0.8240680    3.5418330    0.7047020  
C    -1.6285500    4.6930930    0.4935410  
N    -2.6871690    4.6264740    1.3770390  
C    -1.3144340    5.6880330   -0.4390220  
C    -0.1409520    5.5258210   -1.1558600  
O     0.2419080    6.4626870   -2.0627200  
C     0.6866810    4.3831960   -0.9724210  
O     1.7885390    4.3614010   -1.7976320  
C     0.3551390    3.3599710   -0.0794630  
H    -1.0706670    1.9028520    2.2461830  
H    -3.4070110    5.3259440    1.4719140  
H    -1.9293710    6.5683330   -0.5948730  
H     1.0935540    6.1498590   -2.4234110  
H     2.5638240    4.0780620   -1.2667920  
H    -3.2856340    3.2826100    2.9348640  
C    -2.2813820   -1.4047800   -0.1565920  
C    -2.6933400   -2.6711290   -0.4821810  
C    -4.1192780   -2.7358250   -0.3103480  
C    -4.5383340   -1.3907500    0.1556390  
N    -3.3933160   -0.6051880    0.1738260  
C    -5.8085540   -1.0569270    0.4876480  
C    -6.8523800   -2.0721360    0.3508980  
O    -8.0232330   -1.8580110    0.6248530  
C    -6.4395280   -3.4919650   -0.1842360  
O    -7.3052310   -4.3454460   -0.3157960  
C    -5.0318150   -3.7323140   -0.4919090  
H    -2.0592870   -3.4635240   -0.8533210  
H    -6.0963580   -0.0694520    0.8357640  
H    -4.7550190   -4.7215710   -0.8435760  
H    -3.3122350    0.2074460    0.7717200  
C     2.6429140   -4.0710750   -2.4562140  
C     2.4100670   -2.8145730   -2.0120200  
C     3.2336260   -2.6702830   -0.8117710  
C     3.9141040   -3.9907260   -0.6896000  
N     3.5613440   -4.8091310   -1.6386960  
C     4.8422080   -4.2758000    0.3752850  
C     5.1220850   -3.2785410    1.2433450  
O     5.9981120   -3.3927660    2.2587580  
C     4.5056420   -1.9213130    1.1005020  
O     4.9256940   -1.0490150    1.8746120  
C     3.4483600   -1.6557380    0.0755160  
H     1.7764870   -2.0582460   -2.4502120  
H     5.3080580   -5.2521890    0.4461230  
H     6.0349670   -2.5128080    2.6878140  
H     2.2328840   -4.5562280   -3.3335980  
