60


C    -3.6376790    0.0641850   -0.0472590  
C    -2.2565050    0.2980750   -0.0450620  
C    -2.0432590    1.6911570   -0.1844380  
C    -3.3378470    2.2931100   -0.2488130  
N    -4.2684270    1.2922320   -0.1812100  
C    -3.5294720    3.6742090   -0.3280440  
C    -2.3899430    4.4630460   -0.3073650  
O    -2.4944600    5.8124470   -0.3573360  
C    -1.0811690    3.8970770   -0.2311790  
O    -0.0872290    4.8407370   -0.2432260  
C    -0.8685330    2.5164660   -0.2112410  
H    -1.4963540   -0.4503660    0.1055250  
H    -5.2745000    1.3778400   -0.1011280  
H    -4.5111480    4.1334340   -0.3709600  
H    -1.5795530    6.1501480   -0.2855530  
H     0.5950550    4.5491020    0.4103380  
C     0.9236250   -0.7200630   -2.6577040  
C     0.1298440    0.2689980   -2.1606070  
C     0.8257030    0.8571730   -1.0441040  
C     2.0939380    0.0974240   -0.9190190  
N     2.0705440   -0.8762650   -1.8959930  
C     3.0607920    0.3147680    0.0336930  
C     2.8950650    1.5763980    0.7833060  
O     3.7806190    2.0833450    1.4469530  
C     1.5471710    2.3829780    0.6662810  
O     1.4888530    3.4199880    1.3279240  
C     0.4778410    1.9083550   -0.2133770  
H    -0.8295660    0.5789240   -2.5431320  
H     0.7645050   -1.3514730   -3.5224090  
H     2.9645450   -1.2477760   -2.2348470  
C     5.9762960   -1.8469910   -2.5864520  
C     6.9249870   -2.1928860   -1.6896090  
C     6.4067250   -1.7628090   -0.3970660  
C     5.0898160   -1.1145860   -0.7148900  
N     4.8482170   -1.1955770   -1.9963170  
C     4.2476850   -0.5115520    0.3094240  
C     4.6642680   -0.7324360    1.6006220  
O     3.9504040   -0.3831880    2.6735630  
C     5.9601800   -1.4054910    1.9469990  
O     6.2374170   -1.5327950    3.1389720  
C     6.8361650   -1.8992240    0.8703940  
H     7.8653720   -2.6947370   -1.8687920  
H     4.5041520   -0.6190860    3.4515110  
H     7.7675830   -2.3759430    1.1595930  
H     5.9760820   -2.0029590   -3.6582620  
C    -2.5466010   -4.2519120   -0.4490070  
C    -2.5440650   -2.8924820   -0.5083530  
C    -3.8371500   -2.4312600   -0.0551170  
C    -4.6100490   -3.6449410    0.2610610  
N    -3.7655160   -4.7118730    0.0310670  
C    -5.9031670   -3.6809270    0.6986210  
C    -6.6017580   -2.4274880    0.8328710  
O    -7.7578860   -2.3126330    1.2184400  
C    -5.8317050   -1.1098870    0.4404790  
O    -6.4855050   -0.0747630    0.4215740  
C    -4.3807090   -1.1640110    0.1001320  
H    -1.7347520   -2.2838990   -0.8785720  
H    -6.4231450   -4.6003630    0.9474880  
H    -1.7699170   -4.9548280   -0.7184070  
H    -4.0327170   -5.6795950    0.1187990  
