62


C     1.6262680   -0.7096350   -0.3338330  
C     2.8997490   -0.2740050   -0.5772590  
C     2.9030050    1.1550120   -0.3212440  
C     1.5900880    1.5272560    0.0468630  
N     0.7997220    0.3589980    0.0275870  
C     1.2670830    2.8348480    0.4204340  
C     2.2754490    3.7866510    0.3769160  
O     2.0000770    5.0733620    0.7273780  
C     3.5873120    3.4357380   -0.0304660  
O     4.4731510    4.4898410   -0.0374320  
C     3.9081150    2.1360850   -0.3811320  
H     0.2711170    3.1392640    0.7109350  
H     2.8245280    5.5825640    0.6410730  
H     5.3630800    4.1714700   -0.2510330  
H     4.9205020    1.8804750   -0.6819260  
H     1.2084310   -1.7013590   -0.4173570  
C    -1.3120780   -2.6126100    2.5098900  
C    -0.3075270   -1.9244900    1.9129250  
C    -0.9655330   -0.8533050    1.1733400  
C    -2.4044770   -1.0590270    1.4454250  
N    -2.6014380   -2.0870640    2.2255290  
C    -3.4347540   -0.1813800    0.8932450  
C    -3.0007330    0.8874890    0.1595680  
O    -3.8268880    1.8240590   -0.3547830  
C    -1.5722500    1.1121350   -0.1511510  
O    -1.2872210    2.0639460   -0.8804440  
C    -0.5291990    0.1878800    0.4119360  
H     0.7557280   -2.1013090    1.9857870  
H    -3.2438610    2.4265470   -0.8658590  
H    -1.2363350   -3.4739990    3.1620090  
C    -5.3129560   -0.8332150    2.3730640  
C    -6.6601730   -1.0019100    2.2719490  
C    -7.0269230   -0.7508360    0.9032600  
C    -5.8416430   -0.4108920    0.2065750  
N    -4.7855540   -0.4550150    1.1312360  
C    -5.8287700   -0.1789930   -1.1720670  
C    -7.0388920   -0.2532740   -1.8494720  
O    -7.0727690   -0.0234140   -3.1963120  
C    -8.2356550   -0.5673000   -1.1626110  
O    -9.3575280   -0.6038390   -1.9688560  
C    -8.2403770   -0.8203770    0.1994030  
H    -7.3232310   -1.2805820    3.0796760  
H    -4.9311120    0.0685730   -1.7217570  
H    -7.9983400   -0.1170070   -3.4796650  
H   -10.1347740   -0.8128500   -1.4301410  
H    -9.1659580   -1.0828720    0.7081980  
H    -4.6522420   -0.9472310    3.2163490  
C     3.9409300   -1.9974020   -2.0965940  
C     3.9997100   -1.1052060   -1.0650190  
C     5.3604020   -1.1835830   -0.5366670  
C     6.0751790   -2.1912140   -1.3607890  
N     5.1509200   -2.6576790   -2.2739940  
C     7.3755210   -2.5419480   -1.1919560  
C     8.1344540   -1.9014440   -0.1220470  
O     9.3099150   -2.1463110    0.1021900  
C     7.3910010   -0.8511350    0.7820290  
O     8.0066090   -0.3042500    1.6834330  
C     5.9809970   -0.5609600    0.4996210  
H     7.8790100   -3.2815880   -1.8070140  
H     5.4770350    0.1584400    1.1367070  
H     3.1052100   -2.2147490   -2.7487180  
H     5.3529700   -3.3093640   -3.0159670  
