58


C    -2.6504800   -1.5111550   -1.4474840  
C    -1.7009720   -2.0881150   -0.6507470  
C    -2.3605540   -3.2180320    0.0139150  
C    -3.7627940   -3.2262040   -0.4691070  
N    -3.8716320   -2.1597610   -1.3430670  
C    -4.7095340   -4.1220010   -0.0910580  
C    -4.3410900   -5.1507420    0.8758820  
O    -5.1220450   -5.9980650    1.2811350  
C    -2.8673860   -5.1484230    1.4223130  
O    -2.5433360   -5.9810320    2.2528140  
C    -1.9309210   -4.1343210    0.9166350  
H    -5.7284260   -4.1077210   -0.4658830  
H    -0.9094230   -4.1727420    1.2765260  
H    -2.5408640   -0.6742260   -2.1250930  
H    -4.6839550   -1.9595130   -1.9057740  
C    -0.0482680    1.8948890    0.1551610  
C     1.2884020    1.5847120    0.0927520  
C     1.4201310    0.1843650   -0.1807370  
C     0.0427120   -0.3375040   -0.2969620  
N    -0.8094640    0.7521800   -0.1552040  
C    -0.3103760   -1.6409350   -0.5035780  
C     0.8056240   -2.5924350   -0.6535040  
O     0.6368670   -3.7788540   -0.8787340  
C     2.2821230   -2.0657950   -0.5400500  
O     3.1766300   -2.8931630   -0.5725930  
C     2.5227200   -0.6207330   -0.3502300  
H     2.1010670    2.2826090    0.2161500  
H    -1.7476820    0.6178220    0.2002990  
C    -0.1626500    4.2159440    1.1399160  
C    -0.6811760    3.1514400    0.4480170  
C    -2.0374770    3.5971120    0.0692390  
C    -2.1385930    4.9721010    0.6410610  
N    -1.0343060    5.3158070    1.2552550  
C    -3.3201480    5.7711790    0.4854600  
C    -4.3552880    5.2458630   -0.2172820  
O    -5.5136750    5.8826750   -0.4365950  
C    -4.2769200    3.8742610   -0.8265960  
O    -5.2493800    3.4618580   -1.4543780  
C    -3.0453330    3.0720400   -0.6521580  
H    -3.3629650    6.7644290    0.9180740  
H    -6.0626660    5.2685390   -0.9711590  
H    -3.0241180    2.0997680   -1.1333140  
H     0.8133260    4.2719370    1.6072660  
C     4.7475310    1.5521060    2.7972470  
C     6.0014890    1.5751620    2.2925330  
C     5.8999810    0.9170740    0.9941650  
C     4.4483730    0.5487200    0.8818100  
N     3.7864480    0.9262980    1.9366780  
C     3.9185570   -0.1551110   -0.2778350  
C     4.8170650   -0.4335440   -1.2686620  
O     4.4841480   -1.0223920   -2.4221480  
C     6.2740890   -0.0665910   -1.1803820  
O     6.9916270   -0.3588380   -2.1349400  
C     6.7801750    0.6231170    0.0193400  
H     6.8986620    1.9800390    2.7395710  
H     5.3251550   -1.1199030   -2.9221940  
H     7.8392670    0.8601920    0.0494020  
H     4.4045480    1.9389140    3.7495490  
