60


C    -3.6980070    2.1727160   -0.2294030  
C    -2.3317370    2.2298690   -0.1711600  
C    -1.8447330    0.8925960    0.0076900  
C    -2.9816450    0.0543170    0.0492570  
N    -4.1208710    0.8602390   -0.0717410  
C    -2.8971620   -1.3435220    0.0962010  
C    -1.6355230   -1.9097680    0.1317520  
O    -1.4970850   -3.2639430    0.1770360  
C    -0.4638830   -1.1086380    0.1232420  
O     0.6766160   -1.8304410    0.1717020  
C    -0.5343950    0.3121420    0.0824520  
H    -1.7565570    3.1339990   -0.2890280  
H    -3.7693910   -1.9858840    0.0913690  
H    -0.5379730   -3.4387960    0.1985030  
H     1.4466440   -1.1825700    0.1074070  
H    -4.4211750    2.9599310   -0.3689950  
C     0.6687900    1.1011760    0.1329280  
C     0.8745950    2.4574400    0.2835540  
C     2.2858810    2.6630930    0.2786830  
C     2.8750340    1.2904590    0.1079140  
N     1.9277520    0.3998950    0.0336090  
C     4.2986900    1.0502180    0.0532220  
C     5.0802180    2.1645510    0.1776990  
O     6.4059960    2.1440240    0.1136770  
C     4.5188230    3.5684670    0.3619110  
O     5.3571130    4.4709960    0.4523720  
C     3.0857730    3.7595180    0.4089150  
H     0.1351740    3.2259640    0.4359940  
H     6.6791290    3.0844180    0.2503630  
H     2.7105610    4.7682300    0.5460360  
C     3.9095180   -2.2052860   -2.9699560  
C     3.8016980   -1.0404400   -2.2811480  
C     4.6070000   -1.1684250   -1.0846500  
C     5.2070890   -2.5258830   -1.1394410  
N     4.7361710   -3.1030750   -2.3020010  
C     6.0585730   -3.0397320   -0.2152340  
C     6.4128740   -2.2088830    0.9254110  
O     7.1868230   -2.5649380    1.8009200  
C     5.7606800   -0.7818110    1.0366280  
O     5.9873180   -0.1191570    2.0332510  
C     4.8722210   -0.3065930   -0.0551420  
H     3.2130130   -0.1824640   -2.5653780  
H     6.4969720   -4.0300910   -0.2901830  
H     3.4538230   -2.4909310   -3.9088170  
H     4.9919400   -4.0197550   -2.6331240  
C    -6.4332720   -1.7259740    2.6444060  
C    -5.4493100   -0.9747630    2.0842660  
C    -5.9905110   -0.3936700    0.8749010  
C    -7.3928060   -0.8649930    0.7793660  
N    -7.5886510   -1.6848760    1.8728670  
C    -8.2773480   -0.5166670   -0.1922940  
C    -7.8303360    0.3987920   -1.2264980  
O    -8.5402730    0.7974440   -2.1366540  
C    -6.3466560    0.9253360   -1.1663150  
O    -5.9732280    1.7158910   -2.0140200  
C    -5.4632860    0.4413510   -0.0754630  
H    -4.4518380   -0.8365710    2.4707690  
H    -9.2993150   -0.8799320   -0.2281570  
H    -6.4152680   -2.3058680    3.5575090  
H    -8.4638580   -2.1259250    2.1081480  
