58


C    -4.6531290   -0.1697100    0.0068720  
C    -4.6598210   -1.5283680    0.2345420  
C    -6.0296760   -1.9566950    0.2761330  
C    -6.8540490   -0.7379600    0.0535500  
N    -5.9615360    0.2977420   -0.1014910  
C    -8.2114120   -0.7302620    0.0219790  
C    -8.9200330   -1.9914610    0.2146860  
O   -10.1385610   -2.0812900    0.1999770  
C    -8.0688030   -3.2933580    0.4499780  
O    -8.6458190   -4.3588620    0.6101840  
C    -6.6103560   -3.1763930    0.4660030  
H    -3.7905740   -2.1577550    0.3598910  
H    -8.7982060    0.1683410   -0.1408200  
H    -6.0333170   -4.0813160    0.6312000  
H    -6.1699580    1.2730400   -0.2606950  
C    -3.5675160    0.7627840   -0.1294680  
C    -2.2124090    0.5545040   -0.0563500  
C    -1.6096670    1.8479190   -0.2585280  
C    -2.7665600    2.7676450   -0.4305200  
N    -3.9042410    2.1314300   -0.3650140  
C    -2.5986390    4.1837950   -0.6280560  
C    -1.3361400    4.6661480   -0.6360570  
O    -1.0289160    5.9618800   -0.7864110  
C    -0.1335760    3.7682270   -0.4775490  
O     0.9674210    4.3120670   -0.5301780  
C    -0.3109590    2.2964410   -0.3032500  
H    -1.7046390   -0.3745200    0.1586790  
H    -3.4636340    4.8260600   -0.7484580  
H    -0.0477240    6.0082860   -0.7681640  
C     0.8845380    0.2039830   -0.9356760  
C     0.8505520    1.4212510   -0.2943880  
C     2.1593740    1.5696200    0.3595620  
C     2.9247400    0.3458310    0.0304830  
N     2.0876880   -0.4283730   -0.7602760  
C     4.1840150    0.0452970    0.4598380  
C     4.8490100    1.0608780    1.3105250  
O     6.0142410    0.9716730    1.6482960  
C     4.0269430    2.3233630    1.7406350  
O     4.5320280    3.1188690    2.5143180  
C     2.6820710    2.5111820    1.1857060  
H     2.1551970    3.4163740    1.4594400  
H     0.1168050   -0.2459980   -1.5506470  
H     2.3590270   -1.3032550   -1.1840550  
C     5.4044020   -1.8978980   -3.3738440  
C     4.8926010   -1.0503460   -2.4405380  
C     5.1630600   -1.6271810   -1.1387130  
C     5.8878640   -2.8957830   -1.3979060  
N     5.9794660   -3.0078310   -2.7748090  
C     6.3656310   -3.7298510   -0.4404580  
C     6.1506550   -3.3683070    0.9561130  
O     6.5690400   -4.0321210    1.8903560  
C     5.3211230   -2.0715600    1.2650760  
O     4.9979450   -1.8447170    2.4160340  
C     4.8963590   -1.2004560    0.1362690  
H     4.4146730   -0.1021840   -2.6367590  
H     6.9150040   -4.6403190   -0.6589010  
H     5.4137620   -1.8023970   -4.4517390  
H     6.4837510   -3.7347920   -3.2583380  
