60


C    -2.4288710   -1.5257950    0.2950500  
C    -3.4101220   -0.5690990    0.1053850  
C    -2.7250690    0.6524990   -0.2684760  
C    -1.3418350    0.3563750   -0.2969760  
N    -1.1992080   -0.9765470    0.0471530  
C    -0.3441780    1.3081760   -0.5938210  
C    -0.7949920    2.6036780   -0.8528540  
O     0.1018380    3.5806080   -1.1624870  
C    -2.1773010    2.9243790   -0.8050050  
O    -2.4391650    4.2496700   -1.0753300  
C    -3.1409970    1.9748740   -0.5212630  
H    -0.3148200   -1.4505230    0.1527730  
H    -0.3987850    4.4060100   -1.2904040  
H    -3.3847570    4.4315380   -0.9678520  
H    -4.1891560    2.2565800   -0.4636220  
H    -2.5310530   -2.5694620    0.5552650  
C     1.6552540   -0.0344120   -1.3823870  
C     1.0854710    0.9493480   -0.6298780  
C     2.1720110    1.5591260    0.1382120  
C     3.4037830    0.8293700   -0.2363630  
N     3.0323940   -0.0998440   -1.1806490  
C     4.6388130    1.0782090    0.3017100  
C     4.7565070    2.1898490    1.2575550  
O     5.8221540    2.5311250    1.7447620  
C     3.4514140    2.9776080    1.6461160  
O     3.5511090    3.8966480    2.4409770  
C     2.1851110    2.5808860    1.0315310  
H     1.2930050    3.1334430    1.3015640  
H     1.1888680   -0.6923360   -2.1043120  
H     3.6300620   -0.8422690   -1.5144150  
C     7.0392320    0.9038800   -0.3595730  
C     7.9561170   -0.0501140   -0.6420040  
C     7.3172200   -1.3365300   -0.4691500  
C     5.9231430   -1.0490680   -0.0451190  
N     5.7928880    0.3355830   -0.0242000  
C     5.0145550   -2.0107920    0.2765830  
C     5.4070860   -3.4134870    0.1585930  
O     4.6480170   -4.3350510    0.4181250  
C     6.8631930   -3.7358190   -0.3322150  
O     7.1986550   -4.9012020   -0.4671800  
C     7.7647530   -2.6115970   -0.6036870  
H     8.9822350    0.1178350   -0.9352020  
H     4.0263790   -1.7949150    0.6663950  
H     8.7827310   -2.8447930   -0.9008320  
H     7.1373300    1.9785810   -0.3583580  
C    -4.8307110   -0.7900360    0.2481420  
C    -5.5169990   -1.6760770    1.0380810  
C    -6.9225750   -1.5261680    0.7732780  
C    -7.0320310   -0.4658070   -0.2591440  
N    -5.7408090   -0.0115670   -0.4925220  
C    -8.1950810   -0.0653880   -0.8265220  
C    -9.4391980   -0.6866520   -0.3729140  
O   -10.5326060   -0.3826460   -0.8244040  
C    -9.3529190   -1.7811800    0.7533040  
O   -10.3878280   -2.2998470    1.1477750  
C    -8.0347230   -2.1385470    1.2696650  
H    -5.0770730   -2.3300160    1.7776220  
H    -8.2556850    0.7042640   -1.5903390  
H    -7.9856950   -2.9092740    2.0329310  
H    -5.4741940    0.4273760   -1.3627400  
