60


C     0.9051900   -1.2266340   -0.4722270  
C     2.1163440   -0.5520430   -0.4061960  
C     3.1500390   -1.5200510   -0.2393920  
C     2.5198250   -2.7946170   -0.2208390  
N     1.1601430   -2.5866550   -0.3243770  
C     3.2268880   -3.9952390   -0.1221100  
C     4.6087490   -3.9178730   -0.0322390  
O     5.3413010   -5.0552230    0.0843260  
C     5.2719740   -2.6618360   -0.0434000  
O     6.6322860   -2.7603950    0.0844740  
C     4.5725460   -1.4527310   -0.1369390  
H     2.2240460    0.5213330   -0.4635280  
H     0.4929470   -3.3099010   -0.5480760  
H     2.7423570   -4.9658550   -0.1044020  
H     6.2753520   -4.7946160    0.1731970  
H     7.0011910   -1.8802960    0.2906410  
C    -0.8158430    0.4487200   -1.2632110  
C    -0.4274280   -0.7114550   -0.6555360  
C    -1.6966400   -1.3161400   -0.1903750  
C    -2.7472450   -0.3602310   -0.6318200  
N    -2.2111340    0.6649710   -1.2408710  
C    -4.1675530   -0.5747130   -0.3659760  
C    -4.4714460   -1.7325990    0.3047910  
O    -5.7333330   -2.1356740    0.5630810  
C    -3.4399110   -2.6770750    0.7962140  
O    -3.8081910   -3.6935320    1.3922400  
C    -2.0093350   -2.4025030    0.5361650  
H    -5.6365600   -2.9812800    1.0552080  
H    -1.2934040   -3.1054930    0.9509930  
H    -0.1825970    1.1773310   -1.7542050  
C    -5.0093440    1.1866580   -1.9401960  
C    -5.1507570    0.4075960   -0.8177460  
C    -6.4120340    0.8208500   -0.1935000  
C    -6.9833060    1.8724510   -1.0731130  
N    -6.0851690    2.0282440   -2.1132230  
C    -8.1466940    2.5331140   -0.8528160  
C    -8.9068390    2.2142110    0.3517370  
O    -9.9664510    2.7509200    0.6355040  
C    -8.3088060    1.1362130    1.3228350  
O    -8.9122230    0.8649620    2.3489510  
C    -7.0414980    0.4878250    0.9637860  
H    -8.5321760    3.2987220   -1.5192770  
H    -6.6634150   -0.2652490    1.6419540  
H    -4.1844140    1.2036310   -2.6358270  
H    -6.1796970    2.7000580   -2.8593910  
C     5.2916960   -0.1874940   -0.0839230  
C     6.5365700    0.1522550   -0.5686080  
C     6.7987970    1.5260660   -0.2147130  
C     5.6141650    1.9833380    0.5509540  
N     4.7249490    0.9209800    0.5538840  
C     5.4884150    3.2114310    1.1104290  
C     6.5759330    4.1715680    0.9254450  
O     6.5484780    5.3013130    1.3877170  
C     7.8248710    3.7227260    0.0816970  
O     8.7368550    4.5170320   -0.0908130  
C     7.8471350    2.3606270   -0.4532210  
H     7.1414100   -0.4493810   -1.2336340  
H     4.6170410    3.5260250    1.6766620  
H     8.7224020    2.0566010   -1.0193430  
H     3.9374790    0.8458860    1.1815440  
