58


C     3.5727460    0.9866420    0.0690930  
C     2.2129130    0.8163120    0.0016430  
C     1.5876040    2.0901520    0.2199870  
C     2.6888280    3.0556950    0.4014440  
N     3.8686250    2.3234100    0.3839020  
C     2.5440460    4.3991370    0.5429180  
C     1.1993150    4.9410760    0.5189780  
O     0.9427700    6.1310250    0.6168820  
C    -0.0054550    3.9399270    0.3529820  
O    -1.1276180    4.4139950    0.3155060  
C     0.2555500    2.4754010    0.2536720  
H     1.7127280   -0.1248150   -0.1663930  
H     3.3783160    5.0811020    0.6722580  
H     4.7496780    2.7472470    0.1246500  
C    -0.8255460    0.2679420    0.8003900  
C    -0.8379460    1.5262400    0.2432270  
C    -2.1932930    1.6205300   -0.3571360  
C    -2.8206680    0.3050670   -0.0424550  
N    -2.0056890   -0.4671750    0.6313650  
C    -4.1556570   -0.0501970   -0.4723880  
C    -4.8061570    0.8633600   -1.2462940  
O    -6.0401410    0.6864050   -1.7319670  
C    -4.1907330    2.1844860   -1.6060410  
O    -4.8513590    2.9460430   -2.3090150  
C    -2.8406890    2.5276130   -1.1109860  
H    -6.2401350    1.5043380   -2.2402040  
H    -2.4517670    3.5039700   -1.3693270  
H    -0.0248190   -0.1711620    1.3832160  
C    -5.2386860   -1.6603860    3.4628770  
C    -5.7025420   -2.8937110    3.1592450  
C    -5.6018560   -2.9887260    1.7057690  
C    -5.0151310   -1.6714860    1.2959910  
N    -4.8189730   -0.8986280    2.3210550  
C    -4.7540420   -1.3487770   -0.0971190  
C    -5.1089610   -2.2867080   -1.0157350  
O    -4.9368370   -2.1404440   -2.3372400  
C    -5.7095560   -3.6127180   -0.6277500  
O    -5.9812410   -4.3961110   -1.5358850  
C    -5.9406890   -3.9204970    0.7944300  
H    -6.0819070   -3.6528300    3.8289460  
H    -5.2785480   -2.9721690   -2.7355730  
H    -6.3824700   -4.8841490    1.0291440  
H    -5.1559670   -1.2010180    4.4406600  
C     4.6270990    0.0195980   -0.0831580  
C     4.6182090   -1.1861580   -0.7346010  
C     5.9271840   -1.7705420   -0.6062030  
C     6.7299580   -0.8118540    0.1899480  
N     5.9119880    0.2906460    0.4260370  
C     8.0079150   -1.0256390    0.5822920  
C     8.6630080   -2.2682170    0.1688600  
O     9.8122120   -2.5427670    0.4737400  
C     7.8459020   -3.2781090   -0.7160050  
O     8.3819740   -4.3128170   -1.0814370  
C     6.4629820   -2.9388040   -1.0575960  
H     3.7897080   -1.5946260   -1.2955790  
H     8.5800280   -0.3184720    1.1751020  
H     5.9002580   -3.6519200   -1.6521590  
H     6.0412410    0.8742170    1.2424040  
