60


C    -1.0215600   -0.7444480    0.1470600  
C     0.1995190   -1.3968690    0.1903480  
C     1.2260980   -0.4118610    0.1144720  
C     0.5749690    0.8513710    0.0475180  
N    -0.7848550    0.6236040    0.0127480  
C     1.2582150    2.0820920    0.0162400  
C     2.6496820    1.9907780    0.0824910  
O     3.3943930    3.1148240    0.1269110  
C     3.3305690    0.7388400    0.1476000  
O     4.6926940    0.8720360    0.1927390  
C     2.6550290   -0.4807000    0.1148890  
H     0.3257290   -2.4686370    0.2266040  
H    -1.4690540    1.3317670    0.2401690  
H     4.3253630    2.8197010    0.1788920  
H     5.0272750    0.2079510    0.8428310  
C    -2.3548000   -1.2723260    0.1748060  
C    -2.8225190   -2.4751200    0.6435850  
C    -4.2414290   -2.5215410    0.4303020  
C    -4.6001300   -1.2370480   -0.2180620  
N    -3.4301830   -0.4849030   -0.2885870  
C    -5.8452400   -0.9153110   -0.6412100  
C    -6.9266800   -1.8752060   -0.4136070  
O    -8.0795530   -1.6628330   -0.7562330  
C    -6.5796710   -3.2236650    0.3159330  
O    -7.4783160   -4.0285580    0.5204940  
C    -5.1937530   -3.4595880    0.7051550  
H    -2.2289690   -3.2273440    1.1433500  
H    -6.0893580    0.0257470   -1.1251760  
H    -4.9610500   -4.4020770    1.1915250  
H    -3.2946830    0.1941330   -1.0265410  
C    -1.8157770    4.1116350    2.5172760  
C    -0.8909620    3.2456160    2.0238420  
C    -0.3723470    3.8197380    0.7962320  
C    -1.0783750    5.1124710    0.6208140  
N    -1.9518750    5.2168730    1.6884080  
C    -0.8584130    5.9891210   -0.3920700  
C     0.1414420    5.6411210   -1.3921780  
O     0.4437940    6.3740140   -2.3209880  
C     0.8534430    4.2433010   -1.2768640  
O     1.5836150    3.8897120   -2.1837810  
C     0.5701570    3.3828880   -0.0959120  
H    -0.5706930    2.3234000    2.4854090  
H    -1.3741480    6.9399120   -0.4844620  
H    -2.4076790    4.0398490    3.4202760  
H    -2.5346710    6.0176330    1.8766160  
C     2.2361340   -4.0186180   -2.5352940  
C     2.1603770   -2.7836420   -1.9695040  
C     3.0338100   -2.7774640   -0.8202840  
C     3.6392820   -4.1334550   -0.7648500  
N     3.0932720   -4.8412400   -1.8175010  
C     4.5308890   -4.5512670    0.1690150  
C     4.9553670   -3.5841330    1.1667300  
O     5.7153550   -3.8440450    2.0850710  
C     4.4274720   -2.1075100    1.0382410  
O     4.9840170   -1.2656720    1.7429500  
C     3.3470610   -1.7903320    0.0920440  
H     1.5695640   -1.9544350   -2.3248410  
H     4.9234750   -5.5614670    0.2218180  
H     1.7399090   -4.3976820   -3.4189200  
H     3.3593350   -5.7778040   -2.0788740  
