62


C    -0.1324050   -1.5225870   -0.2206380  
C    -0.4746520   -2.8557230   -0.3640720  
C    -1.9040590   -2.9413570   -0.3015150  
C    -2.3958170   -1.6168690   -0.1285150  
N    -1.3033450   -0.8003430   -0.0513440  
C    -3.7689500   -1.2752180   -0.0661270  
C    -4.6461030   -2.3648160   -0.1243580  
O    -6.0105360   -2.1704590   -0.0648650  
C    -4.1796480   -3.6923520   -0.2692320  
O    -5.1992350   -4.6333680   -0.3081000  
C    -2.8339510   -3.9959510   -0.3710680  
H     0.2144190   -3.6708010   -0.5368860  
H    -1.3133010    0.1907110    0.1192340  
H    -6.4168860   -3.0396580   -0.2408560  
H    -4.8574360   -5.4630280   -0.6725940  
H    -2.5103690   -5.0276470   -0.4914660  
C     2.3676830   -1.2099550    0.1280450  
C     1.1168340   -0.7841270   -0.2437330  
C     1.2415450    0.6255440   -0.5744580  
C     2.5797770    1.0026040   -0.3334920  
N     3.2712770   -0.1484880    0.0852630  
C     3.0398080    2.3035270   -0.5730410  
C     2.1180280    3.2412520   -1.0193850  
O     2.5039260    4.5305700   -1.2324250  
C     0.7685920    2.8771230   -1.2720370  
O    -0.0332520    3.8906520   -1.7260850  
C     0.3369860    1.5766970   -1.0845820  
H     4.0599530    2.6124670   -0.3845150  
H     1.7040930    5.0157990   -1.5047270  
H    -0.9763650    3.6473590   -1.6188240  
H    -0.6643490    1.3131430   -1.4062240  
H     2.6873890   -2.1668800    0.5128060  
C     6.2559010   -3.0824670   -1.2131520  
C     5.1189330   -2.3522120   -1.0760700  
C     5.3987020   -1.2966430   -0.1244550  
C     6.8069110   -1.4711770    0.2876170  
N     7.2635600   -2.5812570   -0.3945830  
C     7.4863030   -0.6602410    1.1455090  
C     6.7811710    0.4673330    1.7194390  
O     7.2971940    1.2959950    2.4559050  
C     5.2534720    0.6446520    1.3742720  
O     4.6186940    1.5015500    1.9598300  
C     4.6365320   -0.2709770    0.3766680  
H     4.1862360   -2.5153480   -1.5937920  
H     8.5292860   -0.8085960    1.4062760  
H     6.4496440   -3.9406220   -1.8426040  
H     8.2118530   -2.9207290   -0.3623780  
C    -6.8928710    0.8770800    2.2771810  
C    -6.5769960    2.1574460    1.9376110  
C    -5.4772370    2.0943970    1.0089400  
C    -5.1709160    0.6476450    0.8415330  
N    -6.0364800   -0.0341840    1.6788150  
C    -4.1830920    0.1388040    0.0393500  
C    -3.5251260    1.1571340   -0.8163830  
O    -2.8667710    0.8713480   -1.8048990  
C    -3.6623600    2.6809380   -0.4658460  
O    -2.8352380    3.4587100   -0.9423010  
C    -4.7442020    3.0766900    0.4014630  
H    -7.0519720    3.0564810    2.3024650  
H    -4.9020640    4.1325610    0.5960730  
H    -7.6745150    0.5213820    2.9363000  
H    -6.2717110   -1.0038530    1.4853740  
