62


C    -0.2855790    0.1776420   -0.5806570  
C    -0.0772270   -1.1047840   -1.0588220  
C    -1.3249560   -1.7966670   -0.9933710  
C    -2.2842120   -0.8847830   -0.4719790  
N    -1.6164580    0.2799980   -0.2007410  
C    -3.6592800   -1.1893000   -0.3162960  
C    -4.0066370   -2.5002680   -0.6621750  
O    -5.3105250   -2.9294740   -0.5477070  
C    -3.0578750   -3.4333010   -1.1505560  
O    -3.6040710   -4.6753440   -1.4308250  
C    -1.7319680   -3.1009160   -1.3343630  
H     0.8456810   -1.4820240   -1.4736740  
H    -2.0271820    1.1194160    0.1739470  
H    -5.3443520   -3.8164570   -0.9522330  
H    -2.9789350   -5.1926060   -1.9599240  
H    -1.0246360   -3.8291200   -1.7246550  
C     4.1765710    0.5572640   -0.0473120  
C     2.8610880    0.0862770   -0.1567900  
C     2.0140130    1.1953060   -0.3759760  
C     2.8490370    2.3566280   -0.3741110  
N     4.1367530    1.9400260   -0.1873330  
C     2.3482350    3.6534680   -0.5129380  
C     0.9743580    3.7783570   -0.6536300  
O     0.4201530    5.0041680   -0.7997810  
C     0.1151480    2.6384840   -0.6641270  
O    -1.2259210    2.9845950   -0.7707710  
C     0.5988640    1.3380120   -0.5279980  
H     2.5532580   -0.9364400   -0.0150400  
H     4.9596970    2.5138010   -0.0602570  
H     2.9780970    4.5360680   -0.5106780  
H    -0.5413690    4.8618110   -0.8980430  
H    -1.7181200    2.4155500   -1.3916050  
C     5.4282260   -3.7648050   -0.1274880  
C     4.6924330   -2.6374760   -0.3244960  
C     5.5416520   -1.5385650    0.1127280  
C     6.7833130   -2.2084620    0.5382420  
N     6.7142250   -3.5119950    0.4102960  
C     7.9274490   -1.4787130    1.0239750  
C     7.8532040   -0.1296920    1.0545720  
O     8.8655840    0.6731240    1.4493790  
C     6.6241700    0.5925810    0.6190780  
O     6.6811830    1.8292110    0.6286320  
C     5.3931230   -0.1708000    0.2004560  
H     3.7083680   -2.5703520   -0.7632870  
H     8.8207650   -2.0129970    1.3285800  
H     8.5304310    1.5878140    1.3440160  
H     5.1454540   -4.7883750   -0.3436570  
C    -7.0066470   -1.3521410    2.5808750  
C    -7.4334320   -0.0661010    2.5230480  
C    -6.5984120    0.6161580    1.5584990  
C    -5.6280110   -0.3970530    1.0647550  
N    -5.9001810   -1.5582750    1.7574460  
C    -4.6425360   -0.1745050    0.1310620  
C    -4.6161140    1.1843710   -0.4409180  
O    -3.8328190    1.5377180   -1.3165240  
C    -5.6226280    2.2769340    0.0900580  
O    -5.5384210    3.4032370   -0.3735390  
C    -6.5911550    1.8983470    1.1090960  
H    -8.2394460    0.3749740    3.0911430  
H    -7.2798240    2.6563480    1.4686720  
H    -7.3884880   -2.1742080    3.1723350  
H    -5.6663660   -2.4583560    1.3511260  
