60


C     2.2805430    1.7182430    0.0169800  
C     1.9297740    0.4106800    0.3545050  
C     2.6518140   -0.4784870   -0.4844000  
C     3.4792620    0.3300150   -1.3167990  
N     3.1975800    1.6504380   -1.0376510  
C     4.4072510   -0.1980400   -2.2119860  
C     4.5134910   -1.5819650   -2.2526380  
O     5.4039360   -2.1694070   -3.0846840  
C     3.7020760   -2.4249200   -1.4382350  
O     3.9378070   -3.7574440   -1.6479080  
C     2.7302980   -1.9107800   -0.5734830  
H     1.2165770    0.1593770    1.1202120  
H     3.8276380    2.4063890   -1.2605830  
H     5.0458870    0.4150260   -2.8391850  
H     5.3287740   -3.1298690   -2.9131920  
H     3.9185820   -4.1945430   -0.7590830  
C    -1.6798210   -1.8481270    0.0891600  
C    -0.3942500   -1.6533660   -0.3777770  
C     0.4697320   -2.5444370    0.3266560  
C    -0.4020110   -3.3109760    1.2560620  
N    -1.6756180   -2.8301630    1.0720140  
C     0.0313450   -4.2750110    2.1089220  
C     1.4401040   -4.6143800    2.0772510  
O     1.9610950   -5.4388610    2.8119970  
C     2.3514090   -3.9074800    1.0064660  
O     3.4810150   -4.3794430    0.8616860  
C     1.8380630   -2.7659240    0.2346700  
H    -0.1001340   -0.9538500   -1.1441740  
H    -0.6134220   -4.7864130    2.8156630  
H    -2.5218360   -3.1337720    1.5327190  
C    -2.9210490   -1.2311710   -0.2796800  
C    -3.1724220   -0.2396350   -1.1927650  
C    -4.5958680   -0.0211400   -1.1362170  
C    -5.0839250   -0.9942040   -0.1027050  
N    -4.1038990   -1.6950690    0.3912900  
C    -6.4758300   -1.0867650    0.2477460  
C    -7.3385240   -0.2593210   -0.3895040  
O    -8.6569760   -0.2324310   -0.1676970  
C    -6.8778500    0.7335730   -1.4361580  
O    -7.7421510    1.4392660   -1.9562710  
C    -5.4546610    0.8093400   -1.7777250  
H    -2.4626720    0.2800000   -1.8208750  
H    -6.8052400   -1.7969200    0.9977680  
H    -9.0090310    0.4614650   -0.7704570  
H    -5.1593390    1.5317330   -2.5321500  
C     2.3975640    5.9358750   -1.4800060  
C     2.4433630    4.5783570   -1.3966510  
C     1.9953020    4.2017660   -0.0696940  
C     1.6645480    5.4657140    0.6121660  
N     1.9575850    6.4769790   -0.2816430  
C     1.1657090    5.5873110    1.8764960  
C     0.8954060    4.3767270    2.6142510  
O     0.4397910    4.3481910    3.7497050  
C     1.1903800    2.9968290    1.9107840  
O     0.8600300    1.9874380    2.5058940  
C     1.8431730    2.9764520    0.5627580  
H     2.6961380    3.9164340   -2.2101720  
H     0.9549770    6.5440530    2.3436980  
H     2.6356740    6.5823280   -2.3138230  
H     1.7951540    7.4562700   -0.1069420  
