62


C    -0.5560250   -0.9300080    0.0739250  
C    -0.7666450   -2.2989660    0.1992610  
C    -2.1656020   -2.5145580    0.1300950  
C    -2.7873960   -1.2346940   -0.0386740  
N    -1.7873730   -0.3047070   -0.0454150  
C    -4.1980240   -1.0615390   -0.1038780  
C    -4.9335610   -2.2480840   -0.0309130  
O    -6.3075840   -2.2187600   -0.0870050  
C    -4.3259860   -3.5247750    0.1246070  
O    -5.2411960   -4.5611350    0.1841560  
C    -2.9628170   -3.6758660    0.2126360  
H     0.0008220   -3.0483480    0.3350600  
H    -1.8633130    0.6587580   -0.3433800  
H    -6.6024740   -3.1471120   -0.1375480  
H    -4.7790940   -5.4080300    0.0971080  
H    -2.5146750   -4.6573900    0.3479360  
C     0.6392070   -0.1448810    0.0443010  
C     1.9580860   -0.5247320    0.1385640  
C     2.7191930    0.6911370    0.0552960  
C     1.6832870    1.7642110   -0.0925140  
N     0.4764740    1.2729630   -0.1003920  
C     2.0354070    3.1550570   -0.1924000  
C     3.3516870    3.4605460   -0.1535960  
O     3.8402030    4.7041390   -0.2374100  
C     4.4323900    2.3999270   -0.0444140  
O     5.5903420    2.8067880   -0.1257900  
C     4.0597180    0.9755050    0.0993290  
H     2.3490600   -1.5215510    0.2821920  
H     1.2642250    3.9102100   -0.2944210  
H     4.8189630    4.5880140   -0.2248370  
C     4.9288260   -2.5643170   -2.4166990  
C     6.0596150   -2.9813110   -1.7647400  
C     6.2741070   -2.0748020   -0.6721220  
C     5.2261410   -1.1182010   -0.7136320  
N     4.4288460   -1.4360300   -1.7929280  
C     5.1258280   -0.0389240    0.1945690  
C     6.1127340    0.0263710    1.1825810  
O     6.0476430    0.9933960    2.1396900  
C     7.1600830   -0.9274220    1.2395520  
O     8.0441090   -0.7170460    2.2832800  
C     7.2568330   -1.9635210    0.3305910  
H     6.6732650   -3.8302900   -2.0331490  
H     3.5676480   -0.9671480   -2.0288350  
H     6.8496140    0.9124190    2.6845180  
H     8.7731210   -1.3512670    2.2200040  
H     8.0741070   -2.6793140    0.3958120  
H     4.4300810   -2.9749590   -3.2832650  
C    -7.6084980    0.7657880    2.0516790  
C    -7.5955770    2.0057780    1.5031200  
C    -6.5271040    2.0288980    0.5275390  
C    -5.9032940    0.6797220    0.5673000  
N    -6.5770100   -0.0251040    1.5471720  
C    -4.8419450    0.2706280   -0.2035870  
C    -4.3345440    1.2720070   -1.1615710  
O    -3.4019300    1.0547270   -1.9229620  
C    -4.9902180    2.7038320   -1.2201530  
O    -4.5453940    3.5076670   -2.0241140  
C    -6.0863650    3.0039130   -0.3095640  
H    -8.2502010    2.8294310    1.7483230  
H    -6.5240980    3.9966790   -0.3436350  
H    -8.2700520    0.3576740    2.8049580  
H    -6.6303270   -1.0361490    1.4964090  
