62


C     0.0947690    1.4619170   -0.7525170  
C     0.0068510    2.7718970   -1.1506050  
C    -1.3712550    3.1499850   -1.0250740  
C    -2.0814550    2.0146820   -0.5623220  
N    -1.1653230    0.9895420   -0.4110380  
C    -3.4746070    2.0221610   -0.2993070  
C    -4.1262610    3.2492040   -0.5051590  
O    -5.4575950    3.3647660   -0.2593710  
C    -3.4255290    4.3832510   -0.9880590  
O    -4.2307500    5.4907680   -1.1549690  
C    -2.0701300    4.3506200   -1.2530590  
H     0.8223570    3.3781910   -1.5186810  
H    -1.3507650    0.1275000    0.0830630  
H    -5.7211090    4.2671900   -0.5152800  
H    -3.7203270    6.2163360   -1.5438360  
H    -1.5559570    5.2376320   -1.6158500  
C     2.4326560    1.0345210   -0.0459070  
C     3.3866520    0.0687200   -0.1366090  
C     2.7631450   -1.0568270   -0.8350690  
C     1.3764410   -0.6461680   -1.1515070  
N     1.2171640    0.6373360   -0.6297340  
C     0.4859410   -1.4111390   -1.8332120  
C     0.8977850   -2.7452210   -2.2604190  
O     0.1618130   -3.5014520   -2.8758840  
C     2.3518300   -3.2163420   -1.8998490  
O     2.7122070   -4.3342530   -2.2296410  
C     3.2281600   -2.2823890   -1.1807760  
H    -0.5132890   -1.0779820   -2.0900750  
H     4.2424950   -2.6007200   -0.9699340  
H     2.4982460    2.0218090    0.3915990  
C     4.7960730    1.0311280    3.9363190  
C     6.1410970    0.9323710    3.6976190  
C     6.3004700    0.5831600    2.3137880  
C     4.9990490    0.4899920    1.7568390  
N     4.1021060    0.7828920    2.7645750  
C     4.7533480    0.1407980    0.4108470  
C     5.8815330   -0.1160690   -0.3709640  
O     5.7331510   -0.4404670   -1.6893050  
C     7.1892900   -0.0257740    0.1715500  
O     8.1846010   -0.3046540   -0.7463280  
C     7.4125770    0.3224550    1.4896330  
H     6.9288500    1.0906860    4.4212160  
H     3.1024960    0.6778030    2.6877390  
H     6.6252690   -0.5847390   -2.0510680  
H     9.0501870   -0.2451070   -0.3160370  
H     8.4264390    0.3856990    1.8795110  
H     4.2641220    1.2690270    4.8466470  
C    -4.1859510    0.8390690    0.1641930  
C    -5.3027530    0.7169190    0.9432390  
C    -5.5830200   -0.6828750    1.1270570  
C    -4.5424860   -1.4119010    0.3677640  
N    -3.6624020   -0.4493770   -0.1407100  
C    -4.4982560   -2.7565810    0.2289410  
C    -5.5234580   -3.5573230    0.9052280  
O    -5.5584010   -4.7752660    0.8399790  
C    -6.6064320   -2.8060760    1.7626110  
O    -7.4547350   -3.4641630    2.3470560  
C    -6.5557680   -1.3465280    1.8114780  
H    -5.8596540    1.5376600    1.3670760  
H    -3.7358900   -3.2780140   -0.3424380  
H    -7.3218980   -0.8335400    2.3848400  
H    -3.2465710   -0.6042320   -1.0526100  
