58


C     1.7767890   -0.5543620   -0.5050190  
C     3.0372500   -0.0661800   -0.6503750  
C     2.9969680    1.3260890   -0.2110420  
C     1.5986290    1.6053440    0.1893350  
N     0.8757460    0.4136300   -0.0368890  
C     1.1933650    2.7786350    0.7248720  
C     2.1712800    3.8648350    0.8583730  
O     1.8804410    4.9491650    1.3343290  
C     3.6348500    3.6128690    0.3610160  
O     4.4507250    4.5170670    0.4204250  
C     3.9627310    2.2772320   -0.1499090  
H     0.1764380    2.9846460    1.0314410  
H     4.9878780    2.0904900   -0.4518590  
H     1.4071510   -1.5455600   -0.7269830  
C    -1.1406120   -2.9630340    1.9513550  
C    -0.1593910   -2.1514430    1.4875870  
C    -0.8561270   -1.0250440    0.8801170  
C    -2.2967460   -1.3340090    1.0684530  
N    -2.4481650   -2.4714320    1.6884280  
C    -3.3764380   -0.4476940    0.6063640  
C    -2.9490770    0.7108010    0.0080480  
O    -3.7882390    1.6748590   -0.4369350  
C    -1.5268220    1.0503340   -0.2121780  
O    -1.2681580    2.0924020   -0.8199120  
C    -0.4556500    0.1246350    0.2758910  
H     0.9089830   -2.2839260    1.5811060  
H    -3.2044170    2.3614080   -0.8295010  
H    -1.0368510   -3.8989000    2.4863670  
C    -5.2421620   -1.6450720    1.8110920  
C    -4.7657610   -0.8121430    0.8242800  
C    -5.9821980   -0.4398860    0.0637190  
C    -7.0859700   -1.1459300    0.7843930  
N    -6.6364570   -1.8325820    1.8027460  
C    -8.4567410   -1.0661050    0.3648790  
C    -8.7362310   -0.3462600   -0.7485260  
O    -9.9627770   -0.1925360   -1.2643040  
C    -7.6475910    0.3458020   -1.5226310  
O    -7.9739440    0.9678610   -2.5313280  
C    -6.2475480    0.2591100   -1.0574110  
H    -9.2232330   -1.5860250    0.9285480  
H    -9.8435340    0.3684540   -2.0627440  
H    -5.5055130    0.7925640   -1.6360770  
H    -4.6508850   -2.1498510    2.5603040  
C     4.1982630   -1.4719710   -2.3902700  
C     4.1796270   -0.7892020   -1.2075660  
C     5.5015980   -0.9673020   -0.6077170  
C     6.2769350   -1.8068640   -1.5538940  
N     5.4207290   -2.0859580   -2.6047990  
C     7.5620490   -2.1959450   -1.3642910  
C     8.2389620   -1.7806390   -0.1371390  
O     9.3939330   -2.0801290    0.1195180  
C     7.4269180   -0.9191190    0.8967780  
O     7.9620310   -0.5845270    1.9403130  
C     6.0435520   -0.5514020    0.5660220  
H     8.1119080   -2.8086610   -2.0720450  
H     5.4988630    0.0485880    1.2877630  
H     3.4103960   -1.5609820   -3.1269960  
H     5.6795500   -2.5876260   -3.4401870  
