58


C     5.3514180   -0.2943600   -1.5399520  
C     4.2150710   -0.5199330   -0.8176620  
C     4.1698960   -1.9386270   -0.5033600  
C     5.3855800   -2.5235160   -1.1173370  
N     6.0584020   -1.4706850   -1.7160930  
C     5.7112230   -3.8380440   -1.0591970  
C     4.8124140   -4.7463670   -0.3446780  
O     5.0212610   -5.9440890   -0.2469400  
C     3.5225960   -4.1418920    0.3222780  
O     2.7595940   -4.8813820    0.9218480  
C     3.2856860   -2.7010970    0.1898290  
H     6.6049610   -4.2541910   -1.5136410  
H     2.4008900   -2.2902310    0.6656480  
H     5.7202270    0.6375110   -1.9467940  
H     6.9474570   -1.5462720   -2.1857610  
C     1.9040250    0.3956290   -0.7850560  
C     1.2142430    1.4701510   -0.3066890  
C     2.1890290    2.2904880    0.4194740  
C     3.4878990    1.5869920    0.3212270  
N     3.2582980    0.4344210   -0.4310450  
C     4.6447390    2.0213140    0.8810190  
C     4.6229850    3.2656680    1.6445960  
O     5.6138100    3.7315380    2.1859400  
C     3.2546090    4.0248530    1.7708120  
O     3.2064300    5.0579940    2.4168710  
C     2.0736950    3.4523680    1.1081560  
H     5.5841460    1.4853120    0.8001970  
H     1.1421660    4.0011450    1.1832800  
H     1.5500540   -0.4142860   -1.4098160  
C    -2.2804760   -1.0487250    0.4442040  
C    -3.2877720   -0.2539070   -0.0400940  
C    -2.6469820    0.9869290   -0.4868550  
C    -1.1928130    0.8090680   -0.2559620  
N    -1.0444610   -0.4561200    0.2764280  
C    -0.2169000    1.7361810   -0.5047640  
C    -0.6672620    3.0354730   -1.0352510  
O     0.1028670    3.9379820   -1.3221310  
C    -2.2063200    3.2646250   -1.2430640  
O    -2.5808930    4.3556770   -1.6423810  
C    -3.1308140    2.1700570   -0.9496270  
H    -4.1830650    2.3461110   -1.1267800  
H    -2.3650250   -2.0156460    0.9158620  
H    -0.1826060   -0.7961980    0.6762620  
C    -5.4923220   -2.7555800    2.7930580  
C    -6.7591800   -2.6779380    2.3303700  
C    -6.6800900   -1.8335950    1.1426720  
C    -5.2305610   -1.4692240    1.0437710  
N    -4.5488080   -2.0128450    2.0089430  
C    -4.7069970   -0.6088690   -0.0201290  
C    -5.6260680   -0.2144020   -0.9534950  
O    -5.3205500    0.5106110   -2.0469070  
C    -7.0780790   -0.5657840   -0.8738490  
O    -7.8151910   -0.1521830   -1.7700440  
C    -7.5745370   -1.3987890    0.2376940  
H    -7.6512610   -3.1352150    2.7349720  
H    -6.1764320    0.6371900   -2.5163650  
H    -8.6356540   -1.6278830    0.2542750  
H    -5.1261190   -3.2948120    3.6581480  
