60


C    -1.0502680   -0.3548840    3.2889290  
C    -2.3391930   -0.5102500    2.8494450  
C    -2.4338650    0.1735640    1.5905780  
C    -1.1560110    0.7244380    1.3127840  
N    -0.3384030    0.3934780    2.3712360  
C    -0.8620360    1.4763100    0.1540290  
C    -1.9155710    1.6416900   -0.7498280  
O    -1.7053920    2.2951350   -1.9196660  
C    -3.2099150    1.1203110   -0.4908890  
O    -4.1507570    1.4432060   -1.4448730  
C    -3.4795570    0.3993930    0.6694580  
H    -3.1234970   -1.0526830    3.3577930  
H     0.6474330    0.6021400    2.4190810  
H    -2.5603610    2.3138930   -2.3883970  
H    -4.7770640    0.7069480   -1.5731140  
H    -0.5725780   -0.7188150    4.1874380  
C     3.3353860   -0.1234000   -0.0621360  
C     1.9650690   -0.0381660    0.0631360  
C     1.6412960    1.3510620   -0.0927630  
C     2.9694860    2.0142310   -0.3076670  
N     3.9473780    1.1531640   -0.2808020  
C     3.0893600    3.4288720   -0.5282630  
C     1.9456830    4.1512190   -0.5326170  
O     1.8920290    5.4730740   -0.7230680  
C     0.5852840    3.5235140   -0.2831710  
O    -0.3625720    4.3024840   -0.2153550  
C     0.4697860    2.0607980   -0.0918120  
H     1.2603120   -0.8453050    0.2047240  
H     4.0625660    3.8790430   -0.6880670  
H     0.9389140    5.7059740   -0.6338770  
C     3.7513420   -2.5905170    0.0963130  
C     4.1795570   -1.2875380   -0.0206970  
C     5.6455930   -1.3472660   -0.0982010  
C     6.0062250   -2.7817390   -0.0103270  
N     4.8065150   -3.4695260    0.1071070  
C     7.2674630   -3.2763910   -0.0424780  
C     8.3735720   -2.3293510   -0.1721260  
O     9.5438370   -2.6743450   -0.2081340  
C     8.0203280   -0.8011460   -0.2660770  
O     8.9273770    0.0073300   -0.3717000  
C     6.6063210   -0.3974810   -0.2215590  
H     7.4985380   -4.3351610    0.0236230  
H     6.3611820    0.6550740   -0.2925150  
H     2.7383640   -2.9638880    0.1691230  
H     4.7234680   -4.4735130    0.1646290  
C    -5.5694210    0.2835980    2.0444830  
C    -6.8112820   -0.2530300    1.9806810  
C    -6.8858410   -1.0206350    0.7545230  
C    -5.5555090   -0.8880460    0.1071310  
N    -4.7918240   -0.0817270    0.9316200  
C    -5.2137450   -1.4815080   -1.0729380  
C    -6.2117600   -2.3052610   -1.7524520  
O    -5.9863510   -2.8994650   -2.7950340  
C    -7.6342740   -2.4332940   -1.0965730  
O    -8.4924120   -3.0894400   -1.6635790  
C    -7.8727150   -1.7594060    0.1857160  
H    -7.6037000   -0.1262620    2.7039280  
H    -4.2101550   -1.4468060   -1.4873080  
H    -8.8515030   -1.8792630    0.6405000  
H    -5.1283740    0.9289130    2.7917930  
