64


C    -1.7348470   -0.5566300    1.3732850  
C    -0.6778180    0.3095820    1.3050380  
C    -0.9123110    1.1821260    0.1859100  
C    -2.1571120    0.7977530   -0.3783380  
N    -2.6434910   -0.2770440    0.3567330  
C    -2.7487980    1.4709080   -1.4514570  
C    -2.0645770    2.5633390   -1.9568380  
O    -2.5849770    3.2829040   -2.9915650  
C    -0.8112740    2.9645760   -1.4222100  
O    -0.2492080    4.0528370   -2.0643260  
C    -0.1984600    2.2795870   -0.3710690  
H     0.1740360    0.3152500    1.9695020  
H    -3.6998680    1.1735800   -1.8763940  
H    -1.9409410    3.9976760   -3.1562620  
H     0.0574640    4.6748550   -1.3721370  
H    -1.9159340   -1.3900640    2.0371730  
C    -5.9818010   -0.5103030    3.1339710  
C    -6.8055320   -1.2848160    2.3584620  
C    -6.1096900   -1.5448090    1.1289970  
C    -4.8545190   -0.8928900    1.2268250  
N    -4.8000810   -0.2731970    2.4556070  
C    -3.8962840   -0.9236690    0.1968640  
C    -4.2225020   -1.6283240   -0.9600350  
O    -3.3335500   -1.7014560   -1.9874250  
C    -5.4851680   -2.2692890   -1.0731950  
O    -5.6628720   -2.9158200   -2.2831180  
C    -6.4195930   -2.2434800   -0.0553970  
H    -7.7937410   -1.6300070    2.6298770  
H    -4.0252650    0.2836490    2.7823940  
H    -3.7388810   -2.2549320   -2.6775130  
H    -6.4911580   -3.4170080   -2.2614010  
H    -7.3769040   -2.7467160   -0.1752880  
H    -6.1351230   -0.1033190    4.1234630  
C     3.4502820   -0.1786900    0.2026540  
C     4.2770400    0.8469090    0.6659310  
C     3.5095220    2.0384680    0.6993860  
C     2.1970340    1.7028840    0.2507570  
N     2.1969710    0.3645310   -0.0423620  
C     1.1519340    2.6512850    0.1219710  
C     1.5076560    3.9560100    0.4578870  
O     0.5783530    4.9699990    0.3410590  
C     2.8058300    4.3095600    0.9142010  
O     2.9392950    5.6564100    1.1996240  
C     3.8071010    3.3745910    1.0465170  
H     5.2976350    0.7366640    0.9994030  
H     1.3972880   -0.2054500   -0.2928670  
H     1.0111970    5.7898740    0.6417620  
H     3.8322730    5.8314660    1.5311030  
H     4.7983490    3.6609760    1.3908570  
C     7.2324920   -2.4862400   -0.3302350  
C     6.3104610   -1.4910190   -0.2435310  
C     5.0086310   -2.1084490   -0.1100280  
C     5.2483740   -3.5643540   -0.1403230  
N     6.6150070   -3.7280250   -0.2417120  
C     4.2906650   -4.5332530   -0.0692440  
C     2.9124120   -4.1110540    0.0054940  
O     1.9587970   -4.8722960    0.0981290  
C     2.6121400   -2.5658200   -0.0527610  
O     1.4428850   -2.2301260   -0.1713120  
C     3.7336000   -1.5859760    0.0171080  
H     6.5157570   -0.4354090   -0.3168260  
H     4.5153050   -5.5950070   -0.0591420  
H     8.3048340   -2.4225010   -0.4568940  
H     7.0757350   -4.6181230   -0.3468130  
