60


C    -2.6775250   -1.0835320    1.7105730  
C    -3.7821550   -0.4508490    1.1939990  
C    -3.3159230    0.6721790    0.4209920  
C    -1.9050240    0.6708080    0.5322110  
N    -1.5468920   -0.3822820    1.3554000  
C    -1.0837070    1.6456720   -0.0838580  
C    -1.7525800    2.5616230   -0.9082160  
O    -1.0487380    3.4648460   -1.6394830  
C    -3.1690380    2.5646630   -1.0224920  
O    -3.6491870    3.5607490   -1.8492570  
C    -3.9597810    1.6551070   -0.3527560  
H    -0.6243740   -0.7990230    1.2723500  
H    -1.6959280    3.9977840   -2.1349340  
H    -4.5928950    3.4207730   -2.0175480  
H    -5.0425850    1.6815130   -0.4438050  
H    -2.6160780   -1.9813360    2.3091310  
C     2.1595920   -1.3532920   -0.1632380  
C     3.2938770   -0.5804830   -0.0863220  
C     2.7760570    0.7920860    0.0758270  
C     1.2930480    0.6419900    0.0296460  
N     0.9648420   -0.6297660   -0.0852490  
C     0.3797690    1.7618090    0.1213750  
C     0.9769300    2.9632270    0.4166120  
O     0.3029300    4.0882140    0.6570690  
C     2.4693290    3.1404740    0.4994990  
O     2.8918020    4.2667620    0.7530360  
C     3.3605620    1.9824520    0.2949410  
H     0.9892230    4.7757260    0.8166880  
H     4.4336990    2.1187650    0.3552820  
H     2.1067960   -2.4306460   -0.2691180  
C     4.6648810   -0.9898070   -0.1323550  
C     5.1933710   -2.2479770   -0.3191890  
C     6.6169840   -2.0875600   -0.2765440  
C     6.8184840   -0.6142660   -0.0479920  
N     5.6839270    0.0164910    0.0338310  
C     8.1327940   -0.0392310    0.0577090  
C     9.1904530   -0.8767680   -0.0579290  
O    10.4682800   -0.4928860    0.0175540  
C     9.0210740   -2.3683860   -0.2896310  
O    10.0561070   -3.0315050   -0.3779010  
C     7.6781160   -2.9287820   -0.3929300  
H     4.6569200   -3.1735520   -0.4752210  
H     8.2533890    1.0255810    0.2227130  
H    10.9907540   -1.3197210   -0.1035770  
H     7.5926870   -3.9980550   -0.5586490  
C    -5.7847320   -0.7745920    2.6550510  
C    -7.0744720   -1.1864310    2.5565040  
C    -7.3108650   -1.5226440    1.1697100  
C    -6.0276950   -1.2757770    0.4635880  
N    -5.1284470   -0.8181420    1.4212340  
C    -5.8306530   -1.4831690   -0.8638400  
C    -6.9527450   -1.9666110   -1.6631070  
O    -6.8748060   -2.1723400   -2.8655250  
C    -8.3245540   -2.2284760   -0.9373190  
O    -9.2733550   -2.6302550   -1.5940100  
C    -8.4054450   -1.9771040    0.5025870  
H    -7.7928270   -1.2463360    3.3612370  
H    -4.8805420   -1.3050380   -1.3556030  
H    -9.3545900   -2.1673960    0.9947120  
H    -5.2324680   -0.4299410    3.5193310  
