58


C    -3.0283190   -1.2701350   -1.7224400  
C    -4.2795060   -1.7825540   -1.7843940  
C    -4.3897200   -2.7914310   -0.7499360  
C    -3.0750440   -2.8308950   -0.0671130  
N    -2.2770490   -1.8641810   -0.6905330  
C    -2.7827770   -3.6352070    0.9822460  
C    -3.8235420   -4.5403260    1.4729780  
O    -3.6548440   -5.2886880    2.4220250  
C    -5.2196940   -4.5280710    0.7517340  
O    -6.0981320   -5.2776830    1.1458980  
C    -5.4126200   -3.5975940   -0.3652970  
H    -5.0503550   -1.5020820   -2.4878370  
H    -1.8161910   -3.6562700    1.4729040  
H    -6.3850030   -3.5825720   -0.8480580  
H    -2.5570360   -0.5229840   -2.3472920  
C    -0.3604250    1.8362450    0.3517590  
C     0.9458580    1.4199550    0.3336610  
C     0.9515350    0.0131840    0.0445340  
C    -0.4593800   -0.3652380   -0.1300910  
N    -1.2210650    0.7876650    0.0272390  
C    -0.9157290   -1.6132040   -0.4362120  
C     0.0968620   -2.6653990   -0.6515810  
O    -0.1866490   -3.7774270   -1.0526150  
C     1.5980880   -2.3137920   -0.3536220  
O     2.3770540   -3.2430550   -0.2713920  
C     1.9775860   -0.9003420   -0.1063730  
H     1.8155330    2.0493470    0.4371600  
H    -2.1875530    0.7536740    0.3246550  
C     3.3802780   -0.5537100    0.0237340  
C     3.9661670    0.3530250    0.8704350  
C     5.3810230    0.3055820    0.5791990  
C     5.4915330   -0.7004620   -0.5264490  
N     4.3350930   -1.2009750   -0.8424000  
C     6.7619050   -1.0227170   -1.1257900  
C     7.8623120   -0.4021880   -0.6396600  
O     9.1070020   -0.6083570   -1.0922740  
C     7.7833230    0.6039620    0.4850210  
O     8.8375270    1.1190860    0.8569400  
C     6.4763640    0.9286150    1.0718400  
H     3.4949070    0.9226080    1.6588850  
H     6.8142470   -1.7499580   -1.9281440  
H     9.6818400   -0.0246940   -0.5483420  
H     6.4600700    1.6627810    1.8716490  
C    -0.1941690    4.0148830    1.4749140  
C    -0.8978770    5.1591020    1.6007120  
C    -2.1085570    5.0257040    0.8144740  
C    -2.0580260    3.6802860    0.1935950  
N    -0.8658740    3.0864180    0.6484060  
C    -2.9939120    3.2117930   -0.6673520  
C    -4.1521130    4.0609780   -0.9726730  
O    -5.0331510    3.7072730   -1.7371700  
C    -4.2440210    5.4675190   -0.2886190  
O    -5.2088620    6.1774900   -0.5114660  
C    -3.1419900    5.8752380    0.5923210  
H    -0.6169660    6.0171990    2.1942750  
H    -2.9361420    2.2556930   -1.1727400  
H    -3.1903270    6.8654760    1.0346650  
H     0.7432080    3.7233530    1.9263410  
