62


C    -1.5588040    0.4418910    2.1836130  
C    -2.6118150    0.6499060    1.3215760  
C    -2.1240190    1.4316870    0.2151000  
C    -0.7521100    1.6663740    0.4704360  
N    -0.4428240    1.0640960    1.6758880  
C     0.0822410    2.4165930   -0.3852390  
C    -0.5230300    2.9235370   -1.5345380  
O     0.2122490    3.6285760   -2.4343770  
C    -1.9030160    2.6988340   -1.8000700  
O    -2.3352910    3.2757230   -2.9772190  
C    -2.7078590    1.9683170   -0.9488850  
H     0.4728500    1.0688280    2.0989790  
H    -0.3863210    3.8830160   -3.1582970  
H    -3.2478710    3.0053680   -3.1577860  
H    -3.7593090    1.8105420   -1.1753240  
H    -1.5257460   -0.1073630    3.1134000  
C     3.3971400   -0.4839090    0.0618020  
C     4.3940740    0.4392360    0.3714050  
C     3.8039220    1.7294680    0.3607870  
C     2.4256260    1.5594320    0.0412770  
N     2.2041270    0.2158720   -0.1226820  
C     1.5169000    2.6329340   -0.0729630  
C     2.0457600    3.9052620    0.1479680  
O     1.2377160    4.9944570    0.0892740  
C     3.4242620    4.0921610    0.4636010  
O     3.7644740    5.4179390    0.6532280  
C     4.2994490    3.0350650    0.5765210  
H     5.4208670    0.1809560    0.5751450  
H     1.3463080   -0.2176740   -0.4345890  
H     1.7980850    5.7772280    0.2336240  
H     4.7186640    5.4893890    0.8036810  
H     5.3458960    3.2027250    0.8220220  
C    -4.7839040    0.6160530    2.5576800  
C    -5.9990300    0.0149850    2.4871440  
C    -5.9809570   -0.8501420    1.3280860  
C    -4.6297710   -0.7042150    0.7290510  
N    -3.9386850    0.2056060    1.5223680  
C    -4.2072890   -1.3650600   -0.3793200  
C    -5.1392080   -2.2720970   -1.0426420  
O    -4.8522500   -2.9032820   -2.0493650  
C    -6.5794640   -2.4369050   -0.4297110  
O    -7.3718900   -3.1894190   -0.9762210  
C    -6.9101430   -1.6759400    0.7764200  
H    -6.8278970    0.1604780    3.1646600  
H    -3.2125950   -1.2461750   -0.7946780  
H    -7.9043460   -1.8019130    1.1947160  
H    -4.4098390    1.3387870    3.2707730  
C     6.7869930   -3.2504850    0.5642900  
C     6.2126620   -4.4418930    0.2892400  
C     4.8176150   -4.1327940   -0.0067120  
C     4.7271880   -2.6469280    0.1425670  
N     5.8793870   -2.1457870    0.4765340  
C     3.4664290   -1.9211810   -0.0744240  
C     2.3933640   -2.7111460   -0.4136850  
O     1.1496900   -2.2141290   -0.6497690  
C     2.4621990   -4.1772350   -0.5640900  
O     1.4282880   -4.7818490   -0.8753500  
C     3.7460640   -4.8723200   -0.3426120  
H     6.6677970   -5.4225710    0.2840780  
H     0.6061590   -3.0032050   -0.8780460  
H     3.7542450   -5.9515240   -0.4635500  
H     7.8163090   -3.0464350    0.8328030  
