62


C    -0.7547820    1.3462970    0.4555810  
C    -1.8716230    0.5121010    0.5852160  
C    -3.0329780    1.3045500    0.3949100  
C    -2.5860530    2.6349120    0.1378290  
N    -1.2186510    2.6285730    0.1924870  
C    -3.4645160    3.6887870   -0.1337110  
C    -4.8181320    3.3954870   -0.1463840  
O    -5.7209760    4.3798300   -0.3995120  
C    -5.2911690    2.0768210    0.1175000  
O    -6.6675800    1.9912840    0.1066620  
C    -4.4298640    1.0187980    0.3886380  
H    -1.8455240   -0.5579410    0.7183600  
H    -0.5805630    3.3828850   -0.0301280  
H    -3.1284560    4.6998060   -0.3367420  
H    -6.6061460    3.9752790   -0.3744870  
H    -6.9500530    1.0681740    0.2015310  
C     1.5953880   -2.1125030    2.0409820  
C     0.6093170   -1.2150180    1.7650410  
C     1.2006430   -0.1249730    1.0259950  
C     2.6164490   -0.4608270    0.8856830  
N     2.7903750   -1.6984070    1.4735320  
C     3.5995880    0.3144210    0.2919100  
C     3.1663120    1.6590680   -0.0768880  
O     3.9196160    2.5516430   -0.4546110  
C     1.6357090    2.0376920    0.0197130  
O     1.3506580    3.1813950   -0.3178120  
C     0.6573730    1.0513030    0.5134100  
H    -0.4154200   -1.2863540    2.0906530  
H     1.5520770   -3.0369860    2.6006790  
H     3.7035960   -2.0519200    1.7219530  
C     4.9650760   -0.1193340    0.0857630  
C     5.5310770   -1.3974020    0.0777370  
C     6.9198110   -1.2526470   -0.1989770  
C     7.1677240    0.1422500   -0.3539790  
N     5.9750630    0.7955330   -0.1701110  
C     8.4385080    0.6541440   -0.6427870  
C     9.4766490   -0.2535070   -0.7806260  
O    10.7338650    0.1889140   -1.0632530  
C     9.2475660   -1.6517440   -0.6308740  
O    10.3846760   -2.4186630   -0.7975820  
C     7.9956780   -2.1562840   -0.3442730  
H     4.9950870   -2.3335250    0.1485920  
H     5.7702130    1.7777130   -0.3082010  
H     8.6314220    1.7148540   -0.7632200  
H    11.3084080   -0.5934390   -1.1292930  
H    10.1566820   -3.3569420   -0.7219780  
H     7.8454140   -3.2286210   -0.2348930  
C    -4.6020350   -1.1030730    1.7658150  
C    -4.9381590   -0.3320530    0.6889300  
C    -5.8841990   -1.1265100   -0.0939730  
C    -6.0689380   -2.4072430    0.6353370  
N    -5.2513540   -2.3300990    1.7456710  
C    -6.8852940   -3.4123700    0.2313620  
C    -7.6374380   -3.2422730   -1.0098250  
O    -8.4034740   -4.0875140   -1.4447330  
C    -7.4377490   -1.9076280   -1.8161720  
O    -8.0390800   -1.7547940   -2.8665970  
C    -6.5304160   -0.8908440   -1.2695930  
H    -7.0049800   -4.3416690    0.7800140  
H    -6.3870810    0.0166360   -1.8482170  
H    -3.9309430   -0.8582700    2.5784260  
H    -5.1805340   -3.0380090    2.4596690  
