58


C    -6.0544550   -1.2015020    1.9177340  
C    -5.4758100   -0.5709180    0.8499210  
C    -6.5799380    0.0031230    0.0709890  
C    -7.8279720   -0.3610650    0.7838210  
N    -7.4363950   -1.0996650    1.8862410  
C    -9.0786040   -0.0163840    0.3861910  
C    -9.2250360    0.7550350   -0.8442860  
O   -10.3069250    1.1087450   -1.2866080  
C    -7.9188660    1.1304140   -1.6331620  
O    -8.0159910    1.7491500   -2.6796410  
C    -6.6203790    0.7140380   -1.0828650  
H    -9.9759850   -0.2917760    0.9317580  
H    -5.7295400    1.0159970   -1.6209640  
H    -5.5713600   -1.7089960    2.7430990  
H    -8.0560570   -1.4053890    2.6205840  
C    -2.4341920   -3.7155980    0.7971510  
C    -1.3297210   -2.9729990    0.5189980  
C    -1.7509930   -1.5977580    0.3718190  
C    -3.2078180   -1.5953980    0.6074340  
N    -3.5579410   -2.9050510    0.8766480  
C    -4.0395560   -0.5042320    0.5624760  
C    -3.3873930    0.7771620    0.2734760  
O    -3.9844880    1.8400450    0.2238460  
C    -1.8277830    0.8121440    0.0415910  
O    -1.3306270    1.9020030   -0.1859890  
C    -1.0448180   -0.4448080    0.0836230  
H    -0.3185280   -3.3426330    0.4530740  
H    -2.5211610   -4.7796670    0.9717300  
H    -4.5140730   -3.2262600    0.9079690  
C     1.0552790   -1.4075040   -0.9367430  
C     0.3725660   -0.4441650   -0.2420020  
C     1.4237770    0.5417300    0.1090930  
C     2.6758340   -0.0362980   -0.4523340  
N     2.4357030   -1.1654440   -1.0683620  
C     3.9817810    0.6027180   -0.3130870  
C     3.9789780    1.7982230    0.3543640  
O     5.0739920    2.5628560    0.5260140  
C     2.7461790    2.3889510    0.9449470  
O     2.8499310    3.4644300    1.5378440  
C     1.4463990    1.7004820    0.7899100  
H     4.7621990    3.3440410    1.0368590  
H     0.5740900    2.1905250    1.2033670  
H     0.6380650   -2.2865830   -1.4119540  
C     5.1870270   -0.7893700   -2.0198310  
C     5.1736590   -0.0326430   -0.8756040  
C     6.5424490   -0.0623060   -0.3523470  
C     7.3350110   -0.8730810   -1.3120550  
N     6.4504730   -1.2672050   -2.2982160  
C     8.6559080   -1.1572530   -1.1933290  
C     9.3706640   -0.6530480   -0.0255240  
O    10.5593620   -0.8552230    0.1701730  
C     8.5508680    0.1744160    1.0270780  
O     9.1192570    0.5883250    2.0254650  
C     7.1263360    0.4214240    0.7753370  
H     9.2036860   -1.7547390   -1.9157920  
H     6.5904990    1.0121590    1.5064410  
H     4.3557200   -1.0346010   -2.6629050  
H     6.6871890   -1.8543350   -3.0829790  
