60


C     0.0231530    2.0861070   -0.1403500  
C    -1.2093370    1.4648280   -0.3346080  
C    -0.9766850    0.0680390   -0.4543740  
C     0.4273920   -0.1320560   -0.3295540  
N     0.9987850    1.0965270   -0.1532330  
C     1.0370160   -1.4131760   -0.3521750  
C     0.1421210   -2.4888980   -0.4546960  
O     0.6047930   -3.7736420   -0.4677910  
C    -1.2581240   -2.3040760   -0.5933010  
O    -1.9320670   -3.4951130   -0.7635040  
C    -1.8482660   -1.0449610   -0.6097820  
H    -2.1743380    1.9449970   -0.3051780  
H     1.9491370    1.3008330    0.1355040  
H    -0.1727270   -4.3577350   -0.5441400  
H    -2.8901890   -3.3651580   -0.6770300  
C    -3.9018010   -0.0581100   -1.7178360  
C    -3.2976940   -0.8736770   -0.8012170  
C    -4.3792470   -1.5350040   -0.0744090  
C    -5.6487840   -1.0420620   -0.6659410  
N    -5.2828950   -0.1367770   -1.6455630  
C    -6.8846660   -1.4326980   -0.2695280  
C    -6.9928460   -2.4034950    0.8198450  
O    -8.0623110   -2.8216850    1.2315760  
C    -5.6651640   -2.9157130    1.4861570  
O    -5.7323840   -3.7049120    2.4133280  
C    -4.3858170   -2.4197290    0.9619780  
H    -7.8015850   -1.0576890   -0.7138640  
H    -3.4795130   -2.7577990    1.4559580  
H    -3.4322880    0.5852780   -2.4502830  
H    -5.9252480    0.3339730   -2.2638350  
C     2.4831110   -1.5877610   -0.2712870  
C     3.4901250   -0.6942510   -0.5580860  
C     4.7502840   -1.3506510   -0.3321080  
C     4.4204680   -2.7252700    0.1183120  
N     3.0463890   -2.7959540    0.1561240  
C     5.3429840   -3.6762290    0.4167700  
C     6.7559290   -3.3350160    0.2932160  
O     7.6567930   -4.1250880    0.5360200  
C     7.1292220   -1.8796660   -0.1762830  
O     8.3095640   -1.5802120   -0.2856940  
C     6.0435100   -0.9442970   -0.4670090  
H     3.3760730    0.3046490   -0.9495880  
H     5.0823970   -4.6780600    0.7441370  
H     6.3126230    0.0571800   -0.7889080  
H     2.5024190   -3.6374730    0.2751270  
C    -2.1675970    5.9297760   -0.7755840  
C    -1.7822180    4.6240560   -0.7944850  
C    -0.4856280    4.5388110   -0.1635600  
C    -0.1351630    5.9232200    0.2182530  
N    -1.2072920    6.7109890   -0.1545010  
C     1.0205080    6.3149890    0.8213020  
C     2.0155490    5.2995940    1.0874310  
O     3.0878960    5.5128400    1.6319100  
C     1.7050850    3.8231080    0.6358380  
O     2.6165770    3.0125710    0.7455550  
C     0.3638560    3.4756700    0.0932570  
H    -2.3333320    3.8167350   -1.2473580  
H     1.2288250    7.3400820    1.1097830  
H    -3.0674080    6.3859200   -1.1661490  
H    -1.2383070    7.7142920   -0.0622770  
