62


C     1.9501780   -0.3654590    0.1261090  
C     0.9791150    0.5976790    0.2195030  
C     1.6736720    1.8730710    0.3114840  
C     3.0623300    1.6083520    0.2620530  
N     3.2174280    0.2178480    0.1347130  
C     4.0240110    2.6141350    0.4121670  
C     3.5714380    3.9168020    0.5758400  
O     4.4713820    4.9249370    0.7132840  
C     2.1817340    4.2019180    0.6164340  
O     1.8934100    5.5348160    0.7943540  
C     1.2353650    3.1993870    0.4985640  
H     5.0890230    2.4197090    0.4402350  
H     3.9740050    5.7499500    0.8520340  
H     0.9367000    5.6599390    0.8849940  
H     0.1759390    3.4315470    0.5640840  
H     1.8515130   -1.4311150   -0.0147030  
C    -1.6218410   -2.2112720    2.5485290  
C    -0.5590330   -1.5106220    2.0455840  
C    -1.0718300   -0.6439120    1.0220270  
C    -2.4691090   -0.8757220    0.9444340  
N    -2.7716440   -1.8459880    1.8731330  
C    -3.3338200   -0.1641960    0.0747700  
C    -2.7149640    0.8406270   -0.6849970  
O    -3.4515500    1.5996300   -1.5546260  
C    -1.3242230    1.0785480   -0.6219080  
O    -0.9066460    2.0757470   -1.4839730  
C    -0.4717510    0.3513270    0.2079780  
H     0.4663660   -1.5846410    2.3765520  
H    -3.7108930   -2.0950010    2.1438510  
H    -2.8251610    2.1710570   -2.0354940  
H     0.0633170    2.0755110   -1.5363120  
H    -1.6616370   -2.9528750    3.3335420  
C    -4.7551740   -0.4668800   -0.0209210  
C    -5.4237420   -1.6341620    0.2807150  
C    -6.8227180   -1.4326750    0.0153970  
C    -6.9473840   -0.0369340   -0.4738890  
N    -5.6758650    0.4933350   -0.4496430  
C    -8.1161950    0.5403060   -0.8525950  
C    -9.3397850   -0.2519280   -0.7737890  
O   -10.4362150    0.1832650   -1.0935400  
C    -9.2327350   -1.7320790   -0.2504170  
O   -10.2503900   -2.4056940   -0.1740890  
C    -7.9149260   -2.2403900    0.1246150  
H    -4.9733520   -2.5739340    0.5634780  
H    -8.1881850    1.5628560   -1.2103030  
H    -7.8535000   -3.2647960    0.4798370  
H    -5.3912170    1.3614680   -0.8791920  
C     4.3932600   -0.5063730    0.0427770  
C     4.6492530   -1.7836280    0.4559900  
C     5.9985940   -2.0997990    0.0640110  
C     6.5245330   -0.8925540   -0.6183880  
N     5.5195750    0.0718680   -0.5523180  
C     7.7506490   -0.8014110   -1.1818290  
C     8.6427670   -1.9604100   -1.0897230  
O     9.7658770   -1.9655260   -1.5665440  
C     8.1241250   -3.2364640   -0.3323000  
O     8.8629070   -4.2054300   -0.2394550  
C     6.7702430   -3.2112670    0.2174620  
H     3.9830720   -2.4131540    1.0269660  
H     8.1161840    0.0886280   -1.6849090  
H     6.4158380   -4.1044110    0.7227460  
H     5.4431050    0.8217510   -1.2259960  
