58


C     5.0606980    0.7902590   -1.5794560  
C     4.0729190    0.1776610   -0.8644610  
C     4.4856710   -1.1986330   -0.6341190  
C     5.8082720   -1.3331940   -1.2894420  
N     6.0984270   -0.0911880   -1.8299360  
C     6.5354120   -2.4772130   -1.3116410  
C     5.9892660   -3.6604890   -0.6461140  
O     6.5689630   -4.7336170   -0.6203170  
C     4.5916270   -3.5334110    0.0640660  
O     4.1196750   -4.5080190    0.6254450  
C     3.9039180   -2.2376470    0.0182120  
H     7.5030190   -2.5621010   -1.7964440  
H     2.9445980   -2.1571010    0.5197850  
H     5.1071950    1.8111300   -1.9336530  
H     6.9550700    0.1447460   -2.3064730  
C     1.5938350    0.2805400   -0.7156410  
C     0.6155560    1.0307980   -0.1379790  
C     1.2946580    2.0906640    0.6059860  
C     2.7474410    1.8800820    0.4055310  
N     2.8750240    0.7563330   -0.4108800  
C     3.7164480    2.6577540    0.9492080  
C     3.3171020    3.7772700    1.7993200  
O     4.1213010    4.5288260    2.3278240  
C     1.7826450    4.0093570    2.0395930  
O     1.4256950    4.9294260    2.7559910  
C     0.8315130    3.0973290    1.3899910  
H     4.7760860    2.4828220    0.7981340  
H    -0.2256920    3.2631620    1.5690750  
H     1.4926270   -0.5791920   -1.3646250  
C    -1.4425690   -0.4022860    0.0423180  
C    -0.8231530    0.7811920   -0.2221460  
C    -1.8641780    1.7132780   -0.6392750  
C    -3.1415980    0.9643260   -0.5886770  
N    -2.8201910   -0.3401420   -0.1913260  
C    -4.3521650    1.5158640   -0.8444930  
C    -4.4076250    2.9215620   -1.2512330  
O    -5.4572260    3.4938040   -1.4974790  
C    -3.0585600    3.7106990   -1.3813930  
O    -3.0801810    4.8698070   -1.7620210  
C    -1.8180600    3.0133990   -1.0283040  
H    -5.2850580    0.9710800   -0.7885590  
H    -0.8921990    3.5767000   -1.0812200  
H    -1.0139380   -1.3212470    0.4120220  
C    -3.0293860   -3.0428900    3.1803010  
C    -4.1044360   -3.7968770    2.8602240  
C    -4.5593870   -3.2918680    1.5675200  
C    -3.6005880   -2.1884900    1.2570340  
N    -2.7115610   -2.0495860    2.1931300  
C    -3.7106930   -1.4057400    0.0329890  
C    -4.6942750   -1.7596420   -0.8448730  
O    -4.8818630   -1.1698160   -2.0359830  
C    -5.6682540   -2.8548910   -0.5414980  
O    -6.5228920   -3.1008820   -1.3917990  
C    -5.5557740   -3.6125890    0.7215960  
H    -4.5502700   -4.6023630    3.4266870  
H    -5.6617230   -1.6240880   -2.4288980  
H    -6.2817020   -4.4015690    0.8919480  
H    -2.4053650   -3.1032030    4.0631570  
