64


C    -0.9944910   -0.8764860   -0.1290940  
C     0.2688540   -1.4390840   -0.0289920  
C     1.2076490   -0.3699480    0.0344440  
C     0.4652650    0.8425240   -0.0235160  
N    -0.8610550    0.5051900   -0.1174550  
C     1.0395610    2.1349190    0.0023240  
C     2.4301120    2.1356640    0.0759090  
O     3.1174190    3.3301150    0.0685850  
C     3.1979080    0.9430730    0.1492140  
O     4.5536180    1.1705120    0.2153370  
C     2.6247070   -0.3246020    0.1429270  
H     0.4875640   -2.4954360    0.0258510  
H    -1.5978840    1.1734780   -0.2890440  
H     4.0678620    3.1125310    0.1096090  
H     5.0191920    0.3183090    0.1421550  
C     3.3178040   -3.7369920   -2.7300640  
C     2.8721340   -2.5839180   -2.1377910  
C     3.5116810   -2.4949520   -0.8552760  
C     4.3483250   -3.6363190   -0.7282730  
N     4.2080240   -4.3740120   -1.8852330  
C     5.1445260   -3.8774290    0.3981280  
C     5.0942550   -2.9479290    1.4241180  
O     5.8361700   -3.1374960    2.5530180  
C     4.2715650   -1.7960330    1.3181330  
O     4.3229740   -0.9689380    2.4236340  
C     3.4765700   -1.5430650    0.1978570  
H     2.1704790   -1.8806370   -2.5622030  
H     4.6804310   -5.2421860   -2.0826520  
H     5.7784670   -4.7526800    0.4971050  
H     5.6168790   -2.4135480    3.1652830  
H     3.5822990   -0.3404280    2.3791350  
H     3.0751610   -4.1639410   -3.6929220  
C    -2.2934810   -1.4908820   -0.1636600  
C    -2.6648260   -2.7670780   -0.5019890  
C    -4.0890310   -2.8757670   -0.3464000  
C    -4.5534270   -1.5470450    0.1239940  
N    -3.4330840   -0.7275730    0.1595840  
C    -5.8365290   -1.2542600    0.4451370  
C    -6.8477780   -2.2992450    0.2900630  
O    -8.0273820   -2.1221320    0.5537870  
C    -6.3869890   -3.7021440   -0.2506840  
O    -7.2262950   -4.5801770   -0.3961970  
C    -4.9705940   -3.8975330   -0.5443620  
H    -2.0025930   -3.5371480   -0.8707830  
H    -6.1575670   -0.2784110    0.7970480  
H    -4.6603760   -4.8755930   -0.8994820  
H    -3.3816550    0.0820540    0.7646450  
C    -2.6734220    3.4397230    2.2056990  
C    -1.5371310    2.7769750    1.8133960  
C    -0.9631610    3.5192880    0.7185020  
C    -1.8069890    4.6421800    0.5066800  
N    -2.8434900    4.5580610    1.4146590  
C    -1.5460040    5.6276890   -0.4520980  
C    -0.3886970    5.4825190   -1.1978340  
O    -0.0554120    6.4108880   -2.1338140  
C     0.4743270    4.3660960   -1.0159210  
O     1.5539690    4.3566230   -1.8726870  
C     0.2008890    3.3564530   -0.0904660  
H    -1.1327500    1.8907740    2.2806720  
H    -3.5827740    5.2361420    1.5138890  
H    -2.1898690    6.4870620   -0.6080880  
H     0.7936260    6.1109310   -2.5111740  
H     2.3490490    4.1060160   -1.3555410  
H    -3.3702830    3.2175430    3.0017090  
