60


C    -2.5247220   -1.5015330    0.3500240  
C    -1.3564890   -0.8030090    0.4239340  
C    -1.6575030    0.5747490    0.1485850  
C    -3.0513340    0.6510290   -0.0917070  
N    -3.5764130   -0.6396950    0.0277300  
C    -3.7195100    1.8592070   -0.3067960  
C    -2.9587000    3.0169420   -0.2763220  
O    -3.5514820    4.2254170   -0.4714720  
C    -1.5623200    2.9761560   -0.0343760  
O    -0.9522490    4.2108430   -0.0724840  
C    -0.8779590    1.7654860    0.1515560  
H    -0.3848570   -1.2291930    0.6223670  
H    -4.7830580    1.9220540   -0.4979720  
H    -2.8362050    4.8854960   -0.4017300  
H    -0.3745450    4.2931650    0.7155940  
H    -2.7150900   -2.5599410    0.4489140  
C     2.2385660   -0.5762530   -1.8885750  
C     3.3643810   -0.2045120   -1.2252970  
C     2.9193200    0.8008270   -0.2404780  
C     1.4439380    0.8556630   -0.4401440  
N     1.0700630    0.0658250   -1.4066510  
C     0.5836440    1.7414220    0.3478860  
C     1.2542550    2.5802070    1.1929830  
O     0.6248180    3.5029220    1.9772360  
C     2.7233650    2.5845870    1.3745090  
O     3.2110270    3.3776610    2.1851360  
C     3.5517220    1.6299230    0.6067120  
H     1.3500830    3.9372330    2.4838320  
H     4.6237410    1.6494980    0.7749580  
H     2.1531600   -1.2767060   -2.7104320  
C     5.2333370   -0.5930050   -2.8093830  
C     6.5118250   -1.0399060   -2.8013930  
C     6.8566570   -1.3449780   -1.4290740  
C     5.6488890   -1.0401330   -0.6227400  
N     4.6873230   -0.5591140   -1.5161170  
C     5.5523440   -1.2521020    0.7133190  
C     6.7223810   -1.7728250    1.4221410  
O     6.7229480   -1.9907700    2.6231590  
C     8.0251080   -2.0615960    0.5930330  
O     9.0152140   -2.4799420    1.1708540  
C     7.9892900   -1.8252820   -0.8532590  
H     7.1607570   -1.1372550   -3.6597020  
H     4.6519860   -1.0645690    1.2874880  
H     8.8829240   -2.0583170   -1.4242240  
H     4.6226180   -0.2536960   -3.6351900  
C    -6.0981580   -3.0788880    2.6494120  
C    -5.0783700   -2.3428870    2.1360420  
C    -5.5217830   -1.8298950    0.8565940  
C    -6.9008210   -2.3323390    0.6628920  
N    -7.1831010   -3.0940390    1.7794480  
C    -7.6986890   -2.0527430   -0.4025290  
C    -7.1660070   -1.1983330   -1.4475660  
O    -7.8041690   -0.8388730   -2.4253610  
C    -5.6771410   -0.6972610   -1.3163320  
O    -5.1884690   -0.0712040   -2.2379730  
C    -4.9193160   -1.0339950   -0.0827180  
H    -4.1225130   -2.1591700    2.6018700  
H    -8.7130990   -2.4250110   -0.5032970  
H    -6.1553220   -3.6088290    3.5908210  
H    -8.0679810   -3.5423730    1.9574700  
