58


C     1.8052480   -0.5026230   -1.1710120  
C     2.8918950   -0.1139910   -0.4380350  
C     2.4638140    1.0671460    0.3199700  
C     1.0482700    1.3083850   -0.0441580  
N     0.7230700    0.3388170   -0.9661040  
C     0.2734890    2.3378890    0.4287190  
C     0.8817700    3.1960630    1.4686610  
O     0.2442800    4.0245760    2.0942760  
C     2.3910000    2.9793710    1.8312420  
O     2.9162810    3.7339770    2.6321710  
C     3.1111660    1.8659300    1.2055940  
H     4.1583270    1.7417160    1.4537270  
H     1.7234460   -1.3164190   -1.8799210  
H    -0.2139000    0.1724260   -1.3057050  
C    -3.5192160   -0.0632580   -0.1159050  
C    -2.2245140    0.2876820    0.1997600  
C    -2.1089360    1.6917300   -0.1123590  
C    -3.4637360    2.0620890   -0.6175960  
N    -4.2749070    1.0443240   -0.6232150  
C    -3.7892380    3.4046580   -1.0202680  
C    -2.8126990    4.3360010   -0.9320750  
O    -2.9663350    5.6219020   -1.2753920  
C    -1.4133920    3.9909870   -0.4816470  
O    -0.5687070    4.8733050   -0.5885160  
C    -1.0970820    2.6068210   -0.0135580  
H    -1.4808530   -0.3556590    0.6400170  
H    -4.7864870    3.6406150   -1.3740270  
H    -2.0804990    6.0319920   -1.1558440  
C    -1.8088280   -3.9787040    0.9305720  
C    -2.8972900   -4.7784200    0.9256280  
C    -4.0038000   -3.9022720    0.5677780  
C    -3.3746100   -2.5489640    0.3893600  
N    -2.0897820   -2.6162000    0.5953940  
C    -4.1532910   -1.3612840    0.0248760  
C    -5.5052100   -1.5819020   -0.1564260  
O    -6.4018830   -0.6537470   -0.4720530  
C    -6.1404680   -2.9438630    0.0115980  
O    -7.3539890   -3.0231400   -0.1724110  
C    -5.3205010   -4.1031480    0.3849300  
H    -2.9585880   -5.8363580    1.1387380  
H    -7.2627580   -1.1338580   -0.5177010  
H    -5.8225250   -5.0595940    0.4935280  
H    -0.7845880   -4.2500760    1.1578780  
C     3.9538100   -4.3452220    0.0076570  
C     5.3013030   -4.2644810   -0.1295930  
C     5.6320880   -2.8690510   -0.3337810  
C     4.3459140   -2.1340300   -0.3087490  
N     3.3618810   -3.0924490   -0.1392070  
C     4.2014780   -0.7775610   -0.4235170  
C     5.4478920   -0.0039700   -0.5988350  
O     5.4611270    1.2093340   -0.7248500  
C     6.8234750   -0.7709020   -0.6423720  
O     7.8451620   -0.1171980   -0.7781460  
C     6.8171750   -2.2246390   -0.5078330  
H     6.0017310   -5.0861820   -0.0956340  
H     7.7710380   -2.7420020   -0.5354620  
H     3.3328730   -5.2134870    0.1851360  
H     2.4115960   -2.8654270    0.1148010  
