58


C     4.0817730   -2.5892450   -0.3324840  
C     4.4561120   -1.2678430   -0.2362410  
C     5.9246250   -1.2570220   -0.2929990  
C     6.3441640   -2.6718580   -0.4220520  
N     5.1727160   -3.4165560   -0.4371140  
C     7.6252560   -3.1054880   -0.5053760  
C     8.6922670   -2.1067580   -0.4635200  
O     9.8762690   -2.3956370   -0.5286930  
C     8.2761680   -0.5978960   -0.3261340  
O     9.1493160    0.2524460   -0.2861060  
C     6.8455270   -0.2621650   -0.2481010  
H     7.8998140   -4.1516260   -0.6001300  
H     6.5568300    0.7780160   -0.1605270  
H     3.0848200   -3.0097610   -0.3405150  
H     5.1316200   -4.4194130   -0.5411150  
C     3.5670460   -0.1441010   -0.1141760  
C     2.1886680   -0.1324090   -0.0031390  
C     1.8088170    1.2494280    0.0381500  
C     3.1100700    1.9857740   -0.0533970  
N     4.1249600    1.1674800   -0.1289590  
C     3.1802360    3.4193850   -0.0784280  
C     2.0105690    4.0975520   -0.0207320  
O     1.9132690    5.4294490   -0.0395870  
C     0.6734870    3.3952180    0.1201100  
O    -0.3001860    4.1214420    0.2995050  
C     0.6078570    1.9132430    0.1127400  
H     1.5206070   -0.9820890   -0.0276400  
H     4.1390800    3.9198010   -0.1526270  
H     0.9523230    5.6207970    0.0615250  
C    -0.8727400   -1.1939520    2.8520660  
C    -2.1717630   -1.2503170    2.4539820  
C    -2.3421160   -0.2939960    1.3830630  
C    -1.0167270    0.3193560    1.1756600  
N    -0.1807540   -0.2440720    2.1147910  
C    -0.7084220    1.2884240    0.2484500  
C    -1.7918150    1.6529290   -0.6746590  
O    -1.6264560    2.3486280   -1.6613910  
C    -3.2309180    1.0652210   -0.4357800  
O    -4.1218380    1.4692810   -1.1631950  
C    -3.4549070    0.0702410    0.6434540  
H    -2.9280320   -1.9070290    2.8538650  
H    -0.3622030   -1.7600210    3.6195380  
H     0.8164480   -0.0866540    2.1448560  
C    -5.2985980   -0.7243270    2.1727690  
C    -4.7908640   -0.4141110    0.9335040  
C    -5.9155800   -0.7244640    0.0130160  
C    -6.9908570   -1.2274250    0.9147520  
N    -6.6178750   -1.2060960    2.1705130  
C    -8.2655870   -1.6668710    0.4209610  
C    -8.4719660   -1.6302570   -0.9180520  
O    -9.6059790   -2.0152440   -1.5206900  
C    -7.4052560   -1.1449360   -1.8589390  
O    -7.6576140   -1.1540060   -3.0617840  
C    -6.1074400   -0.6803260   -1.3190830  
H    -9.0207220   -2.0193500    1.1146360  
H    -9.4524140   -1.8751740   -2.4814020  
H    -5.3863620   -0.3003020   -2.0315080  
H    -4.8019170   -0.5893870    3.1256570  
