64


C    -0.8907260    1.7631760   -0.1252340  
C    -1.7085550    0.6611240    0.0866060  
C    -3.0604980    1.1192660    0.1242530  
C    -3.0178780    2.5257400   -0.0785450  
N    -1.7005120    2.8824630   -0.2383870  
C    -4.1628510    3.3279220   -0.1057650  
C    -5.3836850    2.6973720    0.0712550  
O    -6.5343660    3.4330120    0.0777450  
C    -5.4574740    1.2926820    0.2448340  
O    -6.7518180    0.8334380    0.4067000  
C    -4.3228260    0.4756390    0.2708570  
H    -1.3712360   -0.3373740    0.3196380  
H    -1.3315840    3.8215990   -0.2680290  
H    -4.1260760    4.4034620   -0.2443230  
H    -7.2628630    2.8178560    0.2711980  
H    -6.7256000   -0.0923990    0.6960010  
C     2.0525520   -1.2862380   -1.3338970  
C     3.1850740   -0.5288630   -1.1525370  
C     2.7646210    0.7741610   -0.7066880  
C     1.3516370    0.7366920   -0.6240580  
N     0.9495870   -0.5267060   -1.0074890  
C     0.5633610    1.8496320   -0.2398500  
C     1.2827480    3.0248140    0.0113560  
O     0.6226050    4.1774800    0.3613730  
C     2.6961740    3.0722350   -0.0713670  
O     3.2225110    4.3177080    0.2217930  
C     3.4498440    1.9685140   -0.4162610  
H    -0.0110600   -0.7823040   -1.1762940  
H     1.3045270    4.8468870    0.5497710  
H     4.1833590    4.2466110    0.3219550  
H     4.5334710    2.0225930   -0.4744060  
H     1.9543680   -2.3127330   -1.6556210  
C     4.9764860   -1.4137700   -2.6345290  
C     6.3023420   -1.7378570   -2.5378040  
C     6.7066730   -1.4599320   -1.1885520  
C     5.5638810   -0.9675490   -0.5057480  
N     4.5079250   -0.9427930   -1.4118410  
C     5.5877190   -0.6149090    0.8503080  
C     6.7927730   -0.7438420    1.5236080  
O     6.8740800   -0.4072570    2.8465860  
C     7.9489960   -1.2233500    0.8542590  
O     9.0746800   -1.2915880    1.6578180  
C     7.9188220   -1.5821050   -0.4807160  
H     6.9220890   -2.1221490   -3.3366610  
H     4.7095970   -0.2597950    1.3777670  
H     7.7829010   -0.6001670    3.1339730  
H     9.8004450   -1.6924280    1.1574260  
H     8.8171280   -1.9534930   -0.9709470  
H     4.3016550   -1.4533680   -3.4777510  
C    -6.6026740   -2.5930770   -1.9994960  
C    -6.0416520   -1.4391290   -1.5555950  
C    -5.2356880   -1.7665840   -0.3944020  
C    -5.3720320   -3.2314560   -0.2048640  
N    -6.2272510   -3.6668450   -1.1978420  
C    -4.7423270   -3.9578230    0.7556140  
C    -3.8625870   -3.2534710    1.6717430  
O    -3.2145900   -3.8091180    2.5462580  
C    -3.7306420   -1.6885810    1.5279560  
O    -3.0486850   -1.0993220    2.3465660  
C    -4.4509120   -0.9891720    0.4259740  
H    -6.1660610   -0.4580970   -1.9868640  
H    -4.8491800   -5.0331020    0.8602990  
H    -7.2586360   -2.7564430   -2.8443100  
H    -6.4750050   -4.6303740   -1.3589020  
