62


C     0.7711680   -0.1363370   -1.7202730  
C     2.1075570   -0.2873430   -1.4555800  
C     2.3874740    0.4442680   -0.2553010  
C     1.1613990    1.0114750    0.1753980  
N     0.1793980    0.6580680   -0.7480640  
C     1.0360230    1.7575760    1.3538050  
C     2.1791150    1.9468540    2.1149590  
O     2.1136740    2.6784170    3.2617780  
C     3.4229570    1.3986060    1.7125210  
O     4.4560150    1.7105160    2.5639020  
C     3.5567210    0.6440810    0.5349620  
H     2.8028650   -0.8648350   -2.0464130  
H     0.0926900    2.1796760    1.6817600  
H     3.0160760    2.7317890    3.6226570  
H     5.3025650    1.4166780    2.1750800  
H     0.1709470   -0.5153750   -2.5348630  
C    -3.4196070   -1.8976460   -0.2619830  
C    -2.1301610   -1.4584230   -0.3794460  
C    -2.1861560   -0.0326930   -0.5341250  
C    -3.5511790    0.3456190   -0.5048410  
N    -4.3011820   -0.8163840   -0.3320440  
C    -3.9715430    1.6780820   -0.5794710  
C    -2.9935600    2.6509120   -0.7106970  
O    -3.3493500    3.9626410   -0.7994440  
C    -1.6188120    2.3017360   -0.7681090  
O    -0.7642380    3.3663550   -0.9209030  
C    -1.2088980    0.9761330   -0.6768860  
H    -1.2438120   -2.0768410   -0.3731790  
H    -5.0148670    1.9680250   -0.5636040  
H    -2.5346620    4.4810890   -0.9168640  
H     0.1482950    3.0417810   -0.9938730  
H    -3.8120610   -2.9014410   -0.1789660  
C    -6.6828690   -2.5043330    2.8572500  
C    -7.9183010   -2.3511810    2.3157280  
C    -7.7509020   -1.7083360    1.0280030  
C    -6.2924760   -1.5011080    0.8677890  
N    -5.6996240   -2.0171230    1.9991320  
C    -5.7049070   -0.9138840   -0.2162400  
C    -6.5822520   -0.4620820   -1.3094490  
O    -6.1601050    0.0394880   -2.3363140  
C    -8.1381280   -0.6468040   -1.1321790  
O    -8.8713130   -0.2269890   -2.0124070  
C    -8.6344520   -1.3037910    0.0762280  
H    -8.8560640   -2.6501640    2.7605010  
H    -9.7069680   -1.4386720    0.1739370  
H    -6.3977030   -2.9341970    3.8082570  
H    -4.7117230   -1.9639250    2.1968350  
C     4.8502560    0.1189880    0.1267920  
C     5.3937830   -0.0410010   -1.1176450  
C     6.7219260   -0.5806030   -0.9816620  
C     6.9450410   -0.7498270    0.4704920  
N     5.8119120   -0.2351680    1.1229700  
C     8.0515930   -1.3002360    1.0160800  
C     9.1287980   -1.7293110    0.1169910  
O    10.1619700   -2.2342100    0.5241560  
C     8.9372350   -1.5068570   -1.4268240  
O     9.8347160   -1.8442760   -2.1846840  
C     7.6814430   -0.9182400   -1.8874980  
H     4.9265940    0.2559250   -2.0453540  
H     8.1968260   -1.4257630    2.0849420  
H     7.5478390   -0.7903830   -2.9573430  
H     5.4789660   -0.7204290    1.9511190  
