58


C    -5.8699550   -2.1010810    2.9096120  
C    -4.8731660   -1.4121060    2.2921710  
C    -5.0430120   -1.5923640    0.8681770  
C    -6.2431230   -2.4515660    0.7044010  
N    -6.6848580   -2.7360910    1.9829210  
C    -6.7715110   -2.8329240   -0.4858100  
C    -6.1211600   -2.3741920   -1.7075320  
O    -6.5361600   -2.6361390   -2.8248130  
C    -4.8169470   -1.5123780   -1.5716840  
O    -4.1859230   -1.2435340   -2.5781210  
C    -4.3606940   -1.1077080   -0.2183630  
H    -4.0995070   -0.8371490    2.7773950  
H    -7.6635090   -3.4451620   -0.5757160  
H    -6.0780890   -2.2006420    3.9667750  
H    -7.5186600   -3.2593440    2.1997790  
C    -0.2949700   -1.4214630    1.6260270  
C    -1.5743400   -1.6965270    1.2821570  
C    -2.0391160   -0.5217820    0.5570920  
C    -0.8695980    0.4141710    0.5804460  
N     0.1432880   -0.1355710    1.1972790  
C    -0.8957520    1.7294580   -0.0382970  
C    -2.0180700    1.9896190   -0.7814250  
O    -2.1713080    3.0881090   -1.5225970  
C    -3.2154960    1.0814570   -0.8176020  
O    -4.2128870    1.4956980   -1.3982790  
C    -3.1806210   -0.2387970   -0.1191930  
H    -2.1365900   -2.5995970    1.4693780  
H    -3.0911440    3.0532980   -1.8687690  
H     0.4061210   -2.0512900    2.1599730  
C     3.5725460    1.5778590   -0.0648120  
C     3.8159340    2.9324150   -0.0139500  
C     2.5486910    3.5953410    0.0917550  
C     1.5191040    2.5209890    0.0677550  
N     2.2018090    1.3345270   -0.0599610  
C     0.1646370    2.7425740    0.1133740  
C    -0.2418380    4.1387630    0.4183600  
O    -1.3670080    4.4357890    0.7797730  
C     0.8239960    5.2879000    0.3302130  
O     0.4406350    6.4467160    0.3988360  
C     2.2237810    4.9172270    0.1851920  
H     4.7842180    3.4115500   -0.0337390  
H     2.9653900    5.7095120    0.1535900  
H     1.7872160    0.4515970    0.2450710  
C     4.4978100    0.4753890   -0.1097070  
C     5.8648950    0.4954700   -0.1831690  
C     6.2704270   -0.8895330   -0.1904890  
C     4.9805680   -1.6544340   -0.1094240  
N     3.9549000   -0.8569180   -0.0617930  
C     4.9574480   -3.0940440   -0.0897940  
C     6.1451140   -3.7410900   -0.1485050  
O     6.2791710   -5.0727280   -0.1395910  
C     7.4618970   -2.9978530   -0.2314110  
O     8.4862070   -3.6775330   -0.2793780  
C     7.4618770   -1.5303110   -0.2493050  
H     6.5152010    1.3574520   -0.2325000  
H     4.0131380   -3.6236410   -0.0332950  
H     7.2476930   -5.2379380   -0.1933160  
H     8.4246000   -1.0321820   -0.3079310  
