60


C     3.0634130   -0.1059170    0.3751200  
C     1.7711070    0.2999260    0.1111670  
C     1.7173330    1.7214000    0.2497350  
C     3.0305530    2.1463520    0.5869390  
N     3.8292750    1.0234460    0.6438430  
C     3.3803620    3.4859490    0.7735380  
C     2.3831750    4.4293150    0.5795170  
O     2.6553350    5.7522140    0.7335700  
C     1.0682160    4.0444040    0.2084490  
O     0.1946650    5.1039350    0.0775300  
C     0.6968690    2.7003630    0.0657880  
H     0.9642580   -0.3563340   -0.1788130  
H     4.7694280    1.0026040    1.0080610  
H     4.3840780    3.8036980    1.0364110  
H     1.8226190    6.2182310    0.5274430  
H    -0.2776970    5.0066020   -0.7760580  
C    -2.0688810   -0.1154350    2.0209440  
C    -3.1571500   -0.0648980    1.2091100  
C    -2.8201560    0.9308820    0.1734660  
C    -1.4275450    1.3348290    0.5161970  
N    -1.0146400    0.7312600    1.5955870  
C    -0.6913570    2.3290010   -0.2675140  
C    -1.4206980    2.9289170   -1.2552590  
O    -0.9169420    3.9113170   -2.0557220  
C    -2.8216740    2.5827070   -1.5873990  
O    -3.3674860    3.1792260   -2.5196040  
C    -3.5089480    1.5248900   -0.8154380  
H    -1.6478750    4.1280750   -2.6799580  
H    -4.5306400    1.2860720   -1.0930700  
H    -1.9406830   -0.7060620    2.9200760  
C    -5.0846680   -0.7267360    2.6241590  
C    -6.2245700   -1.4522880    2.5337060  
C    -6.3174730   -1.9481590    1.1767070  
C    -5.1119390   -1.4478960    0.4711960  
N    -4.3983920   -0.6837390    1.3995550  
C    -4.8024670   -1.7484300   -0.8144810  
C    -5.7312070   -2.5848540   -1.5769620  
O    -5.5298980   -2.9043100   -2.7375160  
C    -7.0347800   -3.0898920   -0.8605410  
O    -7.8280030   -3.7744000   -1.4858220  
C    -7.2362630   -2.7236860    0.5448840  
H    -6.9416690   -1.6183010    3.3246090  
H    -3.8992970   -1.4101050   -1.3098910  
H    -8.1237570   -3.1031120    1.0421510  
H    -4.6725390   -0.1848160    3.4647170  
C     2.9916920   -2.5852170    0.7847300  
C     3.6348460   -1.4406070    0.4052430  
C     4.9878200   -1.8404910    0.0182250  
C     5.0630470   -3.3106360    0.2164960  
N     3.8142600   -3.6973180    0.6590790  
C     6.1677520   -4.0638770   -0.0163080  
C     7.3717960   -3.4004190   -0.5072630  
O     8.4155710   -3.9925490   -0.7340000  
C     7.3069470   -1.8502400   -0.7583620  
O     8.2957200   -1.2753440   -1.1837480  
C     6.0518700   -1.1476330   -0.4655990  
H     6.1999380   -5.1383130    0.1365190  
H     6.0206390   -0.0821310   -0.6693870  
H     1.9810590   -2.6960440    1.1538100  
H     3.5647910   -4.6360660    0.9282740  
