58


C     7.0336410   -2.8913300   -0.0101070  
C     5.8188150   -2.2864200   -0.0255210  
C     6.0459260   -0.8599880   -0.1012470  
C     7.5206300   -0.6822200   -0.1350710  
N     8.0584010   -1.9513260   -0.0688550  
C     8.1604920    0.5110640   -0.2340500  
C     7.3513160    1.7177210   -0.3067780  
O     7.8246240    2.8381830   -0.4199140  
C     5.7877030    1.5694620   -0.2311810  
O     5.1133160    2.5833870   -0.1951060  
C     5.1942570    0.2090850   -0.1708640  
H     4.8598190   -2.7754700    0.0350720  
H     9.2408910    0.6092950   -0.2758700  
H     7.2742120   -3.9448070    0.0447230  
H     9.0435220   -2.1606580   -0.0995530  
C     2.4537720   -1.5536440    2.7967740  
C     1.2374540   -1.2504570    2.2864420  
C     1.5152110   -0.5418650    1.0431150  
C     3.0144720   -0.5186650    0.9622400  
N     3.5494070   -1.1110000    1.9904840  
C     3.7231240    0.0991440   -0.1453740  
C     2.9435350    0.6395620   -1.1255870  
O     3.4400170    1.2113300   -2.2282800  
C     1.4432920    0.6450490   -1.0684430  
O     0.8448640    1.2274510   -1.9679880  
C     0.7366360   -0.0045020    0.0732650  
H     0.2634670   -1.4744380    2.6965200  
H     2.6652880    1.5567050   -2.7238730  
H     2.6756470   -2.0809060    3.7170580  
C    -2.4538140    1.5542530    2.7964580  
C    -1.2374870    1.2509910    2.2861900  
C    -1.5152250    0.5421550    1.0429970  
C    -3.0144850    0.5189110    0.9621200  
N    -3.5494360    1.1114330    1.9902480  
C    -3.7231200   -0.0991260   -0.1453770  
C    -2.9435160   -0.6397120   -1.1254850  
O    -3.4399880   -1.2117290   -2.2280540  
C    -1.4432730   -0.6451350   -1.0683500  
O    -0.8448340   -1.2277560   -1.9677450  
C    -0.7366350    0.0046200    0.0732540  
H    -0.2635060    1.4750660    2.6962290  
H    -2.6652520   -1.5571750   -2.7235850  
H    -2.6757040    2.0816870    3.7166400  
C    -7.0337620    2.8912340   -0.0104510  
C    -5.8189100    2.2863750   -0.0258200  
C    -6.0459610    0.8599230   -0.1013550  
C    -7.5206580    0.6820860   -0.1351140  
N    -8.0584830    1.9511760   -0.0690460  
C    -8.1604720   -0.5112380   -0.2339300  
C    -7.3512440   -1.7178600   -0.3066550  
O    -7.8245060   -2.8383590   -0.4196150  
C    -5.7876400   -1.5695300   -0.2310310  
O    -5.1132140   -2.5834230   -0.1947880  
C    -5.1942480   -0.2091220   -0.1708530  
H    -4.8599350    2.7754750    0.0346920  
H    -9.2408680   -0.6095210   -0.2756920  
H    -7.2743790    3.9447070    0.0442490  
H    -9.0436140    2.1604610   -0.0997510  
