62


C    -0.3059980    1.9629930    0.3176620  
C     1.0193750    1.5757180    0.2208820  
C     1.0474100    0.1865860   -0.1091550  
C    -0.3013030   -0.2398480   -0.2131470  
N    -1.0975000    0.8625200    0.0213150  
C    -0.6962360   -1.5697990   -0.4709140  
C     0.3529640   -2.4913210   -0.6116410  
O     0.0739130   -3.7982940   -0.8962850  
C     1.7043340   -2.0996850   -0.5187660  
O     2.5837040   -3.1378820   -0.7374440  
C     2.0919690   -0.7677630   -0.2813480  
H     1.8671220    2.2288320    0.3625430  
H    -2.0848620    0.8077840    0.2242180  
H     0.9286790   -4.2424910   -1.0434100  
H     3.4864020   -2.7830000   -0.8517100  
C    -0.3031420    4.2034130    1.4610050  
C    -0.8960430    3.2402630    0.6680980  
C    -2.1945900    3.7630230    0.2921300  
C    -2.3174470    5.0396830    0.8961260  
N    -1.1474710    5.2798080    1.5921060  
C    -3.4517260    5.8464660    0.7474810  
C    -4.4885490    5.3566000   -0.0303940  
O    -5.6193300    6.0975820   -0.2017320  
C    -4.3802470    4.0874970   -0.6597920  
O    -5.4826390    3.7485770   -1.4170150  
C    -3.2545720    3.2972000   -0.5139430  
H    -0.9571770    6.1015330    2.1443210  
H    -3.5445120    6.8228150    1.2119020  
H    -6.2186690    5.5841630   -0.7707860  
H    -5.3848210    2.8473750   -1.7589950  
H    -3.1903010    2.3494580   -1.0431190  
H     0.6539760    4.1843850    1.9620860  
C     3.4903040   -0.3866060   -0.2420530  
C     4.1063220    0.7751980   -0.6249220  
C     5.5223610    0.6469070   -0.4103020  
C     5.7272950   -0.7037660    0.1552400  
N     4.4745540   -1.3396900    0.1669600  
C     6.9196920   -1.1881960    0.5664110  
C     8.1054670   -0.3383050    0.4112410  
O     9.2199010   -0.6974930    0.7546040  
C     7.9203230    1.0794200   -0.2401300  
O     8.9041630    1.7902930   -0.3888470  
C     6.5725600    1.4895310   -0.6235980  
H     3.6124070    1.6199680   -1.0823680  
H     7.0529840   -2.1801100    0.9879860  
H     6.4500350    2.4799010   -1.0513570  
H     4.2541750   -1.9383520    0.9575230  
C    -3.0818540   -1.1927110   -1.2341850  
C    -2.1079390   -1.9271460   -0.6184500  
C    -2.8378750   -3.1055250   -0.0967860  
C    -4.2516170   -2.8755680   -0.5141670  
N    -4.3799980   -1.7604290   -1.1816100  
C    -5.3009900   -3.8045420   -0.1877820  
C    -4.9732360   -4.9018110    0.5356370  
O    -5.8478350   -5.8465190    0.9158280  
C    -3.5609340   -5.1523450    0.9859370  
O    -3.3402960   -6.1680650    1.6426340  
C    -2.4983590   -4.1865820    0.6288640  
H    -6.3166520   -3.6099260   -0.5139320  
H    -5.3200230   -6.5047240    1.4192280  
H    -1.4889850   -4.4174480    0.9475300  
H    -2.9458580   -0.2650860   -1.7784270  
