58


C    -5.4980900    0.1015270   -0.0986950  
C    -5.8576170   -1.1627910    0.3122380  
C    -7.2860400   -1.1868260    0.4667320  
C    -7.7673960    0.1721470    0.1158320  
N    -6.6472970    0.8970000   -0.2157250  
C    -9.0712370    0.5526470    0.1402450  
C   -10.0747060   -0.4297780    0.5347260  
O   -11.2701310   -0.1814760    0.5866690  
C    -9.5872640   -1.8781260    0.9100520  
O   -10.4126940   -2.7150940    1.2424360  
C    -8.1524510   -2.1680070    0.8457250  
H    -5.1717860   -1.9772480    0.4773110  
H    -9.4060710    1.5521670   -0.1193400  
H    -7.8263670   -3.1702660    1.1067560  
H    -6.6289020    1.8658100   -0.4963360  
C    -1.5574580   -1.8424080   -0.0055840  
C    -0.7113620   -0.8203070   -0.3213890  
C    -1.6108720    0.3341050   -0.5352320  
C    -2.9778520   -0.2041700   -0.2791110  
N    -2.9238540   -1.4712420    0.0185040  
C    -4.1768630    0.6318100   -0.3886020  
C    -3.9507120    1.9276290   -0.7868060  
O    -4.9220010    2.8513160   -0.9471210  
C    -2.5975610    2.4682500   -1.0923740  
O    -2.5205660    3.6468500   -1.4478180  
C    -1.4178100    1.5970430   -0.9550050  
H    -4.4518620    3.6674700   -1.2400820  
H    -0.4523830    2.0269370   -1.2016310  
H    -1.2909670   -2.8627340    0.2407990  
C     1.4644570   -1.8872850   -1.0248470  
C     0.7266050   -0.8761960   -0.4811840  
C     1.7402790    0.1052750   -0.0402410  
C     3.0454950   -0.5028950   -0.4303590  
N     2.8618750   -1.6672510   -0.9884150  
C     4.3335850    0.1438660   -0.1613110  
C     4.2482960    1.3450350    0.4997290  
O     5.3172300    2.1144620    0.7960460  
C     2.9647040    1.9475720    0.9375390  
O     2.9993030    3.0357120    1.5186750  
C     1.6897960    1.2555920    0.6509990  
H     4.9423450    2.9032040    1.2500570  
H     0.7811840    1.7244640    1.0152430  
H     1.0920840   -2.7952760   -1.4837330  
C     5.7105910   -1.3492500   -1.6605210  
C     5.5704180   -0.4842110   -0.6026520  
C     6.9356650   -0.4000580   -0.0349960  
C     7.7506820   -1.2812510   -0.9271980  
N     7.0232180   -1.8167540   -1.8718600  
C     9.1562350   -1.4955710   -0.7223550  
C     9.7389870   -0.8944810    0.3427150  
O    11.0343680   -1.0112660    0.6644970  
C     8.9432650   -0.0304860    1.2829930  
O     9.5369690    0.4724340    2.2344710  
C     7.5013910    0.1845840    1.0390610  
H     9.7083080   -2.1339030   -1.4030320  
H    11.1525080   -0.4726940    1.4782570  
H     6.9787960    0.8308210    1.7318070  
H     4.9247250   -1.6924480   -2.3171930  
