62


C    -1.8800320   -0.3804900    0.2491970  
C    -1.2934820    0.8620450    0.2348560  
C    -2.3611340    1.8115730   -0.0007930  
C    -3.5620220    1.0778980   -0.1397060  
N    -3.2522220   -0.2777380    0.0248560  
C    -4.7991350    1.6956910   -0.3524960  
C    -4.8145600    3.0780380   -0.4509280  
O    -5.9938900    3.7294340   -0.6621160  
C    -3.6145740    3.8267120   -0.3301770  
O    -3.7920160    5.1914040   -0.4475690  
C    -2.3966020    3.2131180   -0.1088200  
H    -5.7236330    1.1442890   -0.4677310  
H    -5.7928480    4.6795240   -0.7164450  
H    -2.9339320    5.6345300   -0.3728800  
H    -1.4913270    3.8008060    0.0120280  
H    -1.4354660   -1.3527650    0.4063870  
C     2.0504580   -0.8959100   -1.9777000  
C     3.0988030   -0.2627900   -1.3331050  
C     2.4942330    0.5971360   -0.3346310  
C     1.0921210    0.4215330   -0.4257850  
N     0.8571920   -0.4970690   -1.4311920  
C     0.1524140    1.1183550    0.3637440  
C     0.6902840    2.0431870    1.2609990  
O    -0.1347900    2.7600140    2.0812610  
C     2.0908570    2.2526970    1.3509260  
O     2.4454580    3.2122640    2.2818150  
C     2.9937230    1.5497300    0.5757090  
H    -0.0633610   -0.7685890   -1.7435300  
H     0.4364130    3.3088310    2.6469410  
H     3.4102790    3.2485670    2.3593260  
H     4.0590950    1.7499970    0.6561290  
H     2.0827850   -1.6352800   -2.7653070  
C     5.0899480   -0.5985240   -2.8732840  
C     4.5044600   -0.4451470   -1.6519760  
C     5.6307940   -0.6022410   -0.6989810  
C     6.8200160   -0.8300460   -1.5654620  
N     6.4934810   -0.8330740   -2.8281670  
C     8.1316150   -1.0322410   -1.0067860  
C     8.2545450   -1.0437530    0.3428630  
O     9.4186210   -1.2248710    0.9959840  
C     7.0706510   -0.8532760    1.2401500  
O     7.2568990   -0.8714230    2.4579430  
C     5.7336330   -0.6409260    0.6426110  
H     8.9818940   -1.1824710   -1.6631130  
H     9.1869180   -1.1859030    1.9493490  
H     4.8993300   -0.5177070    1.3260660  
H     4.6053400   -0.5438340   -3.8407820  
C    -3.8157100   -3.5256040    2.9097330  
C    -3.4147800   -2.3831370    2.2934180  
C    -4.1387900   -2.2950980    1.0430800  
C    -5.0060360   -3.4931460    0.9786220  
N    -4.7493500   -4.2045470    2.1339280  
C    -5.8818010   -3.7776240   -0.0225840  
C    -5.9774690   -2.8456080   -1.1311890  
O    -6.7627140   -2.9686010   -2.0591630  
C    -5.0138260   -1.5987930   -1.1427910  
O    -4.9912880   -0.8853140   -2.1286070  
C    -4.1408080   -1.3654750    0.0358010  
H    -2.7038080   -1.6652850    2.6728150  
H    -6.5189820   -4.6561350   -0.0272110  
H    -3.5141490   -3.9305500    3.8665130  
H    -5.2252530   -5.0515680    2.4019850  
