60


C     1.9845480   -0.3608090    0.6421700  
C     3.2864290    0.0167370    0.3897220  
C     3.2371320    1.4056420   -0.0387820  
C     1.8817810    1.8056220   -0.0427200  
N     1.1368090    0.7131570    0.3961010  
C     1.4474270    3.0757690   -0.4312110  
C     2.4235060    3.9777650   -0.8254810  
O     2.0727860    5.2354050   -1.2077070  
C     3.7948090    3.6026230   -0.8268330  
O     4.6435660    4.6103050   -1.2357370  
C     4.2081910    2.3409480   -0.4471710  
H     0.4027140    3.3655650   -0.4317590  
H     2.8941350    5.7114760   -1.4224910  
H     5.5629040    4.3337870   -1.1035400  
H     5.2628590    2.0888650   -0.4265730  
H     1.5824150   -1.2810910    1.0409910  
C    -0.9359350    0.9629330    1.6897450  
C    -2.2403260    0.6361070    1.5450570  
C    -2.4145960    0.0747480    0.2185820  
C    -1.0792130    0.0948350   -0.4196240  
N    -0.2250240    0.6777350    0.5108480  
C    -0.7792690   -0.3984080   -1.6456530  
C    -1.8610630   -0.9947880   -2.4161210  
O    -1.6984570   -1.5196670   -3.5066220  
C    -3.3109470   -0.9587530   -1.8090590  
O    -4.2360590   -1.3356790   -2.5040710  
C    -3.5048510   -0.4406360   -0.4260130  
H    -3.0219420    0.7942400    2.2710060  
H     0.2194430   -0.3746420   -2.0682350  
H    -0.4047260    1.4032250    2.5224360  
C    -6.1047270    2.7760860    1.1140570  
C    -7.2475690    2.1107680    1.3953510  
C    -6.9650810    0.7162550    1.0705420  
C    -5.5440780    0.7343410    0.5869180  
N    -5.0518220    1.9377520    0.6176830  
C    -4.8656380   -0.4742110    0.1419130  
C    -5.5888520   -1.6289580    0.2147090  
O    -5.0964350   -2.8313800   -0.1023810  
C    -7.0140960   -1.6710310    0.7005180  
O    -7.5698760   -2.7670370    0.7282670  
C    -7.6772780   -0.4249500    1.1226900  
H    -8.1797030    2.5064480    1.7738140  
H    -5.8413100   -3.4620610    0.0175430  
H    -8.7076240   -0.4969970    1.4573060  
H    -5.9066860    3.8362860    1.2171670  
C     3.8202410   -4.1561340   -0.8279170  
C     5.0848200   -4.3742240   -0.3825840  
C     5.5463390   -3.1444910    0.2247090  
C     4.4280750   -2.1802740    0.1023660  
N     3.3970300   -2.8700080   -0.5116960  
C     4.4489280   -0.8723130    0.5122810  
C     5.7135460   -0.4134110    1.1206990  
O     5.8877280    0.7290880    1.5157110  
C     6.9070090   -1.4329530    1.2817560  
O     7.9422350   -1.0278500    1.7889070  
C     6.7279620   -2.7974900    0.8054260  
H     5.6463030   -5.2933300   -0.4656960  
H     7.5573260   -3.4893970    0.9132850  
H     3.1494900   -4.8274410   -1.3480070  
H     2.5782160   -2.4149440   -0.8889940  
