58


C     6.1561570    0.6471490   -3.4100070  
C     7.3925550    0.2333880   -3.0319520  
C     7.3416070   -0.0333480   -1.6090510  
C     5.9503900    0.2584900   -1.1850810  
N     5.2807280    0.6501810   -2.3285990  
C     5.4833570    0.1713110    0.0960610  
C     6.4419880   -0.3012880    1.1196940  
O     6.1128670   -0.5258380    2.2707410  
C     7.9275110   -0.5855750    0.6919370  
O     8.7283080   -0.9251780    1.5484940  
C     8.2854380   -0.4393530   -0.7179410  
H     8.2578060    0.1269560   -3.6697630  
H     9.3125680   -0.6448650   -1.0034060  
H     5.8008450    0.9466610   -4.3872210  
H     4.3324330    0.9921340   -2.3412670  
C     1.4967870   -1.3871900   -1.1184600  
C     2.8239220   -1.1453690   -0.9902320  
C     2.9891880   -0.0846600   -0.0209240  
C     1.6242150    0.2817750    0.4209440  
N     0.7397170   -0.5235910   -0.3123690  
C     1.3529580    1.1634100    1.4140980  
C     2.4728860    1.8425790    2.0602430  
O     2.3265270    2.6213970    2.9886800  
C     3.9182920    1.5708020    1.5217240  
O     4.8323150    2.2697650    1.9175940  
C     4.1091020    0.5060870    0.5014510  
H     3.6156600   -1.6765170   -1.4970320  
H     0.3544050    1.3901490    1.7623150  
H     0.9841650   -2.1255110   -1.7148430  
C    -1.9159290   -3.9141480   -0.1163670  
C    -3.1195980   -3.3062270    0.0299670  
C    -2.8371020   -1.8748010    0.0249420  
C    -1.3704090   -1.8087630   -0.1490880  
N    -0.8347580   -2.9966420   -0.2245130  
C    -0.6600980   -0.5385090   -0.2233130  
C    -1.4216150    0.5943380   -0.2117270  
O    -0.9142500    1.8331080   -0.3623030  
C    -2.8960200    0.5552570   -0.0275210  
O    -3.4834810    1.6385660   -0.0203700  
C    -3.6110250   -0.7540510    0.1359980  
H    -4.0915070   -3.7741370    0.0937220  
H    -1.6847280    2.4386140   -0.2823890  
H    -1.7029400   -4.9744160   -0.1724870  
C    -5.5532590   -1.6568600    1.3942540  
C    -5.0240750   -0.7751900    0.4801010  
C    -6.1545910    0.0258280   -0.0125620  
C    -7.3558700   -0.4856110    0.6922400  
N    -6.9085880   -1.4984950    1.5292970  
C    -8.6201050   -0.0302250    0.5212780  
C    -8.8433100    1.0419740   -0.4473530  
O    -9.9432260    1.5198980   -0.6706280  
C    -7.5977000    1.5801050   -1.2344680  
O    -7.7557160    2.4534560   -2.0705000  
C    -6.2741350    1.0102110   -0.9379770  
H    -9.4763280   -0.4288170    1.0566130  
H    -5.4272530    1.4271420   -1.4676680  
H    -5.0257860   -2.3839890    1.9970180  
H    -7.4848500   -1.9841710    2.2005810  
