58


C     3.8077700    0.6044280   -0.5796630  
C     4.5093640   -0.1219470   -1.5006310  
C     3.8873210   -1.4179220   -1.6194240  
C     2.7473100   -1.4117660   -0.6742050  
N     2.7082150   -0.1390980   -0.1167410  
C     1.9494610   -2.4805180   -0.4030340  
C     2.1989130   -3.7087620   -1.1995610  
O     1.4873390   -4.6926460   -1.1148500  
C     3.3830200   -3.7199620   -2.2314420  
O     3.5939630   -4.7404920   -2.8678630  
C     4.1844370   -2.5088560   -2.3770180  
H     5.3398400    0.2390150   -2.0908460  
H     5.0186500   -2.5322950   -3.0713360  
H     2.2699540    0.0347950    0.7778140  
C     5.2113080    2.5913390    0.0973660  
C     4.0129560    1.9622270   -0.1141180  
C     2.9749280    2.9462520    0.1645110  
C     3.6744870    4.1926820    0.5562880  
N     5.0281370    3.9018410    0.4908180  
C     3.0487810    5.3476970    0.8889500  
C     1.5846750    5.3816030    0.8412090  
O     0.9328380    6.3686850    1.1361670  
C     0.8313420    4.0839800    0.3732600  
O    -0.3868960    4.1117740    0.2588980  
C     1.6203720    2.8920760    0.0773210  
H     3.5717300    6.2534820    1.1790760  
H     1.0949950    1.9952480   -0.2331150  
H     6.2096290    2.1841490    0.0056130  
H     5.7685350    4.5399390    0.7404190  
C    -2.0101620   -0.4100390    0.2250320  
C    -0.7585350   -0.7396880   -0.2233800  
C    -0.2498180   -1.7765140    0.6445200  
C    -1.3065000   -2.0172590    1.6589770  
N    -2.3705400   -1.1919460    1.3206840  
C    -1.2269350   -2.8947930    2.6868290  
C    -0.0162210   -3.6987350    2.8093720  
O     0.1539360   -4.5185270    3.6967020  
C     1.1117980   -3.4925580    1.7412950  
O     2.1656200   -4.0866310    1.8878180  
C     0.8969310   -2.5302460    0.6298690  
H    -0.2921160   -0.3688570   -1.1239210  
H    -2.0289070   -3.0531650    3.4010930  
H    -3.1114600   -0.9401430    1.9596950  
C    -2.5515600    1.8324310   -0.6841620  
C    -3.6383170    2.5171820   -1.1034180  
C    -4.7942250    1.6583040   -0.9589380  
C    -4.2937520    0.3770430   -0.4060920  
N    -2.9045890    0.5369920   -0.2478400  
C    -5.0733360   -0.7044120   -0.1654910  
C    -6.5138650   -0.5937860   -0.4250230  
O    -7.2862130   -1.5154680   -0.2234100  
C    -7.0683770    0.7651870   -0.9795640  
O    -8.2650780    0.8768610   -1.1880170  
C    -6.1110570    1.8464020   -1.2309530  
H    -3.6425680    3.5415850   -1.4466360  
H    -4.6978990   -1.6556200    0.1940160  
H    -6.4953780    2.7752920   -1.6409200  
H    -1.5327360    2.1771950   -0.5750570  
