58


C     2.3420390    3.7189700    1.4478810  
C     1.6668520    2.7132280    0.8200240  
C     0.2918280    3.1567990    0.6249260  
C     0.2396790    4.5274750    1.1956620  
N     1.5080950    4.7996360    1.6750210  
C    -0.8655420    5.3122630    1.2145890  
C    -2.0938550    4.7871140    0.6279660  
O    -3.1421890    5.4112850    0.6027610  
C    -2.0541140    3.3449880    0.0029250  
O    -3.0679730    2.9178110   -0.5253100  
C    -0.8039920    2.5763630    0.0674250  
H    -0.8829200    6.3091760    1.6439440  
H    -0.8118990    1.5687980   -0.3394190  
H     3.3791490    3.7497460    1.7519140  
H     1.7982410    5.6819970    2.0669840  
C     1.7287450    0.2295710    0.7355070  
C     2.5505970   -0.7745540    0.3018260  
C     3.6568840   -0.1270520   -0.4016120  
C     3.4110250    1.3311930   -0.3093280  
N     2.2210630    1.4894680    0.4050160  
C     4.2082370    2.2842250   -0.8526980  
C     5.3905820    1.8631540   -1.6000350  
O     6.1623360    2.6537160   -2.1209580  
C     5.6583410    0.3246610   -1.7358880  
O     6.6357760   -0.0545530   -2.3614720  
C     4.7185210   -0.6054360   -1.1009920  
H     3.9995100    3.3460530   -0.7855960  
H     4.9259520   -1.6629560   -1.1987570  
H     0.7936830    0.1448430    1.2684560  
C    -1.2459670   -2.9436060    0.2468420  
C    -0.8240530   -4.2340520    0.4439530  
C     0.6085540   -4.1671390    0.5773320  
C     0.9252600   -2.7114100    0.4297730  
N    -0.1484980   -2.0079030    0.2428900  
C     2.2954020   -2.2023860    0.4856130  
C     3.2597780   -3.1403050    0.7295960  
O     4.5645870   -2.8485570    0.8781270  
C     2.9659750   -4.6019230    0.8800720  
O     3.9209540   -5.3518240    1.0981000  
C     1.5816850   -5.0817440    0.7856100  
H    -1.4270170   -5.1306420    0.4802450  
H     5.0016200   -3.7168970    1.0368960  
H     1.4119780   -6.1479820    0.8985720  
C    -2.5938210   -2.4792100    0.0383870  
C    -3.7351010   -3.2438300    0.0231570  
C    -4.8140910   -2.3274500   -0.2504040  
C    -4.1411020   -0.9922590   -0.3774410  
N    -2.8540300   -1.0848560   -0.2030570  
C    -4.8902240    0.2047930   -0.6614390  
C    -6.2314930    0.0822990   -0.8085900  
O    -7.0544050    1.1056920   -1.0768770  
C    -6.9379570   -1.2457730   -0.6827820  
O    -8.1591530   -1.2609090   -0.8304380  
C    -6.1528370   -2.4565550   -0.3923760  
H    -3.8222870   -4.3106620    0.1757150  
H    -4.3777490    1.1568110   -0.7484040  
H    -7.9547590    0.7155350   -1.1245430  
H    -6.6944000   -3.3939960   -0.3094630  
