60


C     1.1324870   -0.2525690    0.8204940  
C     2.3364200    0.2433350    0.3621840  
C     2.9574460   -0.8432130   -0.3872350  
C     2.0716170   -1.9447180   -0.3501160  
N     0.9419120   -1.5557830    0.3958740  
C     2.3413450   -3.1513430   -0.9990500  
C     3.5591230   -3.2738190   -1.6531390  
O     3.8683050   -4.4361100   -2.2920510  
C     4.4866900   -2.2047430   -1.6473080  
O     5.6651280   -2.4754820   -2.3112880  
C     4.1997780   -0.9998630   -1.0266700  
H     1.6708440   -3.9994980   -0.9725180  
H     4.7765120   -4.3507440   -2.6297320  
H     6.3027430   -1.7652500   -2.1455560  
H     4.9291720   -0.1956440   -1.0399270  
H     0.4100850    0.2161500    1.4665190  
C    -3.3129060   -0.4427760    0.1482310  
C    -1.9317840   -0.4659420    0.0637970  
C    -1.4784260   -1.7376290    0.5328840  
C    -2.6910590   -2.4994440    0.9034950  
N    -3.7541790   -1.6598530    0.6689470  
C    -2.7034730   -3.7831390    1.3529320  
C    -1.4357900   -4.4715230    1.4949880  
O    -1.3249590   -5.6406140    1.8317470  
C    -0.1122370   -3.6735390    1.1922220  
O     0.9566810   -4.1964390    1.4479330  
C    -0.2220590   -2.2969370    0.6433750  
H    -1.3139230    0.3126500   -0.3515040  
H    -3.6152850   -4.3191550    1.5944290  
H    -4.7335410   -1.9100290    0.6859220  
C    -2.9629210    3.9521780   -0.6875040  
C    -2.6594910    2.6986740   -0.2540490  
C    -3.8679700    1.9219640   -0.4544940  
C    -4.8334010    2.9095190   -1.0228170  
N    -4.2931820    4.0887460   -1.1724590  
C    -6.1882120    2.5552770   -1.3454880  
C    -6.5922500    1.2915150   -1.0806420  
O    -7.8412700    0.8439810   -1.2976400  
C    -5.6643900    0.2758340   -0.4892170  
O    -6.1543390   -0.8263700   -0.2196680  
C    -4.2245130    0.6095460   -0.2525580  
H    -1.7352860    2.3718050    0.1973650  
H    -6.8582470    3.2983270   -1.7633370  
H    -7.8524530   -0.0872550   -0.9907930  
H    -2.3204080    4.8247260   -0.6858920  
C     4.6451660    3.2484180   -2.0213990  
C     3.9189520    2.1675150   -1.6343790  
C     3.5920620    2.3371050   -0.2319730  
C     4.1784080    3.6374350    0.1626350  
N     4.8341330    4.1181540   -0.9528930  
C     4.0674220    4.2192570    1.3890120  
C     3.2702870    3.5386160    2.3862280  
O     3.1021790    3.9464370    3.5266190  
C     2.5493800    2.2013960    1.9695990  
O     1.7362530    1.7360450    2.7492940  
C     2.8584350    1.5709110    0.6496600  
H     3.6131200    1.3487430   -2.2662750  
H     4.5331380    5.1651980    1.6467610  
H     5.0537860    3.4907140   -2.9933670  
H     5.2703270    5.0250630   -1.0101150  
