58


C     1.0971470   -1.7617120    0.0348070  
C     1.8008660   -2.9395460    0.1708130  
C     3.2012620   -2.6195370    0.2054750  
C     3.2907550   -1.1461400    0.0889140  
N     1.9925180   -0.6917380   -0.0131040  
C     4.4577900   -0.4333350    0.0668140  
C     5.7102700   -1.2084750    0.2296310  
O     6.7962530   -0.6767640    0.3696620  
C     5.6315800   -2.7761680    0.2924880  
O     6.6685540   -3.4178900    0.3483460  
C     4.3115700   -3.4053810    0.2977390  
H     1.3776470   -3.9249190    0.2868260  
H     4.2634980   -4.4882030    0.3599230  
H     1.6870560    0.2714580    0.0137650  
C    -2.4010820   -4.3490650   -0.9870360  
C    -1.1276130   -3.8999950   -0.8719190  
C    -1.2427720   -2.5381410   -0.3761690  
C    -2.7146500   -2.3136670   -0.2691680  
N    -3.3780200   -3.3816510   -0.6144220  
C    -3.2995480   -1.0408150    0.1575300  
C    -2.3903990   -0.0638980    0.4691760  
O    -2.7447540    1.1576530    0.9253840  
C    -0.9286040   -0.2444090    0.3500130  
O    -0.2177030    0.7410750    0.5997020  
C    -0.3436790   -1.5724370   -0.0230740  
H    -0.2213460   -4.4184000   -1.1449490  
H    -1.9035910    1.6547080    1.0215340  
H    -2.7382940   -5.3179680   -1.3343970  
C    -5.6176040   -1.9220900    0.4893380  
C    -4.7474350   -0.8884440    0.2233100  
C    -5.5844940    0.2950940   -0.0094790  
C    -6.9882490   -0.1491400    0.1833530  
N    -6.9225880   -1.4966650    0.4941290  
C    -8.0867090    0.6337020    0.0527990  
C    -7.8995360    2.0313710   -0.3280140  
O    -8.8245350    2.8160410   -0.4642350  
C    -6.4317460    2.5212210   -0.5837070  
O    -6.2441710    3.6787520   -0.9222640  
C    -5.3272440    1.5696970   -0.4037500  
H    -9.0988930    0.2694390    0.1999420  
H    -4.3259150    1.9410570   -0.5728680  
H    -5.3766320   -2.9584710    0.6682830  
H    -7.7228590   -2.0896770    0.6543180  
C     2.7524350    2.9121930    2.3959630  
C     3.2195430    3.9548100    1.6652600  
C     3.9817010    3.4045770    0.5623460  
C     3.9148060    1.9315150    0.7122390  
N     3.1194350    1.6944520    1.8223160  
C     4.5356740    1.0266440   -0.1002850  
C     5.2918400    1.5796870   -1.2486580  
O     5.7822360    0.8735620   -2.1104890  
C     5.4055310    3.1402380   -1.3979620  
O     6.0837900    3.5926520   -2.3060540  
C     4.6841130    3.9849640   -0.4466950  
H     3.0546730    5.0037950    1.8639930  
H     4.7567240    5.0612450   -0.5689730  
H     2.1538250    2.9185240    3.2972680  
H     3.0842280    0.8060810    2.2999390  
