60


C     1.2989820   -1.5736080   -1.3515840  
C     2.6409780   -1.3564140   -1.4068940  
C     2.9009960   -0.1136020   -0.7291660  
C     1.6604860    0.4015920   -0.2853710  
N     0.6673420   -0.5105780   -0.6881000  
C     1.5659820    1.5488410    0.5058950  
C     2.7442140    2.2152060    0.8135910  
O     2.7007580    3.3415000    1.5700490  
C     3.9986120    1.7534520    0.3382350  
O     5.0631760    2.5592820    0.6613330  
C     4.0834280    0.5943800   -0.4319560  
H     3.3653010   -2.0025600   -1.8823400  
H     0.6287000    1.9424020    0.8752950  
H     3.6200300    3.6426960    1.6890350  
H     5.8735730    2.0305730    0.7797890  
H     0.6994500   -2.3679170   -1.7693620  
C    -2.2514860   -3.5023940    0.6917380  
C    -1.0771220   -2.9159740    0.3573540  
C    -1.4279680   -1.5578820   -0.0353260  
C    -2.9026910   -1.4968850    0.1242870  
N    -3.3706440   -2.6360510    0.5505770  
C    -3.6783740   -0.2785380   -0.1473470  
C    -2.9354370    0.8043950   -0.5426040  
O    -3.4618850    2.0153810   -0.8349620  
C    -1.4600500    0.7754350   -0.7262460  
O    -0.9268270    1.7986370   -1.1573930  
C    -0.7019940   -0.4759150   -0.4287750  
H    -0.0843920   -3.3391510    0.4019910  
H    -2.6986070    2.5653050   -1.1276690  
H    -2.4194440   -4.5100320    1.0505940  
C    -5.1209880   -0.2474430    0.0014790  
C    -5.9761760   -1.2569530    0.3873360  
C    -7.3125110   -0.7302640    0.3778660  
C    -7.2011460    0.6869310   -0.0474850  
N    -5.8623640    0.9147490   -0.2589580  
C    -8.2570520    1.5313790   -0.1801100  
C    -9.5933950    1.0249840    0.1111220  
O   -10.6029470    1.7076180    0.0197600  
C    -9.7356140   -0.4754730    0.5631350  
O   -10.8464760   -0.9189030    0.8112850  
C    -8.5209450   -1.2884940    0.6702470  
H    -5.6698950   -2.2566540    0.6479490  
H    -8.1575620    2.5662300   -0.4926290  
H    -8.6294510   -2.3224900    0.9833450  
H    -5.4472170    1.7856970   -0.5534490  
C     5.6614580   -0.0050260   -2.2823780  
C     6.9565070   -0.3622010   -2.4511160  
C     7.5529640   -0.4557450   -1.1341350  
C     6.4723220   -0.1264070   -0.1701360  
N     5.3388970    0.1405340   -0.9212110  
C     6.6303130   -0.1106320    1.1840820  
C     7.9449190   -0.4406250    1.7348990  
O     8.1725170   -0.4764920    2.9333380  
C     9.1061340   -0.7702360    0.7289180  
O    10.2171220   -1.0201360    1.1658790  
C     8.8035160   -0.7678040   -0.7079060  
H     7.4573950   -0.5352550   -3.3925320  
H     5.8111540    0.0518190    1.8785510  
H     9.6096440   -1.0194710   -1.3905170  
H     4.8920260    0.1846350   -3.0183950  
