62


C    -0.9542910    0.0822730   -0.2591400  
C    -2.3233020   -0.0301740   -0.4909660  
C    -2.8921160    1.2574380   -0.3132800  
C    -1.8208350    2.1454280    0.0209620  
N    -0.6726020    1.4045040    0.0529560  
C    -2.0116360    3.5146220    0.2429290  
C    -3.3029670    3.9991780    0.1299740  
O    -3.5554330    5.3167220    0.3487410  
C    -4.3856590    3.1355270   -0.2087410  
O    -5.6017990    3.7813180   -0.2770690  
C    -4.2151410    1.7748760   -0.4312630  
H    -2.8402990   -0.9420500   -0.7522290  
H     0.2717190    1.7181080    0.2284980  
H    -1.2017000    4.1891470    0.4986760  
H    -4.5164190    5.4463790    0.2625390  
H    -6.3045080    3.1086560   -0.2927870  
C     0.1108240   -0.8695300   -0.2981570  
C     0.1204130   -2.2007360   -0.6238280  
C     1.4875450   -2.6199010   -0.5009610  
C     2.2297510   -1.3860040   -0.0652930  
N     1.4204860   -0.3735230    0.0445170  
C     3.6729720   -1.3781430    0.1771560  
C     4.2899130   -2.5824300   -0.0230660  
O     5.6053480   -2.7945300    0.1816470  
C     3.5764060   -3.8243750   -0.4716050  
O     4.2645740   -4.8447130   -0.6063500  
C     2.1376710   -3.7921970   -0.7043130  
H    -0.7157040   -2.8157420   -0.9256560  
H     5.7261450   -3.7511970   -0.0279540  
H     1.6562680   -4.7108580   -1.0238470  
C     3.7852840    0.7917580    1.4523220  
C     4.3487100   -0.1547530    0.6142830  
C     5.6766130    0.3360380    0.2902190  
C     5.8411330    1.5701760    0.9686830  
N     4.6749140    1.8121070    1.6722650  
C     6.9962120    2.3537830    0.8696510  
C     8.0166540    1.8859970    0.0570010  
O     9.1695800    2.6052600   -0.0769190  
C     7.8692520    0.6605850   -0.6416310  
O     8.9650420    0.3254700   -1.4175830  
C     6.7247740   -0.1081820   -0.5407350  
H     4.5068230    2.6119790    2.2621070  
H     7.1144740    3.2964760    1.3943680  
H     9.7510120    2.1015530   -0.6723690  
H     8.8233400   -0.5496450   -1.8077200  
H     6.6494160   -1.0496890   -1.0739980  
H     2.8078130    0.7965330    1.9075740  
C    -6.2363500    1.0913800   -1.8171930  
C    -5.3679800    0.9193400   -0.7744390  
C    -5.8121450   -0.2884880   -0.0740450  
C    -6.9994300   -0.7906220   -0.8081200  
N    -7.2044690    0.0964310   -1.8480650  
C    -7.7026390   -1.9009060   -0.4698340  
C    -7.2758010   -2.6612210    0.7016460  
O    -7.8415750   -3.6742630    1.0820960  
C    -6.0300940   -2.1378430    1.5064160  
O    -5.6632390   -2.7512290    2.4949390  
C    -5.3517110   -0.9229300    1.0342610  
H    -8.5692420   -2.2511670   -1.0221880  
H    -4.4899050   -0.5737490    1.5933210  
H    -6.2244380    1.8576270   -2.5820410  
H    -7.9252760    0.0089350   -2.5473950  
