60


C    -3.3617960    2.9049710    1.9626310  
C    -4.1937820    1.8870090    1.5756450  
C    -3.4193180    0.9900860    0.7574040  
C    -2.1122650    1.5346570    0.6861980  
N    -2.1143860    2.7090020    1.4065450  
C    -1.0286000    0.8938930    0.0342440  
C    -1.3245000   -0.3797030   -0.4718540  
O    -0.3598230   -1.1385200   -1.0688620  
C    -2.6279510   -0.9377190   -0.4289470  
O    -2.7055750   -2.1612250   -1.0429860  
C    -3.7131760   -0.2596820    0.1321030  
H    -5.2235210    1.7669910    1.8789700  
H    -1.2773780    3.2111940    1.6629610  
H    -0.8126770   -1.9757300   -1.3063050  
H    -3.3002080   -2.7282460   -0.4868300  
H    -3.5524870    3.7598000    2.5956150  
C     0.2860900    1.5064410   -0.0692550  
C     0.6508880    2.8347460    0.0096980  
C     2.0770930    2.9187160   -0.1465600  
C     2.5507740    1.5280360   -0.3328270  
N     1.4275720    0.7348490   -0.2801160  
C     3.8554130    1.1521770   -0.5177270  
C     4.8519790    2.2417700   -0.5247740  
O     6.0438870    2.0456550   -0.7008110  
C     4.3665780    3.7254760   -0.3153110  
O     5.2090060    4.6114540   -0.3000800  
C     2.9428360    3.9729130   -0.1454230  
H    -0.0170730    3.6812460    0.0674260  
H     2.6178990    5.0001970   -0.0121760  
H     1.4052500   -0.2689210   -0.3808310  
C     3.6530610   -1.1040050   -1.6309030  
C     4.2588340   -0.2375310   -0.7639520  
C     5.3477490   -0.9925370   -0.1317900  
C     5.3023320   -2.3576490   -0.7112050  
N     4.2494820   -2.3570450   -1.6051980  
C     6.1489690   -3.3685690   -0.3878350  
C     7.1744050   -3.1173130    0.6175870  
O     7.9801400   -3.9619510    0.9790780  
C     7.2263490   -1.6871700    1.2675510  
O     8.0560190   -1.4609760    2.1331270  
C     6.2663310   -0.6712190    0.8127290  
H     6.0956410   -4.3567670   -0.8345210  
H     6.3459530    0.3201180    1.2424970  
H     2.8244240   -0.9179300   -2.3023610  
H     4.0107130   -3.1256380   -2.2120530  
C    -7.4709940    1.7240240   -0.9849900  
C    -8.3573520    0.7255520   -0.7516680  
C    -7.5976630   -0.4225240   -0.3003580  
C    -6.1727680    0.0015100   -0.2826460  
N    -6.1678930    1.3003440   -0.7214690  
C    -5.0986890   -0.7838050    0.0857790  
C    -5.4293460   -2.1746130    0.3837280  
O    -4.5884850   -3.0618800    0.5508150  
C    -6.9348840   -2.6197710    0.4821390  
O    -7.1773450   -3.7469390    0.8769900  
C    -7.9697050   -1.6730950    0.0745600  
H    -9.4278940    0.7663590   -0.8883020  
H    -9.0032750   -2.0023220    0.1055690  
H    -7.6433590    2.7323970   -1.3367070  
H    -5.3493610    1.8918080   -0.7133070  
