58


C    -4.8189420    0.0451620   -0.0376740  
C    -5.6959300    1.0965680   -0.1807070  
C    -7.0311130    0.5730820   -0.0891290  
C    -6.8929580   -0.8896380    0.1220420  
N    -5.5428590   -1.1435640    0.1445850  
C    -7.9393700   -1.7455900    0.2591710  
C    -9.2920170   -1.2049690    0.1991860  
O   -10.2947740   -1.8946970    0.3147680  
C    -9.4626620    0.3437760   -0.0232050  
O   -10.5891580    0.8149280   -0.0742810  
C    -8.2572270    1.1637750   -0.1593600  
H    -5.4071000    2.1228100   -0.3365400  
H    -7.8197100   -2.8136870    0.4123130  
H    -8.3858100    2.2308860   -0.3134810  
H    -5.1103630   -2.0468590    0.2644990  
C    -1.9749710    3.3484500   -0.6230840  
C    -0.7840210    2.7166560   -0.5143340  
C    -1.1121380    1.3211540   -0.2519990  
C    -2.6066380    1.2919100   -0.2462620  
N    -3.0950550    2.4777860   -0.4620610  
C    -3.3667130    0.0523550   -0.0497630  
C    -2.6003850   -1.0715540    0.1210260  
O    -3.1043260   -2.3053480    0.3281820  
C    -1.1064730   -1.0606620    0.1543590  
O    -0.5525810   -2.1208710    0.4415920  
C    -0.3574330    0.2049000   -0.0874550  
H     0.2067190    3.1351320   -0.6140300  
H    -2.3155730   -2.8844230    0.4544570  
H    -2.1635960    4.3960730   -0.8226480  
C     2.8593940    2.3082490    2.1896480  
C     1.6608040    1.8793580    1.7097580  
C     1.9311560    0.8885320    0.6931600  
C     3.4055650    0.7623860    0.6292350  
N     3.9080830    1.6338300    1.5826750  
C     4.1039920   -0.0592460   -0.2090520  
C     3.2973240   -0.9322650   -1.0915520  
O     3.7894850   -1.8077930   -1.7769300  
C     1.7397790   -0.7670200   -1.0975740  
O     1.0954310   -1.3645730   -1.9411160  
C     1.1099140    0.1367880   -0.1100770  
H     0.6877100    2.2218450    2.0267400  
H     3.0644940    3.0529670    2.9474580  
H     4.8830080    1.8834210    1.6550000  
C     7.0989420   -1.1507600    2.8549150  
C     8.2286990   -1.0290220    2.1155490  
C     7.8335800   -0.6041490    0.7871410  
C     6.3560400   -0.4808670    0.8182020  
N     5.9733130   -0.7847810    2.1127940  
C     5.5721160   -0.1473390   -0.2510840  
C     6.2717980    0.1554960   -1.5207740  
O     5.6874880    0.5658060   -2.5067390  
C     7.8348400    0.0075210   -1.5741530  
O     8.4068040    0.2151840   -2.6311620  
C     8.5422900   -0.3640830   -0.3473430  
H     9.2387400   -1.2173780    2.4491530  
H     9.6226430   -0.4591510   -0.3964910  
H     6.9815630   -1.4595090    3.8852780  
H     5.0224880   -0.9998510    2.3749660  
