58


C     2.1826550   -0.1104750   -0.2775110  
C     1.3833710    0.9321750    0.0807210  
C     2.2113380    2.1279530    0.1233080  
C     3.5758760    1.6819180   -0.2342510  
N     3.4952940    0.3101950   -0.4948290  
C     4.6542720    2.4999430   -0.2889970  
C     4.4655320    3.9204740    0.0112630  
O     5.3793850    4.7282220   -0.0127560  
C     3.0183830    4.4165070    0.3722890  
O     2.8377850    5.5977130    0.6146340  
C     1.9342130    3.4264760    0.4052230  
H     5.6503590    2.1557820   -0.5454780  
H     0.9372610    3.7762730    0.6544960  
H     1.9240740   -1.1512870   -0.4175240  
C    -0.6026050    1.2734910    1.5426100  
C    -1.9490270    1.1259110    1.4820180  
C    -2.2778860    0.6064720    0.1726250  
C    -0.9918730    0.4519960   -0.5368210  
N     0.0020650    0.8868210    0.3383250  
C    -0.8457420   -0.0271570   -1.8015720  
C    -2.0370290   -0.4509960   -2.5090130  
O    -2.0263880   -0.9124630   -3.6407840  
C    -3.4233500   -0.3283450   -1.7735910  
O    -4.4119950   -0.7239870   -2.3666690  
C    -3.4831590    0.2677500   -0.4096680  
H    -2.6416620    1.3273960    2.2842670  
H     0.1124960   -0.1120100   -2.3012830  
H     0.0204070    1.6118700    2.3593570  
C     5.2046750   -0.5845590   -2.0463970  
C     4.5686210   -0.5363930   -0.8396140  
C     5.2065810   -1.5076860    0.0360190  
C     6.2752340   -2.1314020   -0.7780870  
N     6.2207420   -1.5174730   -2.0227530  
C     7.1068090   -3.1032560   -0.3317000  
C     6.9466420   -3.5727090    1.0467890  
O     7.6466990   -4.4444410    1.5334240  
C     5.8201060   -2.9183100    1.9281200  
O     5.6718790   -3.2958670    3.0778950  
C     4.9846760   -1.8726800    1.3244140  
H     7.8858490   -3.5526320   -0.9396850  
H     4.2125500   -1.4228440    1.9409100  
H     5.0053420   -0.0063380   -2.9390130  
H     6.8371050   -1.7226320   -2.7942180  
C    -5.0782870    1.6031490    1.0173040  
C    -4.7650060    0.5266170    0.2256440  
C    -6.0156210   -0.2733530    0.2185740  
C    -6.9445990    0.5024910    1.0907420  
N    -6.3863970    1.5992620    1.5363320  
C    -8.2819150    0.0597970    1.3740580  
C    -8.6874890   -1.1140520    0.8326510  
O    -9.9013130   -1.6533510    1.0148070  
C    -7.7728020   -1.9298410   -0.0385600  
O    -8.2045530   -2.9906710   -0.4837030  
C    -6.4058990   -1.4403580   -0.3277250  
H    -8.9253370    0.6586160    2.0089110  
H    -9.8938100   -2.4940690    0.5057830  
H    -5.7980820   -2.0414920   -0.9919030  
H    -4.4406410    2.4512190    1.2358920  
