58


C    -2.1897660   -1.6018810    0.0756440  
C    -2.5362790   -2.9282540    0.1910160  
C    -3.9687600   -3.0147600    0.1149030  
C    -4.4609270   -1.6224610   -0.0622010  
N    -3.3397000   -0.8217390   -0.0570040  
C    -5.7691060   -1.2856820   -0.1945150  
C    -6.7694380   -2.3484210   -0.1506500  
O    -7.9683330   -2.1398740   -0.2569870  
C    -6.2727830   -3.8277130    0.0478260  
O    -7.0960220   -4.7296170    0.0885130  
C    -4.8339150   -4.0669410    0.1730850  
H    -1.8536940   -3.7538500    0.3319700  
H    -6.1116750   -0.2643520   -0.3288330  
H    -4.5024490   -5.0925610    0.3045580  
H    -3.3019760    0.1698260   -0.2415950  
C    -0.9008520   -0.9612410    0.0753300  
C     0.3508650   -1.5158490    0.0759760  
C     1.2692160   -0.4064510    0.0589960  
C     0.3941500    0.8080600    0.0428220  
N    -0.8705670    0.4672840    0.0639390  
C     0.9151510    2.1600610    0.0350790  
C     2.2774370    2.2523890    0.1442750  
O     2.9251940    3.4090710    0.2483350  
C     3.1955570    1.0552530    0.1354500  
O     4.3988290    1.2839900    0.0898130  
C     2.6305850   -0.3236260    0.1187270  
H     0.6089420   -2.5645500    0.0856570  
H     3.8838690    3.1875680    0.2299260  
C    -2.8537570    3.5185800    1.9650720  
C    -2.9652990    4.7438080    1.3923540  
C    -1.8547540    4.8910490    0.4755700  
C    -1.0700450    3.6337150    0.5805910  
N    -1.7042850    2.8585500    1.5324800  
C     0.0760620    3.3638030   -0.1186160  
C     0.4610800    4.3635050   -1.1436700  
O     1.3306850    4.1586780   -1.9725200  
C    -0.3067200    5.7334340   -1.1989230  
O     0.1023980    6.5987830   -1.9568770  
C    -1.4819340    5.9041710   -0.3507760  
H    -3.7329280    5.4791330    1.5851220  
H    -2.0220000    6.8440140   -0.4117440  
H    -3.5002610    3.0412800    2.6903280  
H    -1.6004140    1.8485260    1.5091180  
C     3.2894060   -3.8667140   -2.5188730  
C     2.8091320   -2.7218170   -1.9593780  
C     3.5780800   -2.4706420   -0.7641380  
C     4.5655120   -3.5757110   -0.6743730  
N     4.3219280   -4.3949570   -1.7616490  
C     5.5143380   -3.6978620    0.2875690  
C     5.5841090   -2.6715450    1.3221800  
O     6.4225260   -2.6726370    2.2079370  
C     4.5185230   -1.5213840    1.2948030  
O     4.4670530   -0.7504720    2.2358960  
C     3.5613020   -1.4533400    0.1601320  
H     2.0056820   -2.1140870   -2.3462850  
H     6.2385170   -4.5061850    0.3146540  
H     2.9727490   -4.3684250   -3.4238030  
H     4.8683670   -5.2068740   -2.0040500  
