58


C     4.6777010   -0.0236050    0.1250060  
C     5.2373800   -1.2487510   -0.2018830  
C     6.6473570   -1.0620700   -0.3738580  
C     6.9062610    0.3781280   -0.1301290  
N     5.6860030    0.9393750    0.1746760  
C     8.1312310    0.9568980   -0.2093420  
C     9.2771840    0.1179350   -0.5508440  
O    10.4160560    0.5491590   -0.6423550  
C     9.0261360   -1.4125960   -0.8103340  
O     9.9718500   -2.1318560   -1.0948750  
C     7.6570940   -1.9204260   -0.6996160  
H     4.7027890   -2.1690290   -0.3762110  
H     8.3037380    2.0135150   -0.0308120  
H     7.4938830   -2.9781030   -0.8836820  
H     5.4728550    1.9236260    0.2746610  
C     1.0908080   -2.4295850    1.2349160  
C     2.3655040   -2.0014080    1.0186690  
C     2.2997650   -0.6100150    0.6557430  
C     0.8761860   -0.2540560    0.6725810  
N     0.1913310   -1.4029680    0.9896970  
C     0.3465030    1.0033760    0.4194960  
C     1.3335610    2.0819170    0.3036790  
O     1.0437320    3.2700330    0.2366040  
C     2.8620600    1.7284140    0.2761250  
O     3.6362800    2.6744090    0.2119300  
C     3.2902170    0.3186580    0.3464700  
H     3.2584460   -2.5892520    1.1554810  
H     0.7331700   -3.3995390    1.5520120  
H    -0.7862870   -1.4177100    1.2462430  
C    -1.0682450    1.2771480    0.3172990  
C    -2.1250750    0.4023200    0.1105370  
C    -3.3343580    1.1656830    0.0661430  
C    -2.9322960    2.5799200    0.2382320  
N    -1.5639500    2.5732890    0.4095210  
C    -3.7850030    3.6353760    0.2005450  
C    -5.2015030    3.3702260   -0.0187740  
O    -6.0421820    4.2511130   -0.1039280  
C    -5.6698870    1.8756450   -0.1311040  
O    -6.8637180    1.6364580   -0.1484490  
C    -4.6460050    0.7979770   -0.1311810  
H    -2.0563130   -0.6515830   -0.1073280  
H    -3.4623630    4.6664120    0.3040780  
H    -0.9443300    3.3742190    0.4305960  
C    -4.2035150   -2.8966030    2.3393860  
C    -4.1291670   -1.6255190    1.8610440  
C    -4.8204830   -1.6003020    0.5862390  
C    -5.3122930   -2.9797850    0.3644030  
N    -4.8718420   -3.7236190    1.4468840  
C    -6.0696400   -3.3813700   -0.6886810  
C    -6.4306350   -2.3888690   -1.6921480  
O    -7.1395670   -2.6360600   -2.6544560  
C    -5.8580000   -0.9358570   -1.5319990  
O    -5.9953450   -0.1524310   -2.4515110  
C    -5.0908670   -0.5879320   -0.2996840  
H    -3.6785680   -0.7806280    2.3593280  
H    -6.4409690   -4.3946600   -0.8068920  
H    -3.8318160   -3.3010570    3.2719590  
H    -5.1597350   -4.6705740    1.6398180  
