58


C     5.8835130   -2.2106250    0.1320260  
C     7.2261110   -2.0480830    0.0877740  
C     7.4913470   -0.6319210   -0.0390910  
C     6.1640590    0.0340350   -0.0732960  
N     5.2125550   -0.9728290    0.0661820  
C     5.9919050    1.3737470   -0.2421880  
C     7.1773380    2.2217770   -0.3621780  
O     7.1106090    3.4316000   -0.5161420  
C     8.5890070    1.5390200   -0.2825280  
O     9.5890970    2.2355290   -0.3471880  
C     8.6427210    0.0813140   -0.1391470  
H     7.9660690   -2.8340600    0.1306680  
H     5.0216370    1.8470530   -0.3418480  
H     9.6223050   -0.3869710   -0.1270670  
H     5.2988550   -3.1147880    0.2041240  
C     2.6735570    1.6670070    2.4345450  
C     1.4672920    1.3104480    1.9231270  
C     1.6962990    0.2855870    0.9275130  
C     3.1560730    0.0716030    0.9065540  
N     3.6915460    0.9262210    1.8396930  
C     3.8101130   -0.8273320    0.0973040  
C     2.9865380   -1.6992770   -0.7301200  
O     3.4396520   -2.5958680   -1.4260170  
C     1.4222520   -1.5041410   -0.7027220  
O     0.7673300   -2.2588830   -1.3998020  
C     0.8229440   -0.4398690    0.1382340  
H     0.5082880    1.6923220    2.2358920  
H     2.9123650    2.3873930    3.2048370  
H     4.6800360    1.0935070    1.9578680  
C    -1.1832030    1.0867910    0.1328990  
C    -0.5985490   -0.1528850    0.0627550  
C    -1.7537080   -1.0738180   -0.0680880  
C    -2.9438770   -0.1716160   -0.0394070  
N    -2.5863260    1.0838130    0.0654200  
C    -4.3049240   -0.6645080   -0.1089540  
C    -4.4481370   -2.0204500   -0.1904950  
O    -5.6306200   -2.6334320   -0.2967520  
C    -3.2733720   -2.9536310   -0.2032540  
O    -3.5026810   -4.1589370   -0.2751520  
C    -1.9009720   -2.4087380   -0.1392330  
H    -5.4314000   -3.5960560   -0.3091390  
H    -1.0841430   -3.1178550   -0.1812950  
H    -0.6718710    2.0400450    0.1931230  
C    -5.7315390    2.7948990   -2.5374170  
C    -5.0259190    1.7438600   -2.0476160  
C    -5.7164660    1.2704440   -0.8681410  
C    -6.9067050    2.1455260   -0.7124610  
N    -6.8502480    3.0528440   -1.7511500  
C    -7.8424640    2.0220360    0.2631440  
C    -7.6751300    0.9582930    1.2418820  
O    -8.4670380    0.7491360    2.1479640  
C    -6.4068080    0.0355240    1.1274720  
O    -6.2218460   -0.8021680    1.9925450  
C    -5.4686560    0.2380090   -0.0052220  
H    -4.1076270    1.3470830   -2.4505260  
H    -8.7126530    2.6662280    0.3432120  
H    -5.5310980    3.4108280   -3.4041310  
H    -7.5433020    3.7609630   -1.9343910  
