58


C    -3.5514380    1.4247890   -1.4372330  
C    -3.8894990    2.7324900   -1.3444500  
C    -5.0186310    2.8359890   -0.4501460  
C    -5.3301720    1.4517140   -0.0156710  
N    -4.4182900    0.6177830   -0.6735490  
C    -6.2857170    1.1448070    0.8956530  
C    -7.0925260    2.2310090    1.4539840  
O    -7.9703750    2.0384620    2.2811610  
C    -6.8100210    3.6969060    0.9688380  
O    -7.4889060    4.6099420    1.4132780  
C    -5.7246380    3.9024090    0.0099050  
H    -3.3896630    3.5524390   -1.8396340  
H    -6.5008050    0.1381540    1.2278340  
H    -5.5045320    4.9214710   -0.2934100  
H    -2.7371370    0.9615390   -1.9738710  
C    -0.8647000   -1.7884800   -0.2619210  
C    -1.4150290   -3.0417690   -0.1193140  
C    -2.8435260   -2.8658210   -0.2400650  
C    -3.0088320   -1.3930620   -0.4204520  
N    -1.8701810   -0.7738110   -0.4304280  
C    -4.3206460   -0.7795420   -0.5705990  
C    -5.3904310   -1.6277070   -0.6255080  
O    -6.6528650   -1.2276950   -0.8399140  
C    -5.2443230   -3.1068290   -0.4411310  
O    -6.2752100   -3.7823100   -0.4939310  
C    -3.9128640   -3.6937640   -0.2389440  
H    -0.8977710   -3.9907480   -0.0699940  
H    -7.1893010   -2.0533880   -0.8079710  
H    -3.8587910   -4.7702880   -0.1110950  
C     2.4510440   -3.2827660    2.1340620  
C     3.4504120   -2.4795240    1.6827150  
C     2.8948930   -1.6370840    0.6487590  
C     1.4754930   -2.0131710    0.5370880  
N     1.2777900   -3.0403370    1.4295250  
C     0.5265120   -1.3928780   -0.2502380  
C     1.0128160   -0.2816920   -1.0969270  
O     0.3125610    0.3287150   -1.8822560  
C     2.5434940    0.0825620   -1.0603030  
O     2.9474450    0.8818150   -1.8800380  
C     3.4433840   -0.6166770   -0.1013990  
H     4.4641490   -2.4551580    2.0496710  
H     2.4673430   -4.0329790    2.9130450  
H     0.3589670   -3.3708220    1.6904980  
C     4.8370950   -0.2251820   -0.0158950  
C     5.9332020   -1.0317990    0.1587840  
C     7.0757030   -0.1448430    0.1608170  
C     6.4788170    1.2186740   -0.0056490  
N     5.1848930    1.1707500   -0.1135210  
C     7.3017600    2.4015480   -0.0282480  
C     8.6412100    2.2392590    0.0832590  
O     9.5264130    3.2458200    0.0691160  
C     9.2718980    0.8759000    0.2362470  
O    10.4973670    0.8255660    0.3336140  
C     8.4123850   -0.3174550    0.2714280  
H     5.9593420   -2.1114420    0.2025490  
H     6.8449570    3.3778920   -0.1442650  
H    10.4076170    2.8209950    0.1662350  
H     8.9019410   -1.2789290    0.3932620  
