60


C    -0.4544020    1.5344500    0.3362510  
C     0.9118430    1.5197820    0.1238870  
C     1.3184860    0.1538690   -0.0460840  
C     0.1422740   -0.6334390    0.0615780  
N    -0.9086400    0.2242450    0.3013230  
C     0.1301360   -2.0384400   -0.0674200  
C     1.3588340   -2.6226930   -0.3839820  
O     1.4343820   -3.9544500   -0.6116220  
C     2.5478880   -1.8558380   -0.5216750  
O     3.6493340   -2.6145980   -0.8206620  
C     2.5735310   -0.4746980   -0.3122280  
H     1.5290970    2.3994260    0.0091430  
H    -1.8591940   -0.0667310    0.4732020  
H     2.3688520   -4.1318200   -0.8389380  
H     4.1788480   -2.1104910   -1.4864530  
C    -1.0508790    3.8278880    1.1771410  
C    -1.3562660    2.6541830    0.5469560  
C    -2.7419650    2.7836390    0.0902770  
C    -3.1992610    4.1294780    0.5195350  
N    -2.1207850    4.7110390    1.1568980  
C    -4.4399380    4.6308790    0.2941620  
C    -5.4018510    3.8089610   -0.4353890  
O    -6.5423500    4.1718210   -0.6769020  
C    -4.9290650    2.3968090   -0.9347980  
O    -5.6998280    1.7021930   -1.5771240  
C    -3.5641350    1.9617830   -0.6121900  
H    -4.7525940    5.6178230    0.6211640  
H    -3.2671830    0.9827440   -0.9732610  
H    -0.1241570    4.1117180    1.6574920  
H    -2.1318380    5.6194790    1.5934760  
C     4.1511570    2.4160760    2.5833710  
C     5.2802710    2.8172800    1.9469710  
C     5.3594120    2.0716800    0.7075070  
C     4.1581470    1.1986890    0.6712760  
N     3.4801400    1.4488600    1.8396450  
C     3.8289720    0.3132800   -0.3319070  
C     4.8366390    0.1772160   -1.3827610  
O     4.8116820   -0.7020100   -2.2460760  
C     6.0560760    1.1710420   -1.4331760  
O     6.7890590    1.1345360   -2.4070710  
C     6.2670280    2.0709950   -0.3034720  
H     5.9996360    3.5404110    2.3021710  
H     7.1359120    2.7208590   -0.3235480  
H     3.7513790    2.7285960    3.5390030  
H     2.5696190    1.0660690    2.0494700  
C    -4.0177540   -2.0186860   -1.7826720  
C    -2.7074010   -1.7272580   -1.5818250  
C    -2.2664080   -2.6487740   -0.5378740  
C    -3.4849450   -3.4623550   -0.2439880  
N    -4.5027400   -3.0860320   -0.9670470  
C    -3.4718720   -4.5283270    0.7240340  
C    -2.3140130   -4.7627910    1.3817330  
O    -2.1558650   -5.7175880    2.3130530  
C    -1.0833600   -3.9214820    1.1581730  
O    -0.1255170   -4.1308140    1.8942800  
C    -1.0894790   -2.8451700    0.1131650  
H    -2.0977220   -1.0021190   -2.1019720  
H    -4.3692820   -5.1095230    0.9044300  
H    -1.2352880   -5.6123450    2.6395980  
H    -4.7052860   -1.5417880   -2.4711720  
