58


C     1.4819610    1.8863640   -0.1673220  
C     2.1491410    0.6846790   -0.0085760  
C     3.5540870    0.9308150   -0.1564280  
C     3.6908900    2.3848280   -0.4026490  
N     2.4102960    2.8927130   -0.4290720  
C     4.8732400    3.0383340   -0.5406730  
C     6.1034780    2.2638150   -0.4492450  
O     7.2164000    2.7609940   -0.5224900  
C     5.9900700    0.7072270   -0.2693130  
O     6.9996570    0.0332850   -0.3642330  
C     4.6475720    0.0997120   -0.0684370  
H     1.7107870   -0.2558870    0.2813250  
H     4.9469180    4.1103960   -0.6928880  
H     2.1427160    3.8694710   -0.4176760  
C    -2.1564960   -0.6560180   -0.4652440  
C    -0.8907860   -0.1669470   -0.5162040  
C    -0.9308690    1.2265950   -0.1636450  
C    -2.3548980    1.5356500    0.0955320  
N    -3.0701920    0.3419540   -0.1043210  
C    -2.8134910    2.7445650    0.5024020  
C    -1.8574800    3.8418300    0.6082470  
O    -2.1687070    4.9579480    0.9861460  
C    -0.3719110    3.5762400    0.2012380  
O     0.3653980    4.5486100    0.1075000  
C     0.0647070    2.1825520   -0.0503820  
H    -0.0213690   -0.7323120   -0.8104680  
H    -3.8372070    2.9502820    0.7796100  
H    -2.5381170   -1.6455270   -0.6638030  
C     2.6168820   -3.1297790   -2.2899820  
C     2.9908190   -4.1919470   -1.5326290  
C     3.7923660   -3.6817050   -0.4384920  
C     3.8490020   -2.2126150   -0.6200090  
N     3.0819420   -1.9370910   -1.7401450  
C     4.5639490   -1.3475640    0.1614060  
C     5.2756680   -1.9417410    1.3202680  
O     5.8337450   -1.2636390    2.1624470  
C     5.2421000   -3.5014550    1.5123980  
O     5.8755290   -3.9910820    2.4336670  
C     4.4463450   -4.2998530    0.5817740  
H     2.7460540   -5.2285300   -1.7132410  
H     4.4298640   -5.3761250    0.7234510  
H     2.0301680   -3.1069980   -3.1991060  
H     3.0841690   -1.0437290   -2.2089590  
C    -4.4335270    0.1190920   -0.0395200  
C    -5.4843310    0.9950990    0.0580060  
C    -6.6530420    0.1580060    0.0819760  
C    -6.1180050   -1.2439520   -0.0172300  
N    -4.8157720   -1.2514430   -0.0948490  
C    -6.9811570   -2.3890530   -0.0231980  
C    -8.3145860   -2.1575110    0.0552530  
O    -9.2432200   -3.1126220    0.0589370  
C    -8.8911900   -0.7511020    0.1478940  
O   -10.1174550   -0.6685150    0.2122640  
C    -7.9877120    0.3938530    0.1571340  
H    -5.4821750    2.0719600    0.0597090  
H    -6.5689700   -3.3894620   -0.0894020  
H   -10.1047110   -2.6369490    0.1242300  
H    -8.4295910    1.3825520    0.2259380  
