62


C    -1.4834160    0.7028530    0.7710230  
C    -1.0065520   -0.5503050    0.4135400  
C    -2.1802680   -1.3733610    0.1789890  
C    -3.3109160   -0.5568990    0.4155390  
N    -2.8529080    0.6950780    0.7861810  
C    -4.6291910   -1.0334940    0.2874110  
C    -4.7906150   -2.3683470   -0.0837830  
O    -6.0439670   -2.8871920   -0.2157030  
C    -3.6597230   -3.1925320   -0.3067390  
O    -3.9892930   -4.4861500   -0.6562310  
C    -2.3672080   -2.7189640   -0.1845350  
H    -3.4375500    1.5068030    0.9211920  
H    -5.9387550   -3.8125060   -0.5008080  
H    -3.1819710   -4.9775950   -0.8700710  
H    -1.5026630   -3.3520380   -0.3554990  
H    -0.9385410    1.6032120    1.0156620  
C     0.3765990   -0.9353370    0.3042720  
C     1.5139900   -0.1895050    0.5098910  
C     2.6237340   -1.0622180    0.2461570  
C     1.9824270   -2.3532310   -0.1292270  
N     0.6817430   -2.2836300   -0.0880550  
C     2.7514160   -3.5143880   -0.5026420  
C     4.0938380   -3.3818040   -0.5225710  
O     4.9469990   -4.3578730   -0.8705890  
C     4.7835720   -2.0845360   -0.1490420  
O     6.0152300   -2.1048270   -0.2103920  
C     3.9924330   -0.9058300    0.2740550  
H     1.5721340    0.8563820    0.7738070  
H     2.2544080   -4.4406950   -0.7682690  
H     5.8401880   -3.9564700   -0.7696480  
C     4.1867510    1.0436860    1.8290610  
C     4.6630620    0.2940890    0.7625110  
C     5.8654840    0.9714700    0.3042210  
C     6.0367780    2.1127020    1.1265310  
N     5.0019250    2.1205320    2.0471650  
C     7.0786250    3.0321110    0.9613740  
C     7.9760330    2.7984900   -0.0680400  
O     9.0157590    3.6551770   -0.2757800  
C     7.8194030    1.6671730   -0.9111860  
O     8.7880260    1.5667700   -1.8913390  
C     6.7871810    0.7645270   -0.7412570  
H     4.8964640    2.7865800    2.7969140  
H     7.2017810    3.9029150    1.5970860  
H     9.5244220    3.3113270   -1.0305910  
H     8.6563200    0.7476760   -2.3914970  
H     6.7097240   -0.1040860   -1.3862790  
H     3.3417110    0.8457180    2.4719830  
C    -6.7774260   -0.5323570    1.4648490  
C    -7.7173520    0.4417070    1.5220650  
C    -7.3255700    1.4746310    0.5884630  
C    -6.0589240    1.0081150   -0.0333120  
N    -5.7591800   -0.2160840    0.5529050  
C    -5.3830810    1.6954260   -0.9934060  
C    -5.9157260    2.9830990   -1.4331690  
O    -5.3739040    3.6689360   -2.2870170  
C    -7.2420380    3.5044440   -0.7696130  
O    -7.6892470    4.5881830   -1.1115870  
C    -7.8890410    2.6604270    0.2374240  
H    -8.5998910    0.4451160    2.1451430  
H    -4.4855050    1.3217740   -1.4740950  
H    -8.8169540    3.0184390    0.6733270  
H    -6.7188610   -1.4690590    2.0002530  
