58


C     5.5554620    0.9256270    2.1745460  
C     6.9027670    1.0081730    2.2394210  
C     7.4350510    0.5372250    0.9795160  
C     6.2683120    0.1473750    0.1519030  
N     5.1235530    0.3876190    0.9460310  
C     6.3681620   -0.2671040   -1.1308330  
C     7.7054280   -0.3913310   -1.7258690  
O     7.8725590   -0.7545590   -2.8776100  
C     8.9520970   -0.0382470   -0.8442640  
O    10.0700570   -0.1554590   -1.3178120  
C     8.7082540    0.4413110    0.5185440  
H     7.4797300    1.3446780    3.0889940  
H     5.5232980   -0.5425460   -1.7481160  
H     9.5683490    0.7275050    1.1159910  
H     4.8123110    1.1643880    2.9221090  
C     1.6485750    3.0518630    1.3352950  
C     2.9184660    2.5836200    1.3926440  
C     2.8417120    1.2121220    0.9107630  
C     1.4002540    0.9882820    0.6337620  
N     0.7211030    2.0852560    0.8678910  
C     0.8700760   -0.2807190    0.1436050  
C     1.8241590   -1.1878880   -0.2452840  
O     1.5313200   -2.3344200   -0.8698030  
C     3.2846680   -1.0051120   -0.0058910  
O     4.0354270   -1.9334080   -0.2954710  
C     3.7765580    0.2696810    0.6073230  
H     3.8091150    3.1241430    1.6788340  
H     2.3691110   -2.8425880   -0.9266100  
H     1.2880850    4.0421920    1.5839520  
C    -2.8444860    1.9624940   -0.9072860  
C    -3.7571940    0.9425640   -0.8614800  
C    -3.0116820   -0.2418220   -0.4446310  
C    -1.5992720    0.1930500   -0.2798180  
N    -1.5663560    1.5296830   -0.6085430  
C    -0.5581590   -0.6289180    0.0827220  
C    -0.9644020   -1.9888050    0.5348640  
O    -0.2425030   -2.7082530    1.2002910  
C    -2.4037480   -2.5049350    0.1958850  
O    -2.6505410   -3.6903470    0.3483150  
C    -3.3912480   -1.5352080   -0.2675040  
H    -4.3976370   -1.8891140   -0.4649640  
H    -3.0225950    3.0061450   -1.1322030  
H    -0.8094530    2.1103980   -0.2282630  
C    -5.7304110    1.7330000   -2.2344670  
C    -5.1685620    1.0499140   -1.1971750  
C    -6.3300430    0.5310530   -0.4414350  
C    -7.5131410    1.0148400   -1.2136820  
N    -7.1514980    1.7172130   -2.2514540  
C    -8.8588240    0.7176290   -0.7987900  
C    -9.0298710    0.0066910    0.3417560  
O   -10.2265550   -0.3341790    0.8472180  
C    -7.8602030   -0.4622250    1.1600760  
O    -8.0928300   -1.0914950    2.1899640  
C    -6.4847360   -0.1576220    0.7047830  
H    -9.6969230    1.0716820   -1.3887820  
H   -10.0316220   -0.8342480    1.6698240  
H    -5.6705670   -0.5177730    1.3256580  
H    -5.2083920    2.2542270   -3.0286340  
