60


C    -2.5863150   -1.0916330   -1.7389870  
C    -3.5549430   -0.9931330   -0.7667660  
C    -2.8979830   -0.6791340    0.4761430  
C    -1.5164890   -0.5941440    0.1836110  
N    -1.3583870   -0.8418640   -1.1685800  
C    -0.5340260   -0.3274550    1.1611340  
C    -0.9981360   -0.1524140    2.4648710  
O    -0.1167580    0.1426700    3.4544870  
C    -2.3847110   -0.2347870    2.7708300  
O    -2.6638440   -0.0236500    4.1037340  
C    -3.3349540   -0.4909360    1.8017440  
H    -0.4674130   -0.9674090   -1.6253990  
H    -0.6104880    0.1560280    4.2931300  
H    -3.6128640   -0.1353900    4.2635530  
H    -4.3901570   -0.5446790    2.0574890  
H    -2.6850990   -1.3091280   -2.7926640  
C     1.6664330    2.4359150   -1.4213240  
C     2.9190940    1.9190910   -1.3223370  
C     2.8513500    0.7868460   -0.4203580  
C     1.4330920    0.6798640   -0.0078820  
N     0.7658080    1.7001890   -0.6612140  
C     0.9070160   -0.2593930    0.8332430  
C     1.8482820   -1.2573590    1.3695650  
O     1.5022630   -2.1917210    2.0703990  
C     3.3705180   -1.1278620    1.0019850  
O     4.1639920   -1.8560480    1.5697080  
C     3.7995010   -0.0936880    0.0275460  
H     3.8025180    2.2810910   -1.8255410  
H     1.3180640    3.2850870   -1.9944340  
H    -0.1998100    1.9387240   -0.4928680  
C     7.0492700    2.9494260    0.3985830  
C     5.8595420    2.2958670    0.4448560  
C     6.0541910    0.9989270   -0.1707860  
C     7.4802820    0.9497490   -0.5785220  
N     8.0194710    2.1720100   -0.2241050  
C     8.0901730   -0.1165060   -1.1576430  
C     7.2935700   -1.3080110   -1.4130780  
O     7.7495020   -2.3282460   -1.9059320  
C     5.7658280   -1.2665750   -1.0502910  
O     5.0601090   -2.1994290   -1.3894630  
C     5.2159920   -0.0651230   -0.3684970  
H     4.9402360    2.6699950    0.8686870  
H     9.1426900   -0.1318540   -1.4233210  
H     7.3042280    3.9354400    0.7641110  
H     8.9950670    2.4122510   -0.3041340  
C    -5.5481230   -2.4123760   -1.2880320  
C    -6.8938970   -2.2866130   -1.4089640  
C    -7.2210390   -0.9029820   -1.1404650  
C    -5.9310280   -0.2250610   -0.8555390  
N    -4.9400880   -1.1954420   -0.9596030  
C    -5.8060780    1.0947220   -0.5627540  
C    -7.0147000    1.9115090   -0.5137020  
O    -7.0011390    3.1067710   -0.2578630  
C    -8.3947550    1.2129270   -0.8039520  
O    -9.4159750    1.8818920   -0.7613780  
C    -8.3956000   -0.2181820   -1.1153280  
H    -7.5925170   -3.0735360   -1.6536800  
H    -4.8510000    1.5679480   -0.3628590  
H    -9.3528170   -0.6881920   -1.3203240  
H    -4.9215990   -3.2873990   -1.4001940  
