58


C     5.6507230   -2.1404020   -3.0210620  
C     6.7466570   -2.6170220   -2.3790740  
C     6.7918230   -1.9868570   -1.0751090  
C     5.6081060   -1.0943380   -1.0086850  
N     4.9420910   -1.2564190   -2.2089360  
C     5.2991060   -0.2785560    0.0417980  
C     6.2005480   -0.3274420    1.2125460  
O     5.9744260    0.2904260    2.2379050  
C     7.4644920   -1.2591100    1.1532210  
O     8.2229020   -1.2778620    2.1089010  
C     7.6739530   -2.0730810   -0.0444210  
H     7.4587130   -3.3309910   -2.7664320  
H     8.5513110   -2.7118530   -0.0741490  
H     5.2854280   -2.3628890   -4.0149820  
H     4.1850170   -0.6656350   -2.5172070  
C     0.9310390   -0.9913150   -0.1153320  
C     2.2763940   -1.1120290   -0.0965070  
C     2.8406660    0.2182600    0.0009740  
C     1.6948000    1.1547940    0.0467700  
N     0.5280300    0.3532960   -0.0399650  
C     1.8185120    2.4953140    0.1890800  
C     3.1691300    3.0565650    0.2925680  
O     3.3698610    4.2481040    0.4559410  
C     4.3968120    2.0943390    0.1733200  
O     5.5158150    2.5669760    0.1131980  
C     4.1410800    0.6322930    0.0740270  
H     2.8317820   -2.0374710   -0.1356110  
H     0.9681960    3.1606880    0.2355840  
H     0.1799360   -1.7637040   -0.1845350  
C    -0.7928370    0.7421290   -0.0359140  
C    -1.9090100   -0.0758220   -0.0042790  
C    -3.0210790    0.8219940   -0.0659250  
C    -2.3949370    2.1845320   -0.1235350  
N    -1.0868130    2.1168380   -0.0966770  
C    -3.1686720    3.3838440   -0.2228620  
C    -4.5158990    3.2410970   -0.2592880  
O    -5.3730250    4.2546360   -0.3513070  
C    -5.1967960    1.8824260   -0.1540790  
O    -6.4216530    1.9085160   -0.0688120  
C    -4.3840560    0.6528120   -0.0941890  
H    -1.9538340   -1.1538330   -0.0034550  
H    -2.6831670    4.3516470   -0.2738320  
H    -6.2682020    3.8412000   -0.3126080  
C    -4.0840870   -2.7004550    2.7633410  
C    -5.0214240   -3.5286050    2.2366210  
C    -5.5607670   -2.8757640    1.0613200  
C    -4.8470370   -1.5804680    0.9449480  
N    -3.9724000   -1.5346160    2.0101350  
C    -5.0791950   -0.6378490   -0.0215830  
C    -6.0720210   -0.9899630   -1.0615610  
O    -6.2589580   -0.3022790   -2.0496920  
C    -6.8745130   -2.3329590   -0.9191570  
O    -7.7511020   -2.5791790   -1.7318490  
C    -6.5299700   -3.2361550    0.1777960  
H    -5.3207060   -4.4912330    2.6245240  
H    -7.0804100   -4.1685200    0.2578150  
H    -3.4658930   -2.8311270    3.6417290  
H    -3.2999100   -0.7979180    2.1623820  
