60


C     2.0464160   -1.4516950   -1.3254530  
C     3.2232540   -0.7999380   -1.0292370  
C     2.8511280    0.5214390   -0.5713620  
C     1.4373920    0.5967170   -0.6118120  
N     0.9761160   -0.6189910   -1.0755090  
C     0.7146690    1.7631300   -0.2755910  
C     1.4747030    2.8676670    0.1163060  
O     0.8464530    4.0052270    0.5129350  
C     2.8917550    2.8073020    0.1576500  
O     3.4794280    3.9850560    0.5697310  
C     3.5835580    1.6614490   -0.1842300  
H     0.0074190   -0.8489040   -1.2318950  
H     1.5322290    4.6761440    0.6770060  
H     4.4431590    3.8866100    0.5772990  
H     4.6699230    1.6437970   -0.1519400  
H     1.8906580   -2.4641480   -1.6703830  
C    -2.5197370   -0.5633440    1.6851050  
C    -1.3307330   -0.0598000    1.2839810  
C    -1.5955770    1.0052680    0.3276910  
C    -3.0640670    1.0980570    0.1983690  
N    -3.5749340    0.1003390    1.0315580  
C    -3.7381380    2.0025020   -0.5518350  
C    -2.9505630    2.9679940   -1.3099080  
O    -3.4476720    3.8600960   -1.9778840  
C    -1.3832500    2.8427920   -1.2703520  
O    -0.7294750    3.5373830   -2.0233940  
C    -0.7561830    1.8431680   -0.3543070  
H    -0.3553010   -0.3767870    1.6216320  
H    -4.8204520    2.0546670   -0.5999690  
H    -2.7536590   -1.3513890    2.3879040  
C    -5.6588650    0.5884170    2.2455000  
C    -6.9357360    0.1427930    2.2476310  
C    -7.0443460   -0.8999670    1.2418160  
C    -5.7028310   -1.0367520    0.6291690  
N    -4.8989800   -0.1041650    1.2838080  
C    -5.3787550   -1.9093180   -0.3532210  
C    -6.4296090   -2.7945070   -0.8572840  
O    -6.2371700   -3.6194160   -1.7353030  
C    -7.8660530   -2.6704190   -0.2282320  
O    -8.7551470   -3.3997290   -0.6344190  
C    -8.0795910   -1.6772290    0.8324840  
H    -7.7353340    0.4981080    2.8815500  
H    -4.3858240   -1.9830370   -0.7834270  
H    -9.0753630   -1.6017110    1.2586090  
H    -5.1768260    1.3539010    2.8384320  
C     5.0591530   -1.9985500   -2.2863270  
C     4.5696150   -1.3492920   -1.1908900  
C     5.6470740   -1.3534380   -0.2033250  
C     6.7954630   -2.0561470   -0.8303120  
N     6.3636460   -2.4423400   -2.0820090  
C     7.9988420   -2.2490200   -0.2314230  
C     8.1867210   -1.7507140    1.1270240  
O     9.2337440   -1.8717990    1.7450810  
C     6.9742160   -1.0286170    1.8223650  
O     7.1087190   -0.6096290    2.9615800  
C     5.7256770   -0.8799740    1.0679940  
H     8.8276380   -2.7628220   -0.7089830  
H     4.8945730   -0.3837510    1.5584780  
H     4.5675180   -2.1841950   -3.2322350  
H     6.9440700   -2.8777360   -2.7815300  
