60


C    -1.0143940   -3.0541470   -0.0952750  
C    -1.9048300   -4.0144020   -0.5440750  
C    -3.1577500   -3.3718530   -0.7567410  
C    -2.9930990   -2.0055910   -0.4048820  
N    -1.6816910   -1.8340650   -0.0290900  
C    -4.0371030   -1.0494870   -0.4922330  
C    -5.2516770   -1.5205710   -1.0100110  
O    -6.3019220   -0.6764920   -1.1543220  
C    -5.4226870   -2.8866280   -1.3722360  
O    -6.6882880   -3.1640480   -1.8387550  
C    -4.4072690   -3.8101110   -1.2468000  
H    -1.6619720   -5.0491230   -0.7413180  
H    -1.3084750   -0.9673540    0.3316420  
H    -7.0561840   -1.2010710   -1.4799120  
H    -6.7722060   -4.1082330   -2.0391310  
H    -4.5640980   -4.8486990   -1.5279400  
C     0.3794090   -3.1759830    0.2414190  
C     1.0938460   -4.2760830    0.6348320  
C     2.4610580   -3.8750540    0.8296240  
C     2.5138790   -2.4310930    0.5252280  
N     1.2186530   -2.0424840    0.2347200  
C     3.6565090   -1.6706520    0.4804790  
C     4.9099860   -2.3469810    0.9106990  
O     5.9522160   -1.7518990    1.1001570  
C     4.8687670   -3.8872400    1.2155720  
O     5.9175610   -4.4607570    1.4676320  
C     3.5797800   -4.5695710    1.1848330  
H     0.6895080   -5.2623160    0.8117110  
H     3.5636670   -5.6328270    1.4039580  
H     1.0527990   -1.2309590   -0.3509260  
C     3.6600600   -0.2821510    0.0596470  
C     2.6796030    0.6683290    0.2255020  
C     3.1795880    1.8645980   -0.4130310  
C     4.5092430    1.4498860   -0.9674980  
N     4.7862980    0.2105660   -0.6898820  
C     5.3319100    2.3659310   -1.7156590  
C     4.8743750    3.6290360   -1.8806620  
O     5.5314460    4.5903200   -2.5439050  
C     3.5449710    4.0806400   -1.3182820  
O     3.2140750    5.2473390   -1.5288740  
C     2.7161140    3.1263420   -0.5721350  
H     1.7800650    0.5937660    0.8214780  
H     6.2866420    2.0383610   -2.1113470  
H     4.9522820    5.3837810   -2.4889730  
H     1.7655410    3.4865420   -0.1905310  
C    -3.8594690    0.3300830   -0.0609780  
C    -4.4105210    1.4923340   -0.5176240  
C    -3.8855120    2.5863670    0.2597320  
C    -2.9715980    1.9799680    1.2530960  
N    -2.9187100    0.6066470    0.9761140  
C    -2.3315620    2.6695610    2.2241810  
C    -2.5201500    4.1224650    2.2847720  
O    -1.9775540    4.8220610    3.1240050  
C    -3.4470350    4.7939310    1.2074420  
O    -3.6029220    6.0050130    1.2377790  
C    -4.0960440    3.9306230    0.2205270  
H    -5.1048600    1.5728100   -1.3397330  
H    -1.6740110    2.2091210    2.9558320  
H    -4.7530870    4.4000920   -0.5051290  
H    -2.8747810   -0.0358260    1.7607600  
