62


C    -2.0229630   -0.5594080   -3.0605970  
C    -0.9646860   -0.7865020   -2.2205890  
C    -1.4400760   -0.5850590   -0.8806890  
C    -2.8139580   -0.2414180   -0.9734730  
N    -3.1405980   -0.2348270   -2.3132670  
C    -3.6231340    0.0525150    0.1457620  
C    -2.9940750   -0.0272280    1.3895450  
O    -3.7118480    0.1973080    2.5224630  
C    -1.6252730   -0.3794220    1.5027860  
O    -1.1654720   -0.4077910    2.8044430  
C    -0.8247930   -0.6606810    0.3952650  
H     0.0377440   -1.0612190   -2.5151910  
H    -4.0472880    0.0039450   -2.6828570  
H    -3.0808250    0.2239520    3.2634020  
H    -0.1928650   -0.4199570    2.7915700  
H    -2.0799970   -0.6045420   -4.1389960  
C     2.9490300    1.4261500   -0.8399870  
C     1.6515700    1.0709470   -0.6365270  
C     1.6547280   -0.1931590    0.0524860  
C     3.0053250   -0.5756220    0.2313380  
N     3.8042020    0.4336980   -0.3356720  
C     3.3690580   -1.7191030    0.9491880  
C     2.3479960   -2.5105320    1.4525460  
O     2.6521690   -3.6484490    2.1389440  
C     0.9892070   -2.1565400    1.2606880  
O     0.0941280   -3.0490540    1.8023060  
C     0.6139380   -1.0010660    0.5712030  
H     0.7817870    1.6261370   -0.9568920  
H     4.3954110   -2.0238940    1.1046170  
H     1.8109600   -4.0751060    2.3780390  
H    -0.8067840   -2.7810110    1.5506240  
H     3.3733870    2.2773990   -1.3505190  
C    -7.2047820   -1.8793490   -1.6557360  
C    -5.9531910   -1.6003490   -1.2093900  
C    -5.9959260   -0.2870130   -0.5922260  
C    -7.3997490    0.1759280   -0.7145010  
N    -8.0737560   -0.8268600   -1.3857920  
C    -7.8807540    1.3477310   -0.2239140  
C    -6.9538030    2.2293540    0.4683150  
O    -7.2881480    3.2852160    0.9845170  
C    -5.4402530    1.8056720    0.5419830  
O    -4.6378800    2.6092980    0.9784790  
C    -5.0355310    0.4666550    0.0278840  
H    -5.0879790   -2.2413940   -1.2838990  
H    -8.9209670    1.6481910   -0.3036150  
H    -7.5725240   -2.7636430   -2.1594240  
H    -9.0661790   -0.8312760   -1.5615130  
C     6.6319530    3.7180070    0.5204160  
C     5.4704150    3.0262990    0.4129540  
C     5.8612390    1.7028630   -0.0636250  
C     7.3372240    1.7874580   -0.1931580  
N     7.7846750    2.9648270    0.1506240  
C     8.1385370    0.6673740   -0.6221490  
C     7.5035010   -0.4897810   -0.9106530  
O     8.1252330   -1.6144690   -1.3123990  
C     6.0115020   -0.6194040   -0.8182470  
O     5.5099970   -1.6798220   -1.1774290  
C     5.1949400    0.5481950   -0.3395610  
H     4.4711790    3.3593970    0.6530160  
H     9.2151480    0.7703070   -0.6988270  
H     7.4114400   -2.2633620   -1.4909180  
H     6.7679580    4.7392430    0.8555190  
