60


C     1.9089800   -0.3761090    0.0619790  
C     3.2763990   -0.4149550   -0.0648600  
C     3.7075010    0.9674080   -0.2565650  
C     2.5580030    1.7866570   -0.2011280  
N     1.4446810    0.9324230    0.0084300  
C     2.6111050    3.1685270   -0.3928030  
C     3.8529350    3.7339640   -0.6588620  
O     3.9497860    5.0796670   -0.8481510  
C     5.0086180    2.9254670   -0.7500030  
O     6.1648000    3.6173650   -1.0420520  
C     4.9470060    1.5537930   -0.5548400  
H     1.7252500    3.7849240   -0.3463940  
H     4.8787150    5.2794120   -1.0562030  
H     6.8924050    2.9934020   -1.1825970  
H     5.8448100    0.9493640   -0.6454410  
H     1.2234120   -1.1925160    0.2048580  
C     0.1182510    1.2678570    0.1377900  
C    -0.9616310    0.4073530    0.2584120  
C    -2.0994470    1.2522530    0.3669540  
C    -1.5370150    2.6388320    0.2907730  
N    -0.2357560    2.6331460    0.1621580  
C    -2.3616650    3.8105850    0.3424380  
C    -3.6956520    3.6114460    0.4364690  
O    -4.6002850    4.5924180    0.4773460  
C    -4.3132040    2.2218780    0.5072170  
O    -5.5448720    2.2077600    0.5995920  
C    -3.4627190    1.0234860    0.4858320  
H    -0.9544550   -0.6700490    0.2256200  
H    -1.9205810    4.7994400    0.2916760  
H    -5.4690610    4.1317330    0.5545470  
C    -3.4498860   -1.3645820    1.2897390  
C    -4.0406310   -0.2980070    0.6587730  
C    -5.3334890   -0.8531710    0.1782140  
C    -5.3064620   -2.2731140    0.6301050  
N    -4.2092610   -2.5491460    1.2879810  
C    -6.3792390   -3.1875690    0.3519370  
C    -7.4319700   -2.7303000   -0.3684710  
O    -8.4983620   -3.4720480   -0.7086600  
C    -7.4828860   -1.3136670   -0.8592180  
O    -8.4654730   -0.9676000   -1.5139900  
C    -6.3719790   -0.3887730   -0.5422640  
H    -6.3208030   -4.2104890    0.7069050  
H    -9.0788950   -2.8699210   -1.2244000  
H    -6.4709300    0.6314060   -0.8903310  
H    -2.4979580   -1.3626920    1.8054050  
C     7.2484960   -1.4448350    1.7133680  
C     6.0954490   -0.8144950    1.3673690  
C     5.3283140   -1.7266850    0.5432610  
C     6.1356770   -2.9648440    0.4539720  
N     7.3011620   -2.7151450    1.1516050  
C     5.7668470   -4.1047980   -0.1908890  
C     4.4593160   -4.1348130   -0.8147180  
O     4.0241100   -5.0886430   -1.4426890  
C     3.5347460   -2.8703450   -0.6569910  
O     2.3804270   -2.9641500   -1.0358860  
C     4.0864680   -1.6245520   -0.0455040  
H     5.7932200    0.1735560    1.6769880  
H     6.3945950   -4.9882490   -0.2511840  
H     8.0630370   -1.0952750    2.3337510  
H     8.0129780   -3.4044800    1.3365930  
