62


C     0.6813950    1.1362690   -0.4398430  
C     1.0196610    2.4755530   -0.3586400  
C     2.4239510    2.5514600   -0.1016510  
C     2.9098260    1.2178250   -0.0379530  
N     1.8310950    0.3908810   -0.2113970  
C     4.2710340    0.8855690    0.1537530  
C     5.1386900    1.9755360    0.3047590  
O     6.4812260    1.7740010    0.4546780  
C     4.6632680    3.3127290    0.2682800  
O     5.6629380    4.2569790    0.4388790  
C     3.3321990    3.6154150    0.0649580  
H     0.3510950    3.3064120   -0.5303400  
H     1.8614410   -0.6155720   -0.2425820  
H     6.8980390    2.6542250    0.4416020  
H     5.3244940    5.1312130    0.1955290  
H     2.9989510    4.6506120    0.0315100  
C    -3.5920130    2.2924910    0.2734210  
C    -2.2288770    2.2467160    0.2530890  
C    -1.8367720    1.0618890   -0.4683640  
C    -3.0231970    0.3986520   -0.8617890  
N    -4.0856670    1.1774330   -0.4086160  
C    -3.0476600   -0.8132230   -1.5528100  
C    -1.8144920   -1.3730770   -1.8576350  
O    -1.7557450   -2.5473450   -2.5381080  
C    -0.6046620   -0.7340090   -1.4838060  
O     0.5262140   -1.4651200   -1.8348060  
C    -0.5793040    0.4812110   -0.7875860  
H    -1.5700490    2.9613550    0.7229890  
H    -3.9643530   -1.3129630   -1.8442340  
H    -0.8078260   -2.7455290   -2.6587420  
H     1.2301390   -0.9012750   -2.2037720  
H    -4.2802620    3.0008740    0.7106700  
C    -6.1803260    1.2518000   -1.6849210  
C    -7.4540060    0.8119320   -1.5494670  
C    -7.5443590    0.1098350   -0.2825420  
C    -6.1954010    0.1697390    0.3290080  
N    -5.4084330    0.8805880   -0.5745620  
C    -5.8566010   -0.3676720    1.5246590  
C    -6.8976730   -1.0639120    2.2805210  
O    -6.6979690   -1.5786250    3.3692030  
C    -8.3399670   -1.1456570    1.6555420  
O    -9.2205960   -1.7224050    2.2735410  
C    -8.5693150   -0.5194770    0.3493370  
H    -8.2592680    0.9550860   -2.2554320  
H    -4.8574830   -0.3068970    1.9424830  
H    -9.5683450   -0.5821780   -0.0714700  
H    -5.7072040    1.8110180   -2.4806590  
C     6.8390910   -1.4810110    2.9112740  
C     6.0785140   -0.5176330    2.3311310  
C     5.5839740   -1.0475180    1.0810720  
C     6.1250750   -2.4271140    0.9819730  
N     6.8893620   -2.6207370    2.1136360  
C     5.8834680   -3.2897090   -0.0387720  
C     5.0171050   -2.8370660   -1.1112480  
O     4.7267510   -3.5193150   -2.0821480  
C     4.3960790   -1.3894670   -1.0144240  
O     3.6108670   -1.0632630   -1.8959150  
C     4.7649550   -0.5078510    0.1175600  
H     5.8879770    0.4691520    2.7208470  
H     6.3016640   -4.2898070   -0.0935170  
H     7.3727240   -1.4604500    3.8522740  
H     7.3523100   -3.4830300    2.3535160  
