58


C    -1.7546070    5.3615530   -1.3286410  
C    -1.4554590    4.0595790   -1.0553110  
C    -0.1874790    4.0379930   -0.3705470  
C     0.2429230    5.4516030   -0.2772290  
N    -0.7627920    6.2021430   -0.8582990  
C     1.4152760    5.8824960    0.2554790  
C     2.3327690    4.8804110    0.7739720  
O     3.4400920    5.1463550    1.2127270  
C     1.8708700    3.3766510    0.7805010  
O     2.5807520    2.5881060    1.3814800  
C     0.5883940    3.0039210    0.1223450  
H    -2.0555960    3.2052460   -1.3236030  
H     1.7126630    6.9259190    0.2880120  
H    -2.6177100    5.7734230   -1.8346930  
H    -0.7369070    7.2029040   -0.9780580  
C     0.1850730    1.6115830    0.0718210  
C    -1.0807750    1.0738330    0.1186280  
C    -0.9040060   -0.3573160    0.1238750  
C     0.5751190   -0.5501100    0.0309190  
N     1.1895500    0.5997410   -0.0040120  
C     1.2083950   -1.8554970    0.0154760  
C     0.3540160   -2.9027460    0.2524840  
O     0.7642080   -4.1613870    0.4121360  
C    -1.1401800   -2.7564420    0.3282970  
O    -1.7998630   -3.7898920    0.3922240  
C    -1.7664310   -1.4045610    0.2672710  
H    -2.0126300    1.5968730    0.2745820  
H    -0.0531530   -4.7043220    0.4788780  
C     4.9672310    0.2034350    1.3176990  
C     5.8740690   -0.6620480    0.7920170  
C     5.1291900   -1.6762230    0.0833590  
C     3.6895330   -1.3332450    0.2702640  
N     3.6659330   -0.2045030    1.0567900  
C     2.6447720   -2.0734960   -0.2339500  
C     3.0229990   -3.1520860   -1.1799590  
O     2.2178270   -3.6959730   -1.9172390  
C     4.5270260   -3.5870030   -1.2902120  
O     4.7965400   -4.5891300   -1.9363220  
C     5.5291880   -2.7633140   -0.6310320  
H     6.9497210   -0.6020910    0.8717510  
H     6.5724350   -3.0461060   -0.7346470  
H     5.1244260    1.1156940    1.8778860  
H     2.8729770    0.4391600    1.0422690  
C    -4.6732090    0.4074790   -2.5007960  
C    -5.8243800    0.1045430   -1.8499030  
C    -5.4596970   -0.5915610   -0.6324430  
C    -3.9787610   -0.6651260   -0.6271420  
N    -3.5646400   -0.0241970   -1.7750310  
C    -3.2268730   -1.3026610    0.3248900  
C    -3.9609200   -1.8845550    1.4719450  
O    -3.3959750   -2.3467420    2.4461350  
C    -5.5306140   -1.8379540    1.4637050  
O    -6.1375340   -2.3760660    2.3748570  
C    -6.2019580   -1.1437430    0.3640610  
H    -6.8284280    0.3286600   -2.1790750  
H    -7.2873000   -1.1165650    0.3718300  
H    -4.5293400    0.9109210   -3.4476720  
H    -2.6048680    0.0234660   -2.0826200  
