60


C     2.2884640   -0.5732880   -0.0841830  
C     3.5815110   -0.1000640    0.0054250  
C     3.4811280    1.3468610    0.0271350  
C     2.1105760    1.6788190   -0.0818110  
N     1.3852200    0.4831420   -0.1337640  
C     1.6466840    2.9986690   -0.0862770  
C     2.5942700    4.0050090    0.0088490  
O     2.2018920    5.3084560    0.0103630  
C     3.9762420    3.6907800    0.1129540  
O     4.7930270    4.7978790    0.2085320  
C     4.4266690    2.3855870    0.1193640  
H     0.5993830    3.2552620   -0.1850180  
H     3.0045430    5.8524850    0.0911760  
H     5.7066460    4.5141740    0.3629020  
H     5.4823540    2.1658680    0.2390400  
H     1.9248430   -1.5911820   -0.1109440  
C    -1.0848340   -1.4743990    2.7915310  
C    -2.3031540   -1.3138930    2.2046120  
C    -2.0991780   -0.6172430    0.9566270  
C    -0.6473130   -0.3729120    0.8732570  
N    -0.0821110   -0.9479690    1.9918910  
C    -0.0153180    0.3294760   -0.1171580  
C    -0.8483620    0.8756370   -1.1944170  
O    -0.3996420    1.5335180   -2.1166090  
C    -2.3889010    0.5480530   -1.1782460  
O    -3.0249060    0.8396530   -2.1710900  
C    -2.9752910   -0.1616570   -0.0097450  
H    -3.2507420   -1.6265090    2.6132940  
H    -0.8342050   -1.9323930    3.7389770  
H     0.8870140   -0.8378780    2.2533490  
C    -4.4074640   -0.3793290    0.0475720  
C    -5.0870500   -1.4677520    0.5345700  
C    -6.4890300   -1.1651480    0.3648610  
C    -6.4949410    0.2050160   -0.2419700  
N    -5.2918760    0.6565400   -0.4311400  
C    -7.7282750    0.8856730   -0.5485190  
C    -8.8865850    0.2342400   -0.2922510  
O   -10.1062520    0.7373790   -0.5336210  
C    -8.9106210   -1.1539000    0.3036400  
O   -10.0145280   -1.6624560    0.5032630  
C    -7.6438190   -1.8227950    0.6231290  
H    -4.6722950   -2.3979770    0.8960460  
H    -7.7062350    1.8796430   -0.9809710  
H   -10.7348390    0.0375780   -0.2463350  
H    -7.7018550   -2.8145210    1.0613530  
C     4.6635150   -3.5224790   -2.4995600  
C     5.8559670   -3.8589080   -1.9415470  
C     6.1065140   -2.9258960   -0.8643120  
C     4.9414480   -2.0123160   -0.8337530  
N     4.0835970   -2.4532070   -1.8273550  
C     4.7824980   -0.9432640    0.0086050  
C     5.8903060   -0.7051040    0.9560790  
O     5.8932310    0.2152170    1.7588980  
C     7.1292230   -1.6827690    0.9550990  
O     8.0314790   -1.4650990    1.7501360  
C     7.1477190   -2.7839120    0.0024100  
H     6.5017070   -4.6699800   -2.2451800  
H     8.0085160   -3.4451830    0.0027270  
H     4.1466760   -3.9724670   -3.3371310  
H     3.3046810   -1.9036030   -2.1615160  
