62


C     0.7394510    1.6480900   -0.0534600  
C    -0.5551980    1.1519960    0.0492910  
C    -0.4751130   -0.2707810    0.1064430  
C     0.9021820   -0.6057450    0.0293760  
N     1.6062230    0.5701580   -0.0680080  
C     1.3832970   -1.9302860    0.0052220  
C     0.4156050   -2.9373530    0.0713120  
O     0.8101920   -4.2361790    0.1295430  
C    -0.9642180   -2.6361120    0.1415030  
O    -1.7581950   -3.7556900    0.2350100  
C    -1.4443000   -1.3155180    0.1574640  
H    -1.4510300    1.7460020    0.1379070  
H     2.6109710    0.6701520   -0.0578170  
H     0.0063080   -4.7845940    0.1459880  
H    -2.6795540   -3.4910630    0.4189270  
C    -1.2881190    5.2905250   -1.5119310  
C    -0.2869690    6.1819270   -1.2350680  
C     0.8010440    5.4318110   -0.6737650  
C     0.3879410    4.0752750   -0.6192420  
N    -0.8972150    4.0222210   -1.1199930  
C     1.2128100    3.0273570   -0.1416470  
C     2.5068070    3.4109540    0.2347250  
O     3.4061190    2.4676170    0.6742460  
C     2.9286290    4.7602830    0.1914220  
O     4.2298290    4.9440820    0.6270490  
C     2.0960200    5.7741620   -0.2412210  
H    -0.3156050    7.2483530   -1.4108850  
H    -1.3666230    3.1667110   -1.3746980  
H     4.2335160    2.9404240    0.8736350  
H     4.4755230    5.8757270    0.5299180  
H     2.4427190    6.8050390   -0.2637780  
H    -2.2639470    5.4494450   -1.9487010  
C    -2.8644790   -1.0351910    0.2553440  
C    -3.5322500   -0.0157470    0.8803960  
C    -4.9466510   -0.2012150    0.6965630  
C    -5.0935280   -1.4294660   -0.1142970  
N    -3.8055210   -1.9582960   -0.2948290  
C    -6.2721170   -1.9097600   -0.5685320  
C    -7.4998410   -1.1930660   -0.2065720  
O    -8.6054380   -1.5584430   -0.5714450  
C    -7.3725000    0.0829220    0.7016870  
O    -8.3907010    0.6798370    1.0217600  
C    -6.0360550    0.5071490    1.1083400  
H    -3.0713100    0.7556850    1.4799750  
H    -6.3630470   -2.8087560   -1.1709160  
H    -5.9553310    1.4028390    1.7167400  
H    -3.5845190   -2.3876960   -1.1885700  
C     4.9312810   -0.9490950    2.5064700  
C     3.6758190   -1.0549320    2.0002390  
C     3.7652940   -1.8371430    0.7826340  
C     5.1989520   -2.1871710    0.6256290  
N     5.8523980   -1.6014140    1.6930750  
C     5.7095260   -2.9540780   -0.3718260  
C     4.7914640   -3.4708720   -1.3758280  
O     5.1402280   -4.1974310   -2.2938190  
C     3.2759100   -3.0618870   -1.2777750  
O     2.5316450   -3.3807450   -2.1862210  
C     2.8169590   -2.2630430   -0.1086910  
H     2.7770660   -0.6360010    2.4261790  
H     6.7604600   -3.2156370   -0.4478690  
H     5.2674700   -0.4487350    3.4050490  
H     6.8304010   -1.7249090    1.9029820  
