64


C     1.8764310   -0.5133190   -1.4622550  
C     0.7964690    0.3186480   -1.3254470  
C     1.0146910    1.1014890   -0.1405910  
C     2.2612500    0.6970690    0.4002490  
N     2.7769610   -0.2983230   -0.4224030  
C     2.8160260    1.2733600    1.5489640  
C     2.0861220    2.2719050    2.1715180  
O     2.5632610    2.8594620    3.3068550  
C     0.8323700    2.6897740    1.6514710  
O     0.2183090    3.6770140    2.3970200  
C     0.2742670    2.1301790    0.5011960  
H    -0.0551080    0.3739170   -1.9883150  
H     3.7652570    0.9547150    1.9631420  
H     1.8786480    3.4780120    3.6166400  
H    -0.7119690    3.7443190    2.1198100  
H     2.0926820   -1.2684070   -2.2053230  
C     6.2717160   -0.1382190   -3.0155870  
C     7.0648670   -0.9940130   -2.2963610  
C     6.3039360   -1.4186630   -1.1545840  
C     5.0426890   -0.7764560   -1.2449660  
N     5.0462740   -0.0070310   -2.3865940  
C     4.0297930   -0.9529460   -0.2850120  
C     4.3023780   -1.7985630    0.7882500  
O     3.3542610   -2.0185050    1.7416310  
C     5.5677270   -2.4343650    0.8937090  
O     5.6836090   -3.2347290    2.0150080  
C     6.5585230   -2.2621660   -0.0545220  
H     8.0740700   -1.2884360   -2.5491630  
H     4.2862210    0.5855050   -2.6835750  
H     3.7564700   -2.5969190    2.4132530  
H     6.5740810   -3.6136820    2.0526970  
H     7.5164260   -2.7666280    0.0539120  
H     6.4742220    0.3945860   -3.9338470  
C    -3.5894940   -0.0935410   -0.1745760  
C    -2.2884090    0.2748620    0.1654450  
C    -2.1440550    1.6593130   -0.1213340  
C    -3.3962930    2.1131640   -0.6237490  
N    -4.2437660    1.0342070   -0.6494340  
C    -3.6198590    3.4452750   -0.9942790  
C    -2.5581280    4.3259360   -0.8634010  
O    -2.7091000    5.6313550   -1.2228940  
C    -1.2965200    3.8888440   -0.3673650  
O    -0.3432070    4.8837900   -0.3256150  
C    -1.0604210    2.5695040    0.0126180  
H    -1.5456670   -0.3429750    0.6461820  
H    -5.2336640    1.0161940   -0.8624290  
H    -4.5705210    3.7993730   -1.3783820  
H    -1.8486080    6.0670400   -1.0921480  
H     0.5155110    4.4856030   -0.1013970  
C    -1.9697940   -4.1692050    0.1048040  
C    -3.1324160   -4.8619150    0.2271660  
C    -4.2135980   -3.9032440    0.1648620  
C    -3.5784810   -2.5798110    0.0146500  
N    -2.2148320   -2.8038890    0.0137610  
C    -4.2490560   -1.3812650   -0.1004670  
C    -5.7205920   -1.4897760   -0.1864160  
O    -6.4483230   -0.5412560   -0.4568630  
C    -6.4140380   -2.8834610    0.0638220  
O    -7.6358550   -2.9108780    0.1018340  
C    -5.5698650   -4.0537280    0.2159440  
H    -3.2359510   -5.9307830    0.3445440  
H    -6.0500630   -5.0165920    0.3570710  
H    -0.9501680   -4.5308250    0.0878570  
H    -1.5373740   -2.1167720   -0.2861850  
