58


C     0.1230790    4.5809630    0.2016390  
C     0.6931070    3.3378840    0.0282290  
C     2.1459960    3.5506590    0.0538270  
C     2.3474650    5.0038230    0.2589790  
N     1.0755910    5.5577590    0.3339020  
C     3.5485680    5.6239170    0.3440390  
C     4.7555050    4.8044490    0.2250280  
O     5.8816920    5.2688030    0.2875160  
C     4.5715240    3.2605540    0.0039810  
O     5.5612480    2.5530910   -0.0816710  
C     3.2074850    2.7177940   -0.0853480  
H     3.6633960    6.6935600    0.4899490  
H     3.0855400    1.6554260   -0.2548380  
H    -0.9262250    4.8394500    0.2564410  
H     0.8839130    6.5352150    0.4971190  
C    -0.0206100    2.1017000   -0.1289990  
C    -1.3704830    1.8901120   -0.3142540  
C    -1.5362650    0.4737030   -0.3673780  
C    -0.1533720   -0.0831250   -0.2020360  
N     0.7160720    0.8777310   -0.0713550  
C     0.1335370   -1.5158010   -0.1901490  
C    -0.9681510   -2.3284750   -0.3335940  
O    -0.9466260   -3.6544100   -0.2871130  
C    -2.3727300   -1.7959010   -0.5431710  
O    -3.2545700   -2.6347730   -0.7277820  
C    -2.6175260   -0.3478000   -0.5309550  
H    -2.1525430    2.6318560   -0.3918300  
H    -1.8773910   -3.9354500   -0.4577850  
C     1.4899450   -2.0130760   -0.0353300  
C     2.5854560   -1.3586150    0.4634060  
C     3.6783610   -2.3009520    0.3795800  
C     3.0617770   -3.5261100   -0.2212020  
N     1.7966430   -3.3601340   -0.4608860  
C     3.8409920   -4.7102790   -0.4842840  
C     5.1546940   -4.6808200   -0.1606420  
O     6.0013180   -5.7049950   -0.3408430  
C     5.8033450   -3.4586450    0.4497600  
O     7.0041410   -3.5325130    0.7094330  
C     4.9923150   -2.2594530    0.6993290  
H     2.6242920   -0.3542710    0.8512290  
H     3.3720420   -5.5845200   -0.9217650  
H     6.8704230   -5.3799160   -0.0137670  
H     5.4947510   -1.3941540    1.1208370  
C    -4.1887700    1.0961220   -1.7892140  
C    -5.5056020    1.4076190   -1.8238020  
C    -6.1648560    0.6295100   -0.7969320  
C    -5.1071950   -0.1839650   -0.1493590  
N    -3.9085550    0.1306820   -0.8083390  
C    -5.3245780   -1.0006600    0.9081620  
C    -6.6901720   -1.1271660    1.4232760  
O    -6.9705010   -1.8399880    2.3733000  
C    -7.8299360   -0.3042210    0.7245710  
O    -8.9744520   -0.4051890    1.1362270  
C    -7.4596700    0.5700400   -0.3911110  
H    -5.9814060    2.0972810   -2.5061980  
H    -4.5498580   -1.5857720    1.3882400  
H    -8.2451200    1.1610950   -0.8522040  
H    -3.3774520    1.4550220   -2.4074810  
