58


C    -2.4147900   -1.5585480   -1.6797280  
C    -3.5930950   -2.2155960   -1.5576340  
C    -3.4099150   -3.2582480   -0.5717280  
C    -1.9997270   -3.1578910   -0.1206080  
N    -1.4295720   -2.1077210   -0.8447130  
C    -1.4529050   -3.9413650    0.8409850  
C    -2.2897490   -4.9674690    1.4620930  
O    -1.8804140   -5.7098330    2.3414280  
C    -3.7767030   -5.1110820    0.9758270  
O    -4.4841140   -5.9712710    1.4766670  
C    -4.2546880   -4.1896570   -0.0569170  
H    -4.5025950   -2.0035700   -2.1009860  
H    -0.4246360   -3.8591420    1.1698500  
H    -5.2904420   -4.2766530   -0.3709430  
H    -2.1532930   -0.7223040   -2.3110770  
C    -0.1844900    1.9613680   -0.1517510  
C     1.1877400    1.8016660   -0.0909090  
C     1.4390110    0.4051880   -0.2822830  
C     0.0785720   -0.1840390   -0.4599590  
N    -0.8578270    0.7160640   -0.3798370  
C    -0.1233300   -1.5986160   -0.7122310  
C     0.9953200   -2.3704140   -0.8015440  
O     0.9740220   -3.6826110   -1.0445620  
C     2.3781640   -1.8154590   -0.5630140  
O     3.2852660   -2.6432010   -0.5283590  
C     2.5766370   -0.3622250   -0.3438780  
H     1.9296550    2.5784320    0.0274960  
H     1.9164490   -3.9690180   -0.9892510  
C     4.4604650    2.0716130    2.8335200  
C     5.7339580    2.0946250    2.3671050  
C     5.7484490    1.3564430    1.1208590  
C     4.3557870    0.8970690    0.8957160  
N     3.6302170    1.3588760    1.9700500  
C     3.9447990    0.1248160   -0.1619270  
C     4.9668410   -0.1881250   -1.1882810  
O     4.6895880   -0.7188920   -2.2486280  
C     6.4537000    0.2433260   -0.9315710  
O     7.3089390   -0.0976830   -1.7317370  
C     6.7499710    1.0460860    0.2550170  
H     6.5839800    2.5663110    2.8377760  
H     7.7791180    1.3532330    0.4138290  
H     4.0479000    2.5060090    3.7343650  
H     2.6327440    1.2472850    2.0746650  
C    -0.5472850    4.4501730    0.1402330  
C    -0.9693100    3.1477980   -0.0345140  
C    -2.4430700    3.2588760   -0.0728750  
C    -2.6994670    4.7150370    0.0986250  
N    -1.5759330    5.3904480    0.2218480  
C    -4.0229800    5.2596250    0.1220600  
C    -5.0602170    4.3945660   -0.0203150  
O    -6.3466900    4.7583490   -0.0196590  
C    -4.8355940    2.9134480   -0.1973970  
O    -5.8270850    2.2008170   -0.3268650  
C    -3.4546710    2.3813300   -0.2113940  
H    -4.1721820    6.3259360    0.2492080  
H    -6.8594600    3.9280950   -0.1410420  
H    -3.3136620    1.3136830   -0.3333520  
H     0.4775880    4.7967260    0.2122210  
