60


C    -0.6200180   -1.5249750   -0.7295050  
C    -0.9885020   -2.7647910   -1.1934140  
C    -2.3405350   -2.9802400   -0.7684140  
C    -2.7520730   -1.8187150   -0.0672090  
N    -1.6824450   -0.9386190   -0.0609160  
C    -4.0275130   -1.6721860    0.5167030  
C    -4.8779090   -2.7758340    0.4000860  
O    -6.1200120   -2.7384460    0.9663780  
C    -4.4832750   -3.9421670   -0.3043340  
O    -5.4559630   -4.9224870   -0.3336040  
C    -3.2393670   -4.0564150   -0.8949200  
H    -0.3739300   -3.4292150   -1.7841990  
H    -1.6358410   -0.0820320    0.4695210  
H    -6.5732350   -3.5613160    0.7104370  
H    -5.1795690   -5.6400630   -0.9226670  
H    -2.9588560   -4.9634960   -1.4253930  
C     1.8357830   -1.6083900   -0.6500720  
C     2.9256990   -0.7923800   -0.7292270  
C     2.4073070    0.5596760   -0.9320070  
C     0.9286010    0.4463550   -0.9713240  
N     0.6341820   -0.9078880   -0.7889580  
C     0.0910780    1.4951130   -1.1726120  
C     0.6696240    2.8327510   -1.3262310  
O    -0.0120300    3.8347990   -1.4606160  
C     2.2314050    2.9687510   -1.3136980  
O     2.7381380    4.0675200   -1.4682290  
C     3.0282560    1.7525860   -1.1148870  
H    -0.9870030    1.4060160   -1.2458240  
H     4.1082940    1.8544400   -1.1335380  
H     1.7992340   -2.6719950   -0.4598620  
C     4.8803500   -2.3207040   -1.2250400  
C     4.3121970   -1.2249730   -0.6458560  
C     5.4060250   -0.6380260    0.1579630  
C     6.5668650   -1.5439930   -0.0913770  
N     6.2466640   -2.5215420   -0.8939470  
C     7.8484520   -1.3152830    0.5215120  
C     7.9702120   -0.2629140    1.3662250  
O     9.1028810    0.0612580    2.0101140  
C     6.8106750    0.6450910    1.6654440  
O     6.9923630    1.5713480    2.4524930  
C     5.5059430    0.3988930    1.0106620  
H     8.6758090   -1.9834250    0.3096830  
H     8.8841940    0.8560670    2.5442020  
H     4.6977640    1.0814820    1.2534830  
H     4.4039980   -3.0169820   -1.9056990  
C    -5.0258510   -0.3266030    2.4278700  
C    -4.4526180   -0.4358900    1.1934780  
C    -4.4174040    0.9146590    0.6389110  
C    -4.9952410    1.8090880    1.6728400  
N    -5.3272100    0.9909280    2.7370380  
C    -5.1564440    3.1479120    1.5291200  
C    -4.7620610    3.7658950    0.2634880  
O    -4.8834270    4.9600010    0.0424850  
C    -4.1763600    2.8349950   -0.8594740  
O    -3.8755650    3.3198250   -1.9377290  
C    -4.0289950    1.4038310   -0.5695220  
H    -5.5867590    3.7836760    2.2969830  
H    -3.6497540    0.7678850   -1.3632140  
H    -5.2568490   -1.1151440    3.1306110  
H    -5.8027520    1.2967150    3.5715490  
