58


C     1.2485240    1.5758940   -0.1427590  
C     1.8573220    2.8038250   -0.3386020  
C     3.2774450    2.5918520   -0.3815520  
C     3.4817250    1.1369040   -0.1939840  
N     2.2240310    0.5893910   -0.0511210  
C     4.6990560    0.5181060   -0.1458040  
C     5.8877380    1.3762000   -0.3593780  
O     7.0117020    0.9205650   -0.4695760  
C     5.6879410    2.9262960   -0.5174770  
O     6.6754990    3.6379200   -0.6271190  
C     4.3267920    3.4499630   -0.5370570  
H     1.3650810    3.7419600   -0.5496760  
H     4.1968930    4.5208970   -0.6604810  
H     1.9849660   -0.3933160    0.0016880  
C    -2.2144360    3.9795890    1.0590910  
C    -3.2066650    3.0783800    0.8392420  
C    -2.5925870    1.8718720    0.3348260  
C    -1.1458860    2.1459190    0.2789350  
N    -0.9834020    3.4467590    0.6852090  
C    -0.1578050    1.2385940   -0.0611330  
C    -0.6248810   -0.1394620   -0.2633340  
O     0.1191660   -1.1113050   -0.3203180  
C    -2.1565860   -0.3949260   -0.4559560  
O    -2.4825580   -1.4223110   -1.0155220  
C    -3.1229480    0.6469090   -0.0201170  
H    -4.2566970    3.2251090    1.0361960  
H    -2.2680200    4.9849330    1.4540720  
H    -0.0848050    3.8317280    0.9425320  
C     3.1919850   -3.1616370   -2.1770030  
C     3.4708090   -1.8751910   -1.8393180  
C     4.3164810   -1.9096100   -0.6636370  
C     4.5225950   -3.3457040   -0.3517140  
N     3.8058700   -4.0476530   -1.3021390  
C     5.2920460   -3.8214020    0.6608800  
C     5.9642350   -2.8589350    1.5219620  
O     6.7095760   -3.1805820    2.4345660  
C     5.6956670   -1.3309100    1.2736520  
O     6.1073110   -0.5284810    2.0912320  
C     4.8872710   -0.9207280    0.0938700  
H     3.1317480   -0.9934770   -2.3610870  
H     5.4450370   -4.8795040    0.8495180  
H     2.5907620   -3.5400890   -2.9929210  
H     3.7550620   -5.0526320   -1.3576760  
C    -4.5407180    0.3518720   -0.0273390  
C    -5.5842590    1.1910780   -0.3293450  
C    -6.7816430    0.3939370   -0.1845750  
C    -6.2769670   -0.9484120    0.2466150  
N    -4.9804480   -0.9734830    0.3311330  
C    -7.1795200   -2.0371380    0.5232130  
C    -8.5046950   -1.8140860    0.3580690  
O    -9.4558080   -2.7343120    0.5692640  
C    -9.0412460   -0.4757690   -0.0910430  
O   -10.2607050   -0.3656380   -0.2116990  
C    -8.1034580    0.6261920   -0.3542250  
H    -5.5325140    2.2107250   -0.6837750  
H    -6.7899440   -2.9979220    0.8402200  
H   -10.3060580   -2.2833430    0.3684960  
H    -8.5273370    1.5761480   -0.6653130  
