62


C     0.5416110    1.4363950   -0.8137300  
C     1.0506900    2.6599980   -1.1709660  
C     2.4669450    2.5893960   -0.9654800  
C     2.7598040    1.2876090   -0.4753000  
N     1.5592030    0.6179760   -0.3498710  
C     4.0681760    0.8596810   -0.1409680  
C     5.0866420    1.7913590   -0.4011610  
O     6.3949450    1.4605800   -0.1868430  
C     4.8034000    3.0871860   -0.8995640  
O     5.9312300    3.8725350   -1.0747300  
C     3.5151480    3.5049510   -1.1661010  
H     0.4827660    3.4947790   -1.5563360  
H     1.5060440   -0.3908800   -0.3000300  
H     6.9271310    2.2115130   -0.5052560  
H     5.7056280    4.6440870   -1.6149250  
H     3.3217740    4.5108040   -1.5324190  
C    -1.8500670    1.7291220   -0.3196650  
C    -3.0329240    1.0400370   -0.4871400  
C    -2.6847550   -0.2051490   -1.1443930  
C    -1.2834050   -0.2009380   -1.3443580  
N    -0.7869700    0.9977960   -0.8193730  
C    -0.6072650   -1.2306250   -2.0103290  
C    -1.3665670   -2.2958840   -2.4743010  
O    -0.7606660   -3.3241910   -3.1281390  
C    -2.7734720   -2.3163750   -2.2884760  
O    -3.3909940   -3.4314550   -2.8177030  
C    -3.4350630   -1.2877630   -1.6426650  
H     0.4629740   -1.2294900   -2.1857480  
H    -1.4516390   -3.9654970   -3.3675650  
H    -4.3433870   -3.3889900   -2.6460940  
H    -4.5173810   -1.3112520   -1.5431740  
H    -1.6661110    2.6691510    0.1794160  
C    -4.8328590    2.7924300   -0.1333000  
C    -4.3372270    1.5233360   -0.0718930  
C    -5.4092980    0.7584270    0.6123010  
C    -6.4774550    1.7640240    0.8628530  
N    -6.1288260    2.9452190    0.4309220  
C    -7.7067540    1.4089860    1.5222670  
C    -7.8568400    0.1300450    1.9453780  
O    -8.9518770   -0.3354290    2.5772670  
C    -6.7848080   -0.8946180    1.7405600  
O    -6.9910430   -2.0392460    2.1478130  
C    -5.5322020   -0.5073360    1.0543710  
H    -8.4731180    2.1603050    1.6789680  
H    -8.7611270   -1.2820330    2.7558350  
H    -4.7747320   -1.2757740    0.9358140  
H    -4.3533200    3.6585850   -0.5733910  
C     6.4406660   -0.3118160    3.4254610  
C     5.7650860    0.3704310    2.4660040  
C     5.1767160   -0.6004870    1.5712010  
C     5.5688680   -1.9305130    2.1043900  
N     6.3490290   -1.6844290    3.2149710  
C     5.2155100   -3.1251760    1.5641990  
C     4.3619060   -3.1025180    0.3913540  
O     4.0028390   -4.1041560   -0.2078560  
C     3.8404610   -1.7061460   -0.1229600  
O     2.9609880   -1.7264540   -0.9756780  
C     4.3863530   -0.4592120    0.4530290  
H     5.6850890    1.4418700    2.3813360  
H     5.5477440   -4.0834240    1.9507230  
H     7.0013800    0.0658800    4.2702230  
H     6.7277370   -2.3962000    3.8193170  
