60


C     2.8257110    3.2490240    0.2241360  
C     3.9104810    2.4101120    0.1679320  
C     3.4060660    1.0822010   -0.0628830  
C     1.9916050    1.1945100   -0.1241000  
N     1.6662170    2.5170660    0.0928940  
C     1.1306530    0.0941570   -0.3557190  
C     1.7909070   -1.1022070   -0.6846450  
O     1.0894660   -2.1887980   -1.0806030  
C     3.2060820   -1.2344950   -0.6371890  
O     3.6375150   -2.5032720   -0.9326420  
C     4.0411830   -0.1814330   -0.2641960  
H     4.9459270    2.7117550    0.2345140  
H     0.7850660    2.8829960   -0.2608650  
H     1.7631680   -2.8741000   -1.2685820  
H     4.4587530   -2.4120510   -1.4771230  
H     2.7854100    4.3230660    0.3405630  
C    -1.8863190    2.9237140   -1.9463000  
C    -3.0455640    2.2732570   -1.6794860  
C    -2.6617080    1.0930950   -0.9271640  
C    -1.1652100    1.1622660   -0.8731210  
N    -0.7364240    2.2610870   -1.4388260  
C    -0.3426900    0.1282000   -0.2640720  
C    -1.0458720   -0.8528000    0.3895350  
O    -0.4591110   -1.8293440    1.0945140  
C    -2.5293560   -0.9537260    0.3620210  
O    -3.0293090   -1.9473020    0.9065590  
C    -3.3601640    0.1128980   -0.2778220  
H    -4.0387870    2.5494850   -1.9971510  
H    -1.1842980   -2.4208290    1.3898020  
H    -1.7516730    3.8492470   -2.4929540  
C    -4.8078710    0.0705600   -0.1424160  
C    -5.7170430    1.1010020   -0.2651000  
C    -7.0254480    0.5736620    0.0052590  
C    -6.8344910   -0.8653150    0.3113650  
N    -5.4844520   -1.1072550    0.1867780  
C    -7.8402640   -1.7151640    0.6421890  
C    -9.2024860   -1.1930630    0.6968120  
O   -10.1704370   -1.8802080    0.9848930  
C    -9.4284830    0.3285110    0.3668730  
O   -10.5609270    0.7842500    0.4050340  
C    -8.2614240    1.1474020    0.0270540  
H    -5.4859050    2.1350550   -0.4647010  
H    -7.6836310   -2.7656330    0.8659750  
H    -8.4275470    2.1972710   -0.1949020  
H    -4.9897850   -1.9347390    0.4914650  
C     6.6188910    1.1232670    3.0325910  
C     7.8333090    0.7305930    2.5723460  
C     7.6169640    0.0897070    1.2920230  
C     6.1542510    0.1501630    1.0394980  
N     5.6113220    0.7680330    2.1394790  
C     5.5018790   -0.3402580   -0.0722720  
C     6.3569620   -1.0569580   -1.0171120  
O     5.9300640   -1.7066400   -1.9741530  
C     7.9200480   -1.0477950   -0.8269370  
O     8.6090430   -1.5377370   -1.7061420  
C     8.4689480   -0.4767860    0.3978980  
H     8.7840480    0.8560270    3.0692200  
H     9.5444580   -0.5083190    0.5391270  
H     6.3621450    1.6311310    3.9527490  
H     4.6483050    1.0697280    2.1889190  
