62


C    -1.6240050   -1.8437280   -0.0423760  
C    -2.9678130   -1.5884260   -0.0037500  
C    -3.1457320   -0.1701770   -0.1880960  
C    -1.8481640    0.3764210   -0.3581180  
N    -0.9250700   -0.6589900   -0.2483460  
C    -1.6220180    1.7295770   -0.6542480  
C    -2.7446650    2.5377360   -0.7721820  
O    -2.6078100    3.8495730   -1.0824720  
C    -4.0573440    2.0230110   -0.5842290  
O    -5.0372720    2.9712500   -0.7145060  
C    -4.2892680    0.6799270   -0.2668350  
H    -3.7418100   -2.3341580    0.1066590  
H    -0.6414760    2.1300790   -0.8921810  
H    -3.5179710    4.1985890   -1.1597590  
H    -5.7787510    2.5550910   -1.2206670  
H    -1.0813420   -2.7705280    0.0725540  
C     2.2008150   -2.6479360   -2.6656290  
C     0.9989180   -2.2425670   -2.1521220  
C     1.2910300   -1.3132190   -1.0976920  
C     2.7023230   -1.2017670   -1.0107550  
N     3.2287850   -2.0394440   -1.9675110  
C     3.3674070   -0.3233810   -0.1177110  
C     2.5229140    0.4822100    0.6627980  
O     3.0464480    1.3895790    1.5394600  
C     1.1134450    0.3629960    0.6222810  
O     0.4623520    1.1491010    1.5503590  
C     0.4859920   -0.5336180   -0.2393280  
H     0.0209160   -2.5533530   -2.4891410  
H     4.1992260   -2.0384410   -2.2434760  
H     2.2853690    1.8272670    1.9681230  
H    -0.4001360    1.4445400    1.2021810  
H     2.4195180   -3.3302700   -3.4745070  
C     4.8203250   -0.2657780   -0.0308120  
C     5.7543590   -1.2236980   -0.3629610  
C     7.0616480   -0.6901320   -0.0899520  
C     6.8402610    0.6800430    0.4363340  
N     5.4768970    0.8797930    0.4253510  
C     7.8323370    1.5180930    0.8314220  
C     9.2131340    1.0539520    0.7349340  
O    10.1699100    1.7374760    1.0682580  
C     9.4720860   -0.3931590    0.1733920  
O    10.6240580   -0.7932040    0.0824910  
C     8.3187400   -1.2004860   -0.2180950  
H     5.5480000   -2.2382280   -0.6699370  
H     7.6515740    2.5173520    1.2154650  
H     8.5101050   -2.1987160   -0.6005830  
H     4.9879280    1.6434250    0.8694350  
C    -5.7664960   -1.7825980    3.0578740  
C    -7.0544450   -1.9689430    2.6765050  
C    -7.2396660   -1.2502450    1.4327490  
C    -5.9279610   -0.6274000    1.1127650  
N    -5.0908920   -0.9754460    2.1443810  
C    -5.6479910    0.1483110    0.0082150  
C    -6.8010840    0.4448750   -0.8392300  
O    -6.7873150    1.2764000   -1.7495680  
C    -8.1687400   -0.2926940   -0.5912700  
O    -9.0604490   -0.1432550   -1.4092870  
C    -8.3139830   -1.1008040    0.6155840  
H    -7.8091830   -2.5332550    3.2041460  
H    -9.2737180   -1.5713720    0.8030950  
H    -5.2457950   -2.1514990    3.9315260  
H    -4.0980350   -0.7916470    2.1452890  
