58


C     3.9569200   -2.4915430   -0.4768680  
C     4.2882680   -1.1796760   -0.2259230  
C     5.7529770   -1.1453820   -0.1126070  
C     6.2161300   -2.5385910   -0.3121470  
N     5.0713950   -3.2936930   -0.5243000  
C     7.5081430   -2.9467480   -0.2845300  
C     8.5406370   -1.9422730   -0.0359090  
O     9.7308390   -2.2090560    0.0105820  
C     8.0777410   -0.4563400    0.1809600  
O     8.9216780    0.3981030    0.3930850  
C     6.6404660   -0.1467260    0.1220680  
H     7.8152140   -3.9771090   -0.4356380  
H     6.3205100    0.8783370    0.2631050  
H     2.9769510   -2.9215920   -0.6366300  
H     5.0650520   -4.2830720   -0.7221750  
C     3.3652250   -0.0818230   -0.1108250  
C     1.9848390   -0.0994900   -0.1449310  
C     1.5709080    1.2698830   -0.0347070  
C     2.8576300    2.0308530    0.0697330  
N     3.8926970    1.2365500    0.0364040  
C     2.8948990    3.4629300    0.1677890  
C     1.7089330    4.1144080    0.1608150  
O     1.5802300    5.4413940    0.2422400  
C     0.3817520    3.3810400    0.1048670  
O    -0.6227270    4.0736510    0.2396590  
C     0.3543870    1.9044490   -0.0319990  
H     1.3401170   -0.9541560   -0.2948160  
H     3.8437650    3.9831650    0.2336090  
H     0.6091970    5.6065920    0.2580390  
C    -1.3673100   -1.4141090    2.2994000  
C    -2.5925250   -1.4891990    1.7224830  
C    -2.6518670   -0.4694740    0.6974600  
C    -1.3339170    0.2088470    0.7196960  
N    -0.6104180   -0.3985980    1.7215110  
C    -0.9532890    1.2444800   -0.0951840  
C    -1.9325360    1.6593820   -1.1157320  
O    -1.6654190    2.4425850   -2.0101010  
C    -3.3677380    1.0284750   -1.0906060  
O    -4.2175310    1.5156670   -1.8135600  
C    -3.6419680   -0.1088590   -0.1782880  
H    -3.3932560   -2.1551000    2.0006860  
H    -0.9500110   -1.9999660    3.1075870  
H     0.3642230   -0.2126430    1.9057230  
C    -6.7694580   -0.6221990    2.9038990  
C    -7.7789240   -1.1758660    2.1951850  
C    -7.2554850   -1.3232000    0.8409070  
C    -5.8572090   -0.7828380    0.9281590  
N    -5.5842950   -0.3786600    2.1339170  
C    -4.9775350   -0.7310510   -0.2309530  
C    -5.4922070   -1.2238800   -1.3953000  
O    -4.7982920   -1.2968060   -2.5363900  
C    -6.8887910   -1.7754810   -1.5039920  
O    -7.2465370   -2.1997730   -2.6010030  
C    -7.7591700   -1.7935880   -0.3153670  
H    -8.7677320   -1.4502110    2.5353170  
H    -5.4232400   -1.6589710   -3.2035230  
H    -8.7628150   -2.1891250   -0.4380030  
H    -6.7611140   -0.3499280    3.9526030  
