60


C     0.6681140    1.4642490   -0.7684590  
C    -0.6784360    1.3085700   -0.5358560  
C    -0.8819120   -0.0694460   -0.1930330  
C     0.3845250   -0.7014130   -0.2306430  
N     1.3146320    0.2560530   -0.5847770  
C     0.6007570   -2.0688800    0.0398610  
C    -0.5413810   -2.8085180    0.3611360  
O    -0.4156220   -4.1103870    0.7120100  
C    -1.8273560   -2.2114200    0.3893590  
O    -2.8175050   -3.0877170    0.7563700  
C    -2.0322950   -0.8493860    0.1174960  
H    -1.4182880    2.0933420   -0.5780080  
H     2.2752560    0.0692420   -0.8309150  
H    -1.3097300   -4.4637960    0.8654760  
H    -3.6653000   -2.6110630    0.8485290  
C     1.0446720    3.5601170   -2.0696550  
C     1.9315140    4.5830330   -2.1100410  
C     2.9532530    4.3151240   -1.1170450  
C     2.5738080    3.0343900   -0.4751660  
N     1.4057400    2.6052900   -1.1035370  
C     3.2647520    2.4506850    0.5369270  
C     4.4812520    3.0921220    1.0160530  
O     5.1699160    2.6178610    1.9098400  
C     4.9145090    4.4437220    0.3424200  
O     5.9296010    5.0000310    0.7270580  
C     4.0688310    4.9866630   -0.7295890  
H     1.8920830    5.4364060   -2.7713010  
H     2.9628240    1.5211400    1.0012830  
H     4.3719690    5.9284150   -1.1767350  
H     0.1564660    3.3862190   -2.6617850  
C     4.4592470   -1.0436510    1.9410870  
C     5.2469060   -1.9863320    1.3670900  
C     4.4081500   -2.7932860    0.5044240  
C     3.0397420   -2.2301820    0.6163710  
N     3.1408050   -1.1572030    1.4867060  
C     1.9360210   -2.6941640   -0.0455340  
C     2.1538510   -3.8323490   -0.9690770  
O     1.2864360   -4.2533870   -1.7126460  
C     3.5818090   -4.4874030   -1.0387840  
O     3.7319960   -5.4829660   -1.7288120  
C     4.6708850   -3.8670340   -0.2869340  
H     6.3115260   -2.1028730    1.5082580  
H     5.6606590   -4.3045130   -0.3738740  
H     4.7250160   -0.2343470    2.6092060  
H     2.3436110   -0.7326350    1.9376080  
C    -3.3609070   -0.2628270    0.1905320  
C    -3.7694410    0.9669840    0.6261240  
C    -5.2038570    1.0472530    0.5176310  
C    -5.6425410   -0.2512210   -0.0377490  
N    -4.4968490   -1.0585270   -0.1489250  
C    -6.9192220   -0.5542200   -0.3584140  
C    -7.9556480    0.4546420   -0.1083000  
O    -9.1323650    0.2650430   -0.3663480  
C    -7.5196530    1.8210650    0.5334990  
O    -8.3745380    2.6636030    0.7614660  
C    -6.0998470    2.0284930    0.8147250  
H    -3.1281700    1.7238980    1.0542470  
H    -7.2250050   -1.5096900   -0.7740510  
H    -5.8045900    2.9841260    1.2371310  
H    -4.4225710   -1.6721000   -0.9555810  
