62


C    -0.5530380    2.6053610   -0.0515010  
C     0.2865920    1.5097330    0.1043260  
C     1.5906540    1.8847150   -0.3543690  
C     1.4902740    3.2338760   -0.7879320  
N     0.1873690    3.6364690   -0.6108400  
C     2.5881030    3.9521810   -1.2776800  
C     3.8010070    3.2872160   -1.3231250  
O     4.9726020    3.8492300   -1.7882060  
C     3.9377120    1.9446610   -0.8860850  
O     5.1580500    1.3406490   -0.9795090  
C     2.8495560    1.2266860   -0.3950350  
H     0.0302940    0.5726470    0.5771140  
H    -0.1624770    4.5807110   -0.6786200  
H     2.4991950    4.9841730   -1.6096100  
H     4.8466570    4.8010430   -1.9159430  
H     5.8057460    2.0271250   -1.2132110  
C    -3.8069580   -0.3713230    0.0038990  
C    -4.8267140    0.4817800    0.3666180  
C    -4.2601690    1.7880020    0.5260680  
C    -2.8721170    1.6745360    0.2559430  
N    -2.6154620    0.3498930   -0.0237030  
C    -1.9757180    2.7691070    0.2494930  
C    -2.5643900    4.0112050    0.5199860  
O    -1.8023000    5.1538710    0.5034130  
C    -3.9435830    4.1383380    0.8195860  
O    -4.3298920    5.4412330    1.0781230  
C    -4.7972400    3.0527890    0.8365490  
H    -5.8571220    0.1969370    0.5314250  
H    -1.7633670    0.0347400   -0.4667250  
H    -2.3863130    5.8885730    0.7625560  
H    -5.2525430    5.4544010    1.3718670  
H    -5.8546380    3.1801040    1.0570920  
C    -4.7224620   -2.4541280   -1.1112490  
C    -3.8051460   -1.7778120   -0.3618870  
C    -2.7445460   -2.7337740   -0.0546410  
C    -3.0985350   -3.9991570   -0.7457710  
N    -4.3364570   -3.7824220   -1.3067880  
C    -2.2844120   -5.0896170   -0.8155210  
C    -0.9826060   -4.9895160   -0.1793930  
O    -0.0546910   -5.7670230   -0.3878990  
C    -0.7385620   -3.7948020    0.8038370  
O     0.1996630   -3.8607820    1.5820880  
C    -1.6337310   -2.6410510    0.7200880  
H    -2.5197370   -5.9762880   -1.3958680  
H    -1.3921440   -1.7607420    1.3062760  
H    -5.6401860   -2.0881370   -1.5511410  
H    -4.8034820   -4.4266700   -1.9263990  
C     1.4166290   -2.8148160   -1.6453240  
C     1.6406920   -1.4761550   -1.5469050  
C     2.5141260   -1.2705750   -0.4086100  
C     2.7748290   -2.6220880    0.1477400  
N     2.1138400   -3.5222040   -0.6738900  
C     3.5405600   -2.8761690    1.2386070  
C     4.1744040   -1.7508560    1.9060640  
O     4.9044900   -1.8695410    2.8798430  
C     3.9125430   -0.3043970    1.3420690  
O     4.3930510    0.6421000    1.9399400  
C     3.0645580   -0.1418530    0.1315890  
H     1.2751560   -0.7074320   -2.2114800  
H     3.7095920   -3.8752880    1.6263760  
H     0.8234880   -3.3568270   -2.3707220  
H     1.8352130   -4.4517110   -0.3734060  
