60


C    -2.8490900    1.7438640    1.1185940  
C    -1.5091180    1.8601340    0.8946620  
C    -1.1620640    0.9356140   -0.1495710  
C    -2.3466300    0.2585310   -0.5185870  
N    -3.3865080    0.7710860    0.2677350  
C    -2.3860190   -0.7078510   -1.5272790  
C    -1.1907080   -1.0294120   -2.1538230  
O    -1.1850260   -1.9584990   -3.1439170  
C     0.0206950   -0.3917170   -1.7879410  
O     1.0992960   -0.8105520   -2.5224150  
C     0.0610770    0.6020700   -0.7952160  
H    -0.8397420    2.5092730    1.4392410  
H    -3.2988820   -1.1965860   -1.8432580  
H    -0.2723490   -2.0350980   -3.4735850  
H     1.8815060   -0.2673100   -2.3079450  
H    -3.4798180    2.2241110    1.8517240  
C     1.3025860    1.2897440   -0.4759580  
C     1.5406270    2.5935660   -0.1428280  
C     2.9576690    2.7797200    0.0325210  
C     3.5664140    1.4555660   -0.2032360  
N     2.5424700    0.5864950   -0.5883320  
C     4.8959390    1.1916990   -0.0575760  
C     5.7927850    2.3295500    0.2420760  
O     7.0025550    2.2007080    0.3111330  
C     5.1537480    3.7516010    0.4405010  
O     5.9027580    4.6839370    0.6859010  
C     3.7082850    3.8803430    0.3201500  
H     0.7974810    3.3764550   -0.1027170  
H     3.2724840    4.8614760    0.4780130  
H     2.5826000   -0.3792870   -0.2614950  
C     6.5868000   -0.3895430   -0.9936470  
C     6.8603780   -1.7138530   -0.9807210  
C     5.8890490   -2.3544160   -0.1198970  
C     5.0101790   -1.2702350    0.3867760  
N     5.4547240   -0.0929200   -0.2046860  
C     4.0095900   -1.4628110    1.2909200  
C     3.7482370   -2.8221210    1.7668700  
O     2.8815420   -3.0790780    2.5868550  
C     4.6259860   -3.9887220    1.1901620  
O     4.3909350   -5.1347550    1.5352460  
C     5.7084060   -3.6446830    0.2612730  
H     7.6651100   -2.2044910   -1.5087450  
H     3.4481880   -0.6539720    1.7477570  
H     6.3457920   -4.4515700   -0.0875620  
H     7.0935110    0.4175170   -1.5001880  
C    -4.7111580    0.3677130    0.2728580  
C    -5.2699050   -0.8547720    0.0318830  
C    -6.6987360   -0.7063860    0.1605080  
C    -6.9389360    0.7157130    0.5041170  
N    -5.6844040    1.3143560    0.6215160  
C    -8.1615490    1.2725340    0.6587110  
C    -9.3380860    0.4112160    0.5129210  
O   -10.4781750    0.8273770    0.6378100  
C    -9.1067460   -1.1113360    0.1974170  
O   -10.0787740   -1.8427050    0.0854420  
C    -7.7318870   -1.5834720    0.0364640  
H    -4.7376190   -1.7782530   -0.1364740  
H    -8.3189930    2.3187950    0.9025230  
H    -7.5843370   -2.6329490   -0.1989170  
H    -5.5467150    2.3002150    0.4409360  
