62


C     3.1199030   -0.7664480   -1.8683380  
C     1.8383800   -0.6862020   -1.4049850  
C     1.8273790    0.2391540   -0.3020720  
C     3.1509470    0.7106840   -0.1348130  
N     3.9262500    0.0782460   -1.1037990  
C     3.5244760    1.6503780    0.8269940  
C     2.5182770    2.1274380    1.6551640  
O     2.8180340    3.0289410    2.6290030  
C     1.1822080    1.6770470    1.5103610  
O     0.3109170    2.2415920    2.4244130  
C     0.8010410    0.7427680    0.5440370  
H     0.9902570   -1.2195130   -1.8090850  
H     4.5443350    1.9955200    0.9537970  
H     2.0013380    3.1895970    3.1340510  
H    -0.4761660    1.6810440    2.5100970  
H     3.5570950   -1.3437880   -2.6697510  
C    -1.0502420   -0.9827370    0.2336320  
C    -0.5887530    0.2865410    0.4170330  
C    -1.8137050    1.1174960    0.3408870  
C    -2.9208210    0.1370870    0.1410950  
N    -2.4579760   -1.0774330    0.0707800  
C    -4.3190200    0.5514030   -0.0035410  
C    -4.5108860    1.9037060   -0.0287330  
O    -5.7382830    2.4788400   -0.1910460  
C    -3.4304700    2.9031740    0.1352160  
O    -3.7358160    4.0997690    0.1213800  
C    -2.0392570    2.4436770    0.3286150  
H    -5.5658070    3.4481540   -0.1461090  
H    -1.2724430    3.2023940    0.4465690  
H    -0.4665950   -1.8949250    0.2120050  
C    -5.5256380   -3.1469080    2.2866280  
C    -4.8949510   -2.0039700    1.8713180  
C    -5.5578960   -1.5559460    0.6799410  
C    -6.6077580   -2.4797700    0.4289310  
N    -6.5561730   -3.4424590    1.4146990  
C    -7.5071160   -2.3519620   -0.6345330  
C    -7.3607490   -1.2440950   -1.4530370  
O    -8.2096030   -1.0477280   -2.4994880  
C    -6.3369150   -0.2895030   -1.2210770  
O    -6.3115780    0.7347210   -2.1464540  
C    -5.4029700   -0.4334430   -0.1846190  
H    -4.0421000   -1.5491030    2.3512350  
H    -7.1977710   -4.2139840    1.5063120  
H    -8.3041070   -3.0642140   -0.8229050  
H    -7.9231790   -0.2112360   -2.9131800  
H    -6.2619360    1.5840250   -1.6591050  
H    -5.3220080   -3.7861650    3.1340080  
C     5.8493900    1.2295160   -2.1064080  
C     7.1996410    1.1366410   -2.0758490  
C     7.5464180    0.0436440   -1.1855250  
C     6.2678430   -0.5118530   -0.6823900  
N     5.2691380    0.2551340   -1.2795170  
C     6.1532320   -1.5529640    0.1752650  
C     7.3839630   -2.1859540    0.6502110  
O     7.3900960   -3.1310170    1.4223640  
C     8.7576100   -1.6160970    0.1355150  
O     9.7940590   -2.1319230    0.5214040  
C     8.7365750   -0.4816270   -0.7947160  
H     7.8963950    1.7620910   -2.6150070  
H     5.2000290   -1.9348090    0.5247140  
H     9.6906240   -0.0979510   -1.1434190  
H     5.1999580    1.9076610   -2.6432010  
