60


C     2.2929950   -0.2089330   -2.1936490  
C     1.1200430    0.3249200   -1.7440530  
C     1.4178810    1.0930790   -0.5670340  
C     2.8161200    0.9958260   -0.3584140  
N     3.3411580    0.1828900   -1.3601720  
C     3.4907730    1.6690340    0.6650870  
C     2.7275540    2.4757500    1.4931260  
O     3.3169480    3.1743960    2.5010660  
C     1.3256100    2.6029350    1.3085990  
O     0.7142270    3.4207930    2.2366520  
C     0.6395600    1.9019990    0.3083380  
H     0.1490600    0.1699780   -2.1890610  
H     4.5622110    1.5953340    0.8135110  
H     2.5952890    3.6708900    2.9319400  
H     0.1326000    4.0468270    1.7559100  
H     2.4947940   -0.8629740   -3.0299080  
C    -2.4417080   -1.2076840    0.0739800  
C    -3.6096050   -0.5046350   -0.0570560  
C    -3.1640520    0.9126020   -0.0492050  
C    -1.6836360    0.8314780    0.0904180  
N    -1.2842660   -0.4095720    0.1581100  
C    -0.8279640    2.0152690    0.1741690  
C    -1.5005240    3.2017680    0.1919120  
O    -0.8819420    4.4112710    0.3106460  
C    -2.9744530    3.3198020    0.0762860  
O    -3.4646880    4.4524450    0.0922470  
C    -3.7956710    2.0996320   -0.0608590  
H    -1.6173880    5.0676260    0.2771370  
H    -4.8644770    2.2284930   -0.1755480  
H    -2.3252440   -2.2842310    0.0782070  
C    -5.5033040   -4.0025780    1.9071670  
C    -4.6550560   -3.0032690    1.5435300  
C    -5.3334190   -2.1909960    0.5591180  
C    -6.6706420   -2.8026580    0.3834160  
N    -6.6995600   -3.9080570    1.2098130  
C    -7.6509930   -2.3332300   -0.4339300  
C    -7.3832180   -1.1220180   -1.1852040  
O    -8.1912550   -0.5949330   -1.9345850  
C    -5.9735830   -0.4378010   -1.0192210  
O    -5.7692570    0.5870490   -1.6480020  
C    -4.9535640   -1.0559310   -0.1303960  
H    -3.6669850   -2.8372350    1.9429250  
H    -8.6204370   -2.8093720   -0.5414600  
H    -5.3577990   -4.7977460    2.6260860  
H    -7.5007540   -4.5058910    1.3393950  
C     5.4944960    0.1668970   -2.5675830  
C     4.6902260   -0.1724300   -1.5218960  
C     5.4682510   -1.0270390   -0.6335650  
C     6.8052110   -1.1494190   -1.2624790  
N     6.7467230   -0.4180050   -2.4355020  
C     7.8351950   -1.8598990   -0.7375790  
C     7.6172730   -2.5688690    0.5210220  
O     8.4825810   -3.2347420    1.0680910  
C     6.1966620   -2.4694130    1.1916700  
O     5.9924020   -3.0710580    2.2332450  
C     5.1690620   -1.6542340    0.5323090  
H     8.8113360   -1.9340470   -1.2071790  
H     4.1950810   -1.5776500    1.0048210  
H     5.2628500    0.7889230   -3.4216880  
H     7.5162220   -0.2912180   -3.0738670  
