62


C     0.9995350    1.4183750   -1.5295910  
C     2.3414900    1.4966340   -1.2903100  
C     2.6497180    0.5469480   -0.2533300  
C     1.4442280   -0.0991890    0.1096430  
N     0.4466340    0.4524940   -0.6872550  
C     1.3648700   -1.1101520    1.0696230  
C     2.5487100   -1.4800610    1.6915680  
O     2.5441080   -2.4593830    2.6316940  
C     3.7772030   -0.8375340    1.3765160  
O     4.8473310   -1.2581380    2.1326870  
C     3.8348860    0.1713730    0.4169900  
H     3.0361530    2.1481540   -1.8012540  
H     0.4351180   -1.6025400    1.3299440  
H     3.4655670   -2.5702910    2.9301830  
H     5.6689860   -1.2378260    1.6081860  
H     0.3643900    1.9536210   -2.2201190  
C    -1.4690160   -0.8497980   -1.5006590  
C    -2.8118650   -0.8475410   -1.3390160  
C    -3.1401700    0.1690300   -0.3503810  
C    -1.8606270    0.7846870    0.0572900  
N    -0.8733060    0.0982420   -0.6498650  
C    -1.7187550    1.8257560    0.9134720  
C    -2.9298290    2.3812530    1.5021790  
O    -2.9320290    3.3517380    2.2434770  
C    -4.3017100    1.6842480    1.1747130  
O    -5.2859910    2.0286570    1.7992640  
C    -4.3392670    0.5920640    0.1555840  
H    -3.5203870   -1.4783600   -1.8545470  
H    -0.7605070    2.2702620    1.1590180  
H    -0.8340850   -1.4432720   -2.1442380  
C    -5.8333620   -3.5776650    0.5074440  
C    -7.0927010   -3.3586780    0.0157780  
C    -7.1755010   -1.9673040   -0.3300120  
C    -5.9159820   -1.3876450   -0.0273560  
N    -5.1166900   -2.3938180    0.4757510  
C    -5.6351380   -0.0139240   -0.2030740  
C    -6.6748440    0.7668130   -0.7160280  
O    -6.4610080    2.0869270   -0.9675120  
C    -7.9346210    0.1983330   -1.0319930  
O    -8.8395640    1.1096010   -1.5448570  
C    -8.1961350   -1.1457300   -0.8468620  
H    -7.8736450   -4.0995680   -0.0863930  
H    -4.1837340   -2.2649360    0.8340470  
H    -7.3168690    2.4753060   -1.2200560  
H    -9.7165560    0.7014920   -1.5930580  
H    -9.1719980   -1.5567320   -1.0976340  
H    -5.3750530   -4.4839890    0.8772290  
C     5.2910010    2.2070140    0.3075540  
C     6.5802890    2.5336190    0.0531130  
C     7.2718170    1.3117130   -0.3033950  
C     6.2536750    0.2319410   -0.2424180  
N     5.0636710    0.8299680    0.1350980  
C     6.5076400   -1.0789290   -0.5210530  
C     7.8657560   -1.4574460   -0.9089210  
O     8.1794290   -2.6003250   -1.2015570  
C     8.9616470   -0.3320190   -0.9552500  
O    10.1077570   -0.6312530   -1.2469220  
C     8.5576890    1.0456420   -0.6482680  
H     7.0166090    3.5200550    0.1135110  
H     5.7346960   -1.8414080   -0.5541640  
H     9.3199900    1.8166940   -0.7078880  
H     4.4650880    2.8315780    0.6196390  
