60


C    -2.6594090   -0.6102500    1.8611680  
C    -1.4119770   -0.2050180    1.4813370  
C    -1.5670220    0.7473850    0.4122400  
C    -2.9538720    0.8957080    0.1790800  
N    -3.6033540    0.0531230    1.0777100  
C    -3.4893730    1.7632040   -0.7745130  
C    -2.5882790    2.5076630   -1.5197750  
O    -3.0480490    3.3646450   -2.4692760  
C    -1.1882060    2.3788790   -1.3151600  
O    -0.4466570    3.1672980   -2.1674820  
C    -0.6527730    1.5119630   -0.3614260  
H    -0.4842850   -0.5360850    1.9260140  
H    -4.5544070    1.8668730   -0.9483380  
H    -2.2761810    3.7809650   -2.8910780  
H     0.5014270    3.0575450   -1.9981680  
H    -2.9860060   -1.3098150    2.6165550  
C     1.4995110    0.2004830   -0.1692050  
C     0.8027760    1.3682320   -0.1766890  
C     1.7817500    2.4323350    0.0513510  
C     3.1040010    1.7782240    0.1907650  
N     2.8762650    0.4019200    0.0290250  
C     4.2507140    2.4417850    0.4761580  
C     4.2009180    3.9028750    0.6079590  
O     5.1924620    4.5712690    0.8440380  
C     2.8157870    4.6153610    0.4430330  
O     2.7503170    5.8275480    0.5491740  
C     1.6383310    3.7781850    0.1748800  
H     5.2048640    1.9563580    0.6428850  
H     0.6737460    4.2721360    0.1133620  
H     1.1372030   -0.8045780   -0.3330510  
C     3.7953490   -0.6344060    0.0884050  
C     3.6005940   -1.9224320    0.4990020  
C     4.8424070   -2.6275590    0.3008280  
C     5.7931400   -1.6398490   -0.2623130  
N     5.1157160   -0.4194960   -0.3194610  
C     7.0618470   -1.9206030   -0.6353600  
C     7.5518200   -3.2897230   -0.4450180  
O     8.6815950   -3.6318550   -0.7512290  
C     6.5759360   -4.3441640    0.1919320  
O     6.9748210   -5.4850050    0.3673390  
C     5.2207100   -3.9134400    0.5359600  
H     2.7037230   -2.3218100    0.9492660  
H     7.7428170   -1.1856540   -1.0535440  
H     4.5490390   -4.6545580    0.9580210  
H     5.3600170    0.2977000   -0.9890470  
C    -5.8074390    0.6512710    1.9839560  
C    -7.0874810    0.2301490    1.8586790  
C    -7.0996260   -0.8727970    0.9140200  
C    -5.6965410   -1.0732180    0.4818940  
N    -4.9561880   -0.1122160    1.1682650  
C    -5.2769430   -2.0133950   -0.3968630  
C    -6.2816640   -2.9078110   -0.9730260  
O    -6.0065750   -3.7889480   -1.7710760  
C    -7.7810820   -2.7173970   -0.5358010  
O    -8.6326490   -3.4537100   -1.0058790  
C    -8.0969370   -1.6560550    0.4279150  
H    -7.9480780    0.6394590    2.3677880  
H    -4.2403030   -2.1327850   -0.6928550  
H    -9.1350740   -1.5355410    0.7223470  
H    -5.3794930    1.4430480    2.5837210  
