62


C     1.5005550    0.3497680   -1.2991980  
C     2.8161840    0.3138590   -0.8962310  
C     2.9461600    1.2977820    0.1569150  
C     1.6735410    1.8918670    0.3352180  
N     0.7967280    1.2993990   -0.5701320  
C     1.4291500    2.8895090    1.2855920  
C     2.4974640    3.3038940    2.0642490  
O     2.3165640    4.2713840    3.0081200  
C     3.7870180    2.7330740    1.8882380  
O     4.7481590    3.2601430    2.7277300  
C     4.0227360    1.7475040    0.9484680  
H     0.4538230    3.3422370    1.4197540  
H     3.1738330    4.4098600    3.4467690  
H     5.5790580    2.7743810    2.6174480  
H     5.0192680    1.3301430    0.8275300  
H     0.9977570   -0.2223290   -2.0668020  
C    -2.4417430   -1.3997210    0.3767180  
C    -3.5075190   -0.5781280    0.0316420  
C    -2.9184820    0.6642790   -0.4436180  
C    -1.5164950    0.5115360   -0.3405970  
N    -1.2595970   -0.7545570    0.1496750  
C    -0.6002430    1.5242360   -0.6737350  
C    -1.1228460    2.7380360   -1.1126970  
O    -0.2914420    3.7527010   -1.4630090  
C    -2.5296940    2.9129200   -1.1954230  
O    -2.8949360    4.1664280   -1.6405990  
C    -3.4215560    1.9073470   -0.8757140  
H    -0.3367840   -1.1382260    0.2933910  
H    -0.8511390    4.5038830   -1.7286230  
H    -3.8578130    4.2099550   -1.7389460  
H    -4.4883830    2.0693040   -0.9816620  
H    -2.4600110   -2.4222600    0.7240740  
C    -5.7451930   -3.0435430    3.0072660  
C    -4.7667490   -2.3064310    2.4253010  
C    -5.3598770   -1.7778950    1.1988170  
C    -6.7438830   -2.3074300    1.2217210  
N    -6.9653980   -3.0540830    2.2708130  
C    -7.7000370   -1.9964760    0.1875090  
C    -7.2992760   -1.1785190   -0.8098870  
O    -8.0907110   -0.7802800   -1.8259070  
C    -5.9068160   -0.6206620   -0.8663210  
O    -5.6483790    0.1241700   -1.8118170  
C    -4.8967360   -0.9888050    0.1824680  
H    -3.7738980   -2.1077710    2.8020880  
H    -8.7045550   -2.4021190    0.2358060  
H    -7.5223830   -0.2102250   -2.3871070  
H    -5.7011650   -3.5893600    3.9422160  
C     4.1130840   -0.7094350   -2.8076880  
C     3.8593550   -0.5303160   -1.4792240  
C     4.8084860   -1.3846880   -0.7678340  
C     5.6290340   -2.0630600   -1.8036200  
N     5.1394000   -1.6284760   -3.0172860  
C     6.6395660   -2.9305360   -1.5378490  
C     6.9410760   -3.2404040   -0.1445300  
O     7.8328760   -4.0044950    0.1931520  
C     6.0652180   -2.5568070    0.9693150  
O     6.2969870   -2.8079340    2.1418150  
C     5.0036490   -1.6346590    0.5535930  
H     7.2304870   -3.4129730   -2.3105550  
H     4.4057290   -1.1685710    1.3300110  
H     3.6309610   -0.2358560   -3.6527510  
H     5.5435460   -1.8515630   -3.9131970  
