62


C     0.6101070    1.0131870   -0.1467130  
C     1.6649900    0.1357860   -0.0218400  
C     2.8197550    0.7519830   -0.5983280  
C     2.4130880    2.0376250   -1.0536640  
N     1.0760950    2.1807360   -0.7470030  
C     3.2781330    2.9426890   -1.6724120  
C     4.5962970    2.5425690   -1.8360510  
O     5.4856360    3.3693550   -2.4579610  
C     5.0283700    1.2816090   -1.3631310  
O     6.3929600    1.0439810   -1.5617500  
C     4.1818940    0.3659030   -0.7333400  
H     1.6090370   -0.8376470    0.4407150  
H     0.4796490    2.9120190   -1.1029880  
H     2.9595450    3.9158900   -2.0310920  
H     6.3225240    2.8769060   -2.5277850  
H     6.5120860    0.1057440   -1.7869890  
C    -1.4893980   -0.3243100    0.1793920  
C    -0.7851360    0.8466590    0.2199250  
C    -1.7115090    1.8624090    0.7067400  
C    -3.0012190    1.1684520    0.9468610  
N    -2.8034930   -0.1671020    0.6150850  
C    -4.1215660    1.7737130    1.4179980  
C    -4.0732080    3.2058050    1.6981860  
O    -5.0364490    3.8393180    2.1035000  
C    -2.7134550    3.9593180    1.4659220  
O    -2.6486290    5.1553650    1.7048570  
C    -1.5702290    3.1894110    0.9686880  
H    -5.0486780    1.2405800    1.5971800  
H    -0.6293940    3.7170670    0.8481550  
H    -1.1613610   -1.2982400   -0.1583970  
C    -3.6511510   -2.3364690    1.4574770  
C    -3.7654190   -1.2002070    0.6895510  
C    -5.0005800   -1.2885120   -0.0458560  
C    -5.5960160   -2.5187560    0.3283730  
N    -4.7498690   -3.1336830    1.2327730  
C    -6.8231540   -2.9502120   -0.1914780  
C    -7.4566740   -2.1224150   -1.1037610  
O    -8.6550610   -2.4903530   -1.6365990  
C    -6.8691930   -0.8860180   -1.4923670  
O    -7.6198660   -0.1825430   -2.4110870  
C    -5.6576030   -0.4632590   -0.9807350  
H    -4.9131870   -4.0290010    1.6663140  
H    -7.2858090   -3.8894880    0.0932930  
H    -8.9389310   -1.7758270   -2.2329700  
H    -7.2174600    0.6846020   -2.5683550  
H    -5.2263550    0.4849710   -1.2914990  
H    -2.8708720   -2.6296140    2.1447760  
C     7.6289540   -0.6230440    1.8489970  
C     7.4392150   -1.9599730    1.9913260  
C     6.2674680   -2.3109850    1.2188120  
C     5.7825180   -1.0464710    0.6083780  
N     6.6315480   -0.0535600    1.0639550  
C     4.6854500   -0.9248270   -0.2085140  
C     3.9881000   -2.1920080   -0.5314590  
O     3.0703790   -2.2602760   -1.3318310  
C     4.4454030   -3.5268420    0.1707850  
O     3.7866590   -4.5369660   -0.0267950  
C     5.6257440   -3.4947350    1.0235330  
H     8.0398570   -2.6376630    2.5803090  
H     5.9468600   -4.4220350    1.4878650  
H     8.4029440    0.0075270    2.2669160  
H     6.7146950    0.8379700    0.5944230  
