60


C     0.5665950    0.6707730   -0.2683550  
C     0.6807840    2.0614520   -0.2587600  
C     2.0675470    2.3768870   -0.2111000  
C     2.7758480    1.1413700   -0.1969710  
N     1.8443800    0.1366230   -0.2149690  
C     4.1863460    1.0620750   -0.1154250  
C     4.8605610    2.2869830   -0.0776300  
O     6.2237910    2.3182710   -0.0308640  
C     4.1622720    3.5256190   -0.1030070  
O     4.9964150    4.6295050   -0.0545080  
C     2.7871980    3.5886220   -0.1640340  
H    -0.1215520    2.7753030   -0.3791530  
H     2.0042590   -0.8461590   -0.4065480  
H     6.4861620    3.2539630   -0.0925900  
H     4.4918710    5.4247390   -0.2804860  
H     2.2754850    4.5488060   -0.1713020  
C    -3.6385040    1.5048750    0.6157780  
C    -4.2103170    0.3070670    0.2834960  
C    -3.1089160   -0.5679340   -0.1326260  
C    -1.8810010    0.2405800   -0.0369210  
N    -2.2727470    1.4963390    0.3967730  
C    -0.6039090   -0.1848510   -0.3234860  
C    -0.4873190   -1.6205470   -0.6627000  
O     0.5838740   -2.2019480   -0.7719990  
C    -1.7960810   -2.4639080   -0.8887620  
O    -1.6744920   -3.6033840   -1.3099770  
C    -3.0805900   -1.8562670   -0.5702130  
H    -3.9673480   -2.4709800   -0.6608890  
H    -4.1166100    2.3893960    1.0153250  
H    -1.6225790    2.1459070    0.8173650  
C    -7.7630030    2.5662390   -1.1148310  
C    -6.4985250    2.1342520   -0.8713550  
C    -6.5967980    0.8828780   -0.1468810  
C    -8.0464170    0.6161930    0.0067220  
N    -8.6958110    1.6850480   -0.5795250  
C    -8.5830800   -0.4826090    0.6005930  
C    -7.6728460   -1.4833530    1.1272060  
O    -8.0398350   -2.5236010    1.6527860  
C    -6.1247730   -1.2145940    1.0150110  
O    -5.3649950   -2.0265340    1.5140410  
C    -5.6446040    0.0179270    0.3366660  
H    -5.5884500    2.6213110   -1.1862290  
H    -9.6513260   -0.6534740    0.6896430  
H    -8.0974520    3.4503570   -1.6411260  
H    -9.6954250    1.7589300   -0.6851770  
C     7.1283160   -0.6973680    2.7183910  
C     6.2211750    0.1003830    2.0999870  
C     5.8175270   -0.5649060    0.8801520  
C     6.5791720   -1.8386320    0.8390660  
N     7.3610950   -1.8522390    1.9767840  
C     6.4905800   -2.7693280   -0.1454330  
C     5.5789690   -2.5075520   -1.2472560  
O     5.4424600   -3.2571630   -2.2016750  
C     4.7177660   -1.1894190   -1.2038220  
O     3.9004410   -1.0110250   -2.0928340  
C     4.9232620   -0.2210660   -0.1001300  
H     5.8689170    1.0591360    2.4458230  
H     7.0704000   -3.6869880   -0.1582920  
H     7.6528110   -0.5449940    3.6524850  
H     7.9677240   -2.6096630    2.2477190  
