60


C     0.0515720    2.0585630   -0.1456540  
C    -1.1975820    1.4571670   -0.3229200  
C    -0.9994090    0.0528910   -0.3716600  
C     0.3947440   -0.1770420   -0.2036720  
N     0.9946260    1.0428520   -0.0799340  
C     0.9844280   -1.4663850   -0.1926180  
C     0.0863470   -2.5359540   -0.3481190  
O     0.5210100   -3.8112700   -0.2920480  
C    -1.3124910   -2.3176880   -0.5227190  
O    -2.0089770   -3.4946130   -0.6961740  
C    -1.8838240   -1.0515740   -0.5382340  
H    -2.1489150    1.9652990   -0.3310000  
H     1.9774470    1.2351990    0.0662140  
H    -0.2558600   -4.3875720   -0.4132040  
H    -2.9652270   -3.3312710   -0.6887170  
C    -2.0217560    5.9186610   -1.0309510  
C    -1.6706790    4.6050020   -0.9770980  
C    -0.3897480    4.5184480   -0.3132710  
C    -0.0103220    5.9074910    0.0089280  
N    -1.0514630    6.7034570   -0.4256990  
C     1.1425530    6.2996130    0.6227110  
C     2.1021650    5.2766270    0.9624880  
O     3.1673340    5.4846410    1.5263290  
C     1.7659370    3.7886160    0.5679900  
O     2.6563690    2.9634140    0.7279630  
C     0.4247340    3.4467310    0.0156130  
H    -2.2318060    3.7891830   -1.4020550  
H     1.3676910    7.3322730    0.8685340  
H    -2.8994560    6.3796860   -1.4635520  
H    -1.0563300    7.7104080   -0.3823910  
C    -3.9041090   -0.0286720   -1.6743020  
C    -3.3278900   -0.8564720   -0.7512720  
C    -4.4327420   -1.4925990   -0.0351360  
C    -5.6847330   -0.9695410   -0.6385170  
N    -5.2883920   -0.0759490   -1.6158730  
C    -6.9338580   -1.3296290   -0.2533980  
C    -7.0756950   -2.2947350    0.8358290  
O    -8.1587770   -2.6854170    1.2402480  
C    -5.7665030   -2.8400480    1.5130800  
O    -5.8621640   -3.6266220    2.4402290  
C    -4.4703570   -2.3778580    0.9995140  
H    -7.8368480   -0.9331650   -0.7075820  
H    -3.5762990   -2.7452970    1.4943070  
H    -3.4129310    0.6038030   -2.4018810  
H    -5.9138020    0.4127540   -2.2374060  
C     2.4188480   -1.6517050   -0.0291720  
C     3.2939870   -0.8837330    0.6958260  
C     4.5991810   -1.4637410    0.4825010  
C     4.3399040   -2.6130840   -0.4439730  
N     3.0792600   -2.7254870   -0.7354650  
C     5.4112700   -3.4525030   -0.9202840  
C     6.6625600   -3.1785520   -0.4849250  
O     7.7557790   -3.8731300   -0.8337360  
C     6.9512620   -2.0331400    0.4610090  
O     8.1256650   -1.8697670    0.7958970  
C     5.8490950   -1.1842770    0.9217540  
H     3.0719670   -0.0569600    1.3561520  
H     5.1992580   -4.2738430   -1.5956150  
H     8.4971500   -3.4334130   -0.3584220  
H     6.0944910   -0.3643500    1.5896390  
