60


C     0.0510460    0.2718850   -1.3042430  
C     1.3498850   -0.0845330   -1.0871310  
C     1.9078730    0.8694290   -0.1698750  
C     0.8940360    1.8135210    0.1187520  
N    -0.2523150    1.4323730   -0.5904050  
C     1.0846070    2.8707210    1.0128660  
C     2.3354330    3.0062290    1.5951060  
O     2.5602670    4.0213960    2.4743520  
C     3.3805030    2.0979140    1.3013990  
O     4.5440370    2.3615450    1.9810250  
C     3.1913190    1.0149550    0.4261330  
H     1.8583830   -0.9144120   -1.5548740  
H     0.3114630    3.5874060    1.2565210  
H     3.4726730    3.9271180    2.7995290  
H     5.1836300    1.6385150    1.8310660  
H    -0.7003320   -0.1727690   -1.9392010  
C    -4.3680670   -0.1406760   -0.1556780  
C    -2.9947050   -0.0700940   -0.1967690  
C    -2.6818310    1.3132500   -0.4478400  
C    -4.0089620    1.9833540   -0.5450480  
N    -4.9846690    1.1445770   -0.3726140  
C    -4.1392780    3.4002530   -0.7819610  
C    -3.0036290    4.1187380   -0.9200240  
O    -2.9694460    5.4437790   -1.1373450  
C    -1.6391290    3.4825100   -0.8551010  
O    -0.6705140    4.2097020   -1.0629110  
C    -1.5240100    2.0251780   -0.5760660  
H    -2.3075360   -0.8863490   -0.0501480  
H    -5.1225140    3.8530660   -0.8394910  
H    -2.0188650    5.6711050   -1.2342490  
C    -3.2522790   -4.3468990    0.4435190  
C    -4.4535390   -4.9426300    0.6085160  
C    -5.4273440   -3.8659340    0.4955690  
C    -4.6019190   -2.6337810    0.2526630  
N    -3.3367810   -2.9342370    0.2240000  
C    -5.1992770   -1.3049950    0.0764710  
C    -6.5786050   -1.2719630    0.1511640  
O    -7.3337110   -0.1847930    0.0287690  
C    -7.4130850   -2.5099070    0.3947440  
O    -8.6334060   -2.3594520    0.4428880  
C    -6.7694990   -3.8176770    0.5639460  
H    -4.6687380   -5.9868900    0.7862730  
H    -8.2607700   -0.5072370    0.1341620  
H    -7.4125770   -4.6753460    0.7355930  
H    -2.2700220   -4.8034680    0.4586980  
C     4.2582870    0.0551280    0.1870860  
C     4.2169610   -1.2995650    0.0066770  
C     5.5604190   -1.7892490   -0.1635320  
C     6.4391480   -0.6024570   -0.0809970  
N     5.6165980    0.4973640    0.2164910  
C     7.7775900   -0.6270740   -0.2625980  
C     8.4190500   -1.9210230   -0.5221780  
O     9.6212270   -2.0351040   -0.6949100  
C     7.5116940   -3.2036350   -0.5575140  
O     8.0366970   -4.2894610   -0.7556500  
C     6.0729970   -3.0348070   -0.3660900  
H     3.3263580   -1.9088780    0.0579250  
H     8.4086330    0.2550060   -0.2078590  
H     5.4507060   -3.9230950   -0.4159550  
H     5.8343350    1.3877800   -0.2218440  
