60


C    -2.3178500    3.4430490   -1.4637010  
C    -3.4863670    2.7316630   -1.3955560  
C    -3.1447060    1.4149000   -0.9373200  
C    -1.7404470    1.3897330   -0.7341520  
N    -1.2651310    2.6362380   -1.0741180  
C    -1.0406820    0.2431360   -0.2919900  
C    -1.8197180   -0.8885730   -0.0252880  
O    -1.2363940   -2.0044890    0.4738940  
C    -3.2227300   -0.8952110   -0.2330840  
O    -3.8183990   -2.1147130   -0.0034090  
C    -3.8874810    0.2383140   -0.6946910  
H    -4.4724710    3.1045930   -1.6319470  
H    -0.3055080    2.9330460   -0.9811280  
H    -1.9416830   -2.6718190    0.5710970  
H    -4.7059780   -1.9990980    0.3858570  
H    -2.1423160    4.4690690   -1.7535830  
C     1.9485740    2.7070210    1.9400800  
C     0.7792050    2.2298660    1.4524290  
C     1.1489530    1.1032380    0.6031200  
C     2.6360680    1.0409330    0.7078530  
N     3.0883590    1.9807200    1.4870290  
C     3.4287010    0.0161330    0.0191670  
C     2.6957100   -0.8732610   -0.7227240  
O     3.2335160   -1.8822350   -1.4390000  
C     1.2089300   -0.8074550   -0.8735810  
O     0.7033300   -1.5983760   -1.6674070  
C     0.4204340    0.2168110   -0.1257960  
H    -0.2231640    2.5731050    1.6644990  
H     2.4675930   -2.3025810   -1.8978940  
H     2.1036860    3.5361920    2.6194410  
C     4.8759910   -0.0288390    0.1308310  
C     5.7213770    0.8007520    0.8325420  
C     7.0664610    0.3407340    0.6217550  
C     6.9688400   -0.8417040   -0.2701170  
N     5.6301150   -1.0115490   -0.5292340  
C     8.0351030   -1.5634150   -0.7042400  
C     9.3687400   -1.1604690   -0.2741790  
O    10.3870220   -1.7458340   -0.6130140  
C     9.4965050    0.0910060    0.6716140  
O    10.6064310    0.4443730    1.0410830  
C     8.2723580    0.7875700    1.0727080  
H     5.4051970    1.6396310    1.4302210  
H     7.9450950   -2.4264660   -1.3566790  
H     8.3714040    1.6494820    1.7256560  
H     5.2233320   -1.7336230   -1.1041440  
C    -5.8864460    0.4651090   -2.1838230  
C    -7.2225770    0.2528860   -2.1436270  
C    -7.5512230   -0.1787550   -0.8000390  
C    -6.2707090   -0.1897790   -0.0482780  
N    -5.2860470    0.2055060   -0.9373580  
C    -6.1576200   -0.5228040    1.2698490  
C    -7.3681720   -0.9013030    1.9987780  
O    -7.3668640   -1.1881130    3.1849670  
C    -8.7267060   -0.9279180    1.2101390  
O    -9.7427290   -1.2748000    1.7886130  
C    -8.7198260   -0.5231040   -0.2017800  
H    -7.9163390    0.3731100   -2.9629920  
H    -5.2320520   -0.4299440    1.8311840  
H    -9.6710490   -0.5155230   -0.7254980  
H    -5.2562610    0.7763210   -3.0055330  
