60


C    -3.6982570    3.0511670    1.2745650  
C    -3.6841430    4.3988740    1.0907640  
C    -2.4063840    4.7291340    0.5068770  
C    -1.6578580    3.4429520    0.3976070  
N    -2.4943600    2.4789200    0.8996680  
C    -0.3641900    3.3323420   -0.0818750  
C     0.1369360    4.5589340   -0.7699210  
O     1.0344430    4.5315510   -1.5919030  
C    -0.5593140    5.9349250   -0.5027590  
O     0.0164670    6.9573460   -0.8431210  
C    -1.8769430    5.9203250    0.1142110  
H    -4.4787980    5.0946370    1.3173040  
H    -2.3954870    6.8654380    0.2442330  
H    -4.4866130    2.4157310    1.6557840  
H    -2.3331030    1.4856240    0.6717930  
C    -1.2132970   -1.0391740   -0.3869790  
C     0.0611720   -1.5128460   -0.6152240  
C     0.9295010   -0.3718760   -0.5216410  
C     0.0295420    0.7717220   -0.2632140  
N    -1.2071900    0.3643890   -0.1760330  
C     0.4991560    2.1467620   -0.0923750  
C     1.8623550    2.2576960    0.0606240  
O     2.4691000    3.3996600    0.4116250  
C     2.8152780    1.1409430   -0.1637400  
O     4.0198110    1.3976870   -0.1052240  
C     2.2954880   -0.2239370   -0.4868010  
H     0.3606960   -2.5406550   -0.7603500  
H     3.4327530    3.2265950    0.3348130  
C    -2.4509290   -1.7577790   -0.2964210  
C    -2.7006730   -3.0829760   -0.5700790  
C    -4.0965120   -3.2832120   -0.3007190  
C    -4.5822800   -1.9347320    0.1494500  
N    -3.6273360   -1.0520520    0.1502610  
C    -5.9564320   -1.7183850    0.5228320  
C    -6.8001140   -2.7744290    0.4502710  
O    -8.1008430   -2.7243900    0.7623730  
C    -6.3397100   -4.1456290   -0.0022180  
O    -7.1925470   -5.0353780   -0.0295500  
C    -4.9410810   -4.3446620   -0.3743680  
H    -2.0017270   -3.8263610   -0.9275760  
H    -6.2875470   -0.7372730    0.8443670  
H    -8.4351510   -3.6379170    0.6081720  
H    -4.6446700   -5.3396970   -0.6912880  
C     2.9029370   -2.1576770   -1.8544170  
C     3.8977360   -3.0780300   -1.9319160  
C     4.8465540   -2.7833160   -0.8876780  
C     4.3892050   -1.6306770   -0.2071270  
N     3.1745950   -1.2396090   -0.8197040  
C     5.0447140   -1.1335720    0.9224320  
C     6.2009600   -1.7817500    1.3367880  
O     6.8744260   -1.3156390    2.4248040  
C     6.6867660   -2.9172400    0.6430240  
O     7.8428960   -3.4468330    1.1701590  
C     6.0184530   -3.4249840   -0.4590970  
H     3.9699810   -3.8687600   -2.6664010  
H     4.7167700   -0.2564060    1.4616500  
H     7.6568060   -1.8797620    2.5503160  
H     8.1374010   -4.1965090    0.6317250  
H     6.3857760   -4.3130370   -0.9687220  
H     2.0410990   -1.9985720   -2.4837180  
