58


C     4.8764290   -0.6535240   -2.2217930  
C     4.7537000   -0.4783290   -0.8711160  
C     5.5418650   -1.5470330   -0.2479400  
C     6.1130510   -2.3455770   -1.3585820  
N     5.6563950   -1.7580690   -2.5263520  
C     6.9130720   -3.4298280   -1.2023210  
C     7.2297600   -3.8656460    0.1550610  
O     7.9355870   -4.8317500    0.3981350  
C     6.6145430   -3.0505960    1.3497580  
O     6.8403210   -3.4123730    2.4921910  
C     5.7780970   -1.8803830    1.0448520  
H     7.3239450   -3.9944770   -2.0336420  
H     5.3928430   -1.3089840    1.8816270  
H     4.4778230   -0.0394490   -3.0197180  
H     5.9722360   -2.0045260   -3.4517980  
C     0.5774140    0.7021670   -1.3350910  
C     0.5122950    1.7916650   -0.5010840  
C     1.8521950    1.9324370    0.0861710  
C     2.6729670    0.8449180   -0.4926290  
N     1.8403930    0.1590950   -1.3615910  
C     3.9829190    0.5785870   -0.2048520  
C     4.6169170    1.4481070    0.8071850  
O     5.7785330    1.3207360    1.1544080  
C     3.7566410    2.5889610    1.4594470  
O     4.2707730    3.2862250    2.3176680  
C     2.3710510    2.7703240    1.0196880  
H     1.8114180    3.5863350    1.4587320  
H    -0.2053220    0.2918260   -1.9587460  
H     2.1117300   -0.6796020   -1.8529390  
C    -3.8334390    0.7848960   -0.0852840  
C    -2.4607600    0.6754290   -0.1579920  
C    -1.9571450    2.0220700   -0.2056810  
C    -3.1840250    2.8653330   -0.1378990  
N    -4.2693370    2.1502620   -0.0800200  
C    -3.1184350    4.3051670   -0.1276770  
C    -1.8943960    4.8766840   -0.1660260  
O    -1.6827690    6.2023410   -0.1427200  
C    -0.6318740    4.0601910   -0.2469760  
O     0.4278320    4.6825350   -0.3040820  
C    -0.7010540    2.5698180   -0.2859910  
H    -1.8768240   -0.2335890   -0.1370360  
H    -4.0300250    4.8896770   -0.0765580  
H    -0.7091150    6.3172220   -0.1977340  
C    -4.7941870   -0.2825930   -0.0025890  
C    -4.5440040   -1.6346650    0.0558540  
C    -5.8342260   -2.2699040    0.1328100  
C    -6.8053570   -1.1268910    0.1071280  
N    -6.2020250    0.0205050    0.0288250  
C    -8.2284680   -1.3497790    0.1652090  
C    -8.6628110   -2.6291810    0.2461660  
O    -9.9536110   -2.9856170    0.3072640  
C    -7.7077000   -3.8001770    0.2748320  
O    -8.1985120   -4.9268690    0.3478910  
C    -6.2616910   -3.5529750    0.2139340  
H    -3.5842680   -2.1327020    0.0548860  
H    -8.9105210   -0.5072480    0.1450420  
H    -9.9497380   -3.9677130    0.3590540  
H    -5.6074630   -4.4191780    0.2373350  
