60


C     0.2030800    1.0908590   -1.5365890  
C     0.2278510    2.1304080   -0.6200610  
C     1.5527870    2.1161320   -0.0337160  
C     2.2638130    1.0499290   -0.6334540  
N     1.4207710    0.4531470   -1.5508010  
C     3.5857140    0.6942390   -0.2893550  
C     4.1793750    1.4642580    0.7108260  
O     5.4602370    1.2055400    1.0930590  
C     3.4790530    2.5370840    1.3252860  
O     4.2217930    3.1976370    2.2824690  
C     2.1886470    2.8720770    0.9704070  
H     1.6609470   -0.3525750   -2.1076040  
H     5.6966810    1.8639980    1.7705930  
H     3.7586870    4.0039760    2.5552610  
H     1.6901300    3.7180200    1.4315680  
H    -0.5677100    0.8158090   -2.2441840  
C    -4.0253630    1.2369000   -0.0333440  
C    -4.5041950    2.5163670    0.0862910  
C    -3.3807630    3.4149270    0.0230260  
C    -2.1841900    2.5689980   -0.1713790  
N    -2.6353840    1.2574760   -0.1580870  
C    -0.9008350    3.0193700   -0.3287120  
C    -0.7209480    4.4833690   -0.2017670  
O     0.3708350    5.0246950   -0.2634200  
C    -1.9827910    5.4006310    0.0343600  
O    -1.8052750    6.6053870    0.1383540  
C    -3.2927340    4.7729470    0.1242930  
H    -5.5336750    2.7922480    0.2634370  
H    -4.1588310    5.4107350    0.2690400  
H    -2.0660170    0.4741420   -0.4403550  
C    -4.7420490   -0.0164870    0.0008700  
C    -6.0427270   -0.2792310   -0.3301550  
C    -6.2731040   -1.6896150   -0.1414350  
C    -4.9908040   -2.2540860    0.3432900  
N    -4.0728450   -1.2057030    0.3493010  
C    -4.8101680   -3.5483780    0.6965840  
C    -5.9405990   -4.4695360    0.5602780  
O    -5.8681610   -5.6526390    0.8488490  
C    -7.2966510   -3.9018910    0.0031020  
O    -8.2448270   -4.6588560   -0.1315280  
C    -7.3692690   -2.4752780   -0.3240800  
H    -6.7507990    0.4365080   -0.7227640  
H    -3.8679120   -3.9454330    1.0616920  
H    -8.3158500   -2.0884650   -0.6888830  
H    -3.2890410   -1.2007440    0.9894010  
C     4.5107120   -0.5485230   -2.2973970  
C     4.2952410   -0.4122960   -0.9568990  
C     4.8872960   -1.5928500   -0.3274900  
C     5.4598860   -2.4129010   -1.4222060  
N     5.1768820   -1.7341920   -2.5925550  
C     6.1138180   -3.5889350   -1.2432170  
C     6.2576960   -4.1008440    0.1161040  
O     6.8275840   -5.1490110    0.3785340  
C     5.6371570   -3.2582640    1.2909370  
O     5.7312580   -3.6773960    2.4334200  
C     4.9641050   -1.9952120    0.9656560  
H     6.5305850   -4.1716680   -2.0590570  
H     4.5598210   -1.4105050    1.7845850  
H     4.2500530    0.1356920   -3.0950460  
H     5.5351840   -1.9847100   -3.5009040  
