58


C     1.7913150    5.1032350    1.5167360  
C     0.9272310    6.0794770    1.1405540  
C    -0.1375740    5.4425880    0.3935620  
C     0.1927200    4.0007370    0.3541680  
N     1.3795200    3.8627180    1.0307130  
C    -0.5821170    3.0170800   -0.2214890  
C    -1.8379150    3.4626130   -0.8595930  
O    -2.6010980    2.7194220   -1.4560020  
C    -2.2032800    4.9940960   -0.8193330  
O    -3.2556430    5.3516270   -1.3222700  
C    -1.2728090    5.9243640   -0.1806570  
H     1.0086110    7.1334320    1.3623190  
H    -1.5408760    6.9762200   -0.1649000  
H     2.7006040    5.1742970    2.0983840  
H     1.7741560    2.9665580    1.2878400  
C    -0.1947130    1.6213930   -0.2033660  
C     1.0637550    1.0779350   -0.2423980  
C     0.8856980   -0.3480330   -0.1568080  
C    -0.5994490   -0.5313010   -0.0520740  
N    -1.2078950    0.6194610   -0.0903870  
C    -1.2413140   -1.8283680    0.0438820  
C    -0.3801360   -2.8893590   -0.0818940  
O    -0.7818550   -4.1591490   -0.1483720  
C     1.1177370   -2.7475260   -0.1438570  
O     1.7721810   -3.7880100   -0.1153220  
C     1.7435180   -1.4010220   -0.2198150  
H     2.0045050    1.5852450   -0.3914870  
H     0.0408000   -4.6986330   -0.1430280  
C    -4.9579530    0.2202090   -1.4154130  
C    -5.8816660   -0.6274940   -0.8901820  
C    -5.1599410   -1.6230440   -0.1334470  
C    -3.7136490   -1.2916410   -0.2926650  
N    -3.6656880   -0.1853190   -1.1118700  
C    -2.6863290   -2.0220810    0.2624110  
C    -3.1035880   -3.0548530    1.2456820  
O    -2.3313020   -3.5533380    2.0465810  
C    -4.6079890   -3.4942290    1.3110660  
O    -4.8967370   -4.4842270    1.9679380  
C    -5.5866170   -2.6877350    0.5994120  
H    -6.9547990   -0.5653890   -0.9977600  
H    -6.6337410   -2.9642690    0.6778850  
H    -5.0972310    1.1184720   -2.0023950  
H    -2.8705350    0.4571590   -1.0812690  
C     4.7461270    0.7564080    2.2165790  
C     5.9067550    0.3271960    1.6735160  
C     5.5102380   -0.5404480    0.5703280  
C     4.0083410   -0.5236010    0.6079930  
N     3.5749420    0.2488150    1.5627890  
C     3.2099990   -1.3081310   -0.3259090  
C     3.9072130   -1.9882300   -1.2847720  
O     3.3278280   -2.6826160   -2.2665120  
C     5.4134490   -1.9960150   -1.3535940  
O     5.9334080   -2.6447530   -2.2579060  
C     6.1898630   -1.2392200   -0.3580670  
H     6.9180440    0.5591640    1.9769150  
H     4.0642200   -3.0791820   -2.7845630  
H     7.2722300   -1.2780010   -0.4329010  
H     4.6120890    1.4135610    3.0678250  
