62


C    -0.5564840   -1.8931630   -0.0542350  
C    -1.3846540   -0.8234570    0.2092550  
C    -2.7244060   -1.3225400    0.3192690  
C    -2.6707700   -2.7229990    0.1095620  
N    -1.3509930   -3.0460860   -0.1671920  
C    -3.7998310   -3.5455430    0.1418480  
C    -5.0230440   -2.9371230    0.3874210  
O    -6.1567700   -3.6837280    0.4311730  
C    -5.1149980   -1.5366690    0.6088980  
O    -6.3830060   -1.0903890    0.9061490  
C    -3.9799860   -0.7282520    0.5768740  
H    -1.0723030    0.2101860    0.2472420  
H    -0.9727480   -3.9763470   -0.0458670  
H    -3.7563320   -4.6159220   -0.0292080  
H    -6.8951810   -3.0668400    0.5882950  
H    -6.5288510   -0.1993800    0.5377330  
C     2.8572910    0.2928480    1.8670920  
C     1.6209370   -0.1760420    1.5282870  
C     1.7887190   -1.1271670    0.4601100  
C     3.1737300   -1.2097560    0.1844370  
N     3.8083880   -0.3282070    1.0563470  
C     3.7268290   -2.0586220   -0.7760390  
C     2.8404950   -2.8530990   -1.4883800  
O     3.3090020   -3.6914040   -2.4516670  
C     1.4463790   -2.7968320   -1.2364190  
O     0.7069830   -3.6494010   -2.0363360  
C     0.8901010   -1.9481220   -0.2737850  
H     0.6901950    0.1099960    1.9950730  
H     4.7896630   -2.1047110   -0.9844140  
H     2.5346640   -4.1041880   -2.8738790  
H    -0.2158920   -3.3425080   -2.0654230  
H     3.1729070    1.0138480    2.6068620  
C     6.0573720   -0.8304450    1.9043760  
C     7.3151250   -0.3540280    1.7506550  
C     7.2565770    0.7499050    0.8094730  
C     5.8359910    0.8890600    0.4109580  
N     5.1547250   -0.1048890    1.1113980  
C     5.3552090    1.8125130   -0.4542210  
C     6.3062530    2.7521670   -1.0492510  
O     5.9748080    3.6241010   -1.8360310  
C     7.8227760    2.6262980   -0.6484670  
O     8.6299530    3.4010060   -1.1355890  
C     8.2072050    1.5773590    0.3029300  
H     8.2045640   -0.7265950    2.2379440  
H     4.3076180    1.8866780   -0.7254760  
H     9.2562220    1.5013870    0.5727470  
H     5.6785110   -1.6412480    2.5116850  
C    -3.4444850    1.3348890    1.8928350  
C    -3.8057100    2.6387660    1.9500180  
C    -4.7500920    2.8705860    0.8761600  
C    -4.8993370    1.5702190    0.1741370  
N    -4.0827700    0.6674050    0.8331910  
C    -5.7034900    1.3712450   -0.9095660  
C    -6.4723090    2.5041280   -1.4231020  
O    -7.1989980    2.4261100   -2.4008380  
C    -6.3451590    3.8818330   -0.6778570  
O    -7.0022010    4.8319200   -1.0698830  
C    -5.4308920    3.9717100    0.4675050  
H    -3.4624260    3.3701660    2.6671670  
H    -5.7362560    0.4371850   -1.4631100  
H    -5.3342820    4.9360460    0.9573050  
H    -2.7757520    0.7709630    2.5286270  
