62


C     0.9290340    1.6281170   -0.0930800  
C    -0.4047190    1.2698140   -0.0338660  
C    -0.4935740   -0.1587250   -0.0253320  
C     0.8321550   -0.6390490   -0.0798500  
N     1.6904110    0.4531230   -0.0639630  
C     1.1840480   -2.0010560   -0.1663490  
C     0.1207430   -2.9031300   -0.2113490  
O     0.3683950   -4.2343400   -0.2618120  
C    -1.2301250   -2.4712200   -0.1436480  
O    -2.1106740   -3.4944230   -0.1715840  
C    -1.5814020   -1.0977340   -0.0195350  
H    -1.2109730    1.9819090    0.0199480  
H     2.6132840    0.4044040   -0.4790680  
H    -0.4989370   -4.6759340   -0.3298710  
H    -3.0371280   -3.0956580   -0.1687080  
C    -0.2853260    5.5369630   -1.9323560  
C    -0.2327040    4.2206460   -1.5516930  
C     0.9505840    4.0562400   -0.7549700  
C     1.5858610    5.3247400   -0.6965610  
N     0.8054920    6.2073720   -1.4143760  
C     2.7953220    5.5449180   -0.0281130  
C     3.3805980    4.4558920    0.5977380  
O     4.5539410    4.6136080    1.2770870  
C     2.7720380    3.1773930    0.5560090  
O     3.4843560    2.2077950    1.2419690  
C     1.5596380    2.9457640   -0.1055980  
H    -0.9407930    3.4551420   -1.8321920  
H     1.0157960    7.1820390   -1.5607200  
H     3.2783510    6.5155540    0.0172490  
H     4.7729790    3.7492450    1.6665970  
H     2.9183860    1.4275160    1.3771580  
H    -1.0136570    6.0576720   -2.5377880  
C     4.4443500   -1.5581830    2.7362310  
C     5.4443770   -2.1822260    2.0651600  
C     4.9048080   -2.6235520    0.7946140  
C     3.4874310   -2.1911140    0.7798280  
N     3.2794600   -1.5082860    1.9685990  
C     2.5897890   -2.4515150   -0.2156860  
C     3.1016850   -3.1939030   -1.3904850  
O     2.4253260   -3.4150560   -2.3778200  
C     4.6011870   -3.6728120   -1.3837070  
O     5.0101810   -4.3214780   -2.3332990  
C     5.4435890   -3.3198860   -0.2411950  
H     6.4579300   -2.3253390    2.4105300  
H     6.4759940   -3.6556170   -0.2508580  
H     4.4554010   -1.1072950    3.7199100  
H     2.3574320   -1.3208120    2.3356750  
C    -2.9587630   -0.7043240    0.1082510  
C    -3.5462430    0.5171170    0.3782190  
C    -4.9557740    0.3027360    0.3883710  
C    -5.1224790   -1.1621740    0.1009230  
N    -3.9621050   -1.7323540   -0.0526940  
C    -6.4106650   -1.7854610    0.0239910  
C    -7.4884510   -0.9885890    0.2290430  
O    -8.7518140   -1.4083880    0.1935840  
C    -7.3614040    0.5016800    0.5281310  
O    -8.4258630    1.1063820    0.6947110  
C    -6.0447070    1.0996640    0.5966410  
H    -3.0591110    1.4551270    0.5858250  
H    -6.5043390   -2.8444240   -0.1889120  
H    -9.2877140   -0.5990440    0.3798700  
H    -5.9819080    2.1615380    0.8110530  
