58


C     1.8114330    0.2633840    0.3784990  
C     3.1596520    0.4337890    0.3721770  
C     3.4292770    1.8474150    0.1464130  
C     2.1074250    2.5027780    0.0359340  
N     1.1394960    1.4747300    0.1664690  
C     1.9515830    3.8311070   -0.1677970  
C     3.1549910    4.6679190   -0.2903420  
O     3.0927150    5.8734940   -0.4576330  
C     4.5581300    3.9808800   -0.2088280  
O     5.5682690    4.6523500   -0.3283220  
C     4.5932850    2.5303610    0.0160670  
H     0.9797360    4.2970080   -0.2490040  
H     5.5671040    2.0537070    0.0583160  
H     1.2486010   -0.6442330    0.5294330  
C    -0.2323270    1.5659170    0.1073910  
C    -1.1464880    0.5317260    0.1952090  
C    -2.4184930    1.1621430    0.0800450  
C    -2.0992590    2.6259620   -0.0801370  
N    -0.8087520    2.8410120   -0.0593600  
C    -3.1129950    3.6193610   -0.2465780  
C    -4.3981190    3.1864990   -0.2589350  
O    -5.4531730    3.9838880   -0.3947370  
C    -4.7697310    1.7193860   -0.0896200  
O    -5.9752010    1.4779460   -0.0390580  
C    -3.7154120    0.7082920    0.0507230  
H    -0.9654300   -0.5246020    0.3163810  
H    -2.8498300    4.6649100   -0.3583580  
H    -6.2376160    3.3870150   -0.3409030  
C    -3.0002200   -2.6161290    2.9824180  
C    -2.9556460   -1.3999700    2.3852830  
C    -3.7418540   -1.5473100    1.1659640  
C    -4.2002650   -2.9729040    1.2045290  
N    -3.7633900   -3.5890950    2.2663940  
C    -5.0398560   -3.5300950    0.1773080  
C    -5.4107000   -2.7194810   -0.8404010  
O    -6.1813590   -3.1068220   -1.8678840  
C    -4.9505510   -1.2885650   -0.9267320  
O    -5.2538480   -0.6601500   -1.9353930  
C    -4.1098620   -0.7040560    0.1665130  
H    -2.4600890   -0.5039060    2.7294150  
H    -5.3532730   -4.5664270    0.2349290  
H    -6.2482790   -2.3257260   -2.4593790  
H    -2.5403330   -2.9129950    3.9178670  
C     5.2556500   -0.4461590    1.3754170  
C     5.9918150   -1.5806430    1.3693890  
C     5.3381450   -2.5230080    0.4846400  
C     4.1326990   -1.8348650   -0.0373200  
N     4.1307390   -0.5573490    0.5353470  
C     3.2602640   -2.3890640   -0.9141580  
C     3.5110860   -3.7554630   -1.3785320  
O     2.7809340   -4.3240190   -2.1734950  
C     4.7718140   -4.5080800   -0.8228230  
O     4.9874400   -5.6528970   -1.1838630  
C     5.6453650   -3.7923240    0.1136550  
H     6.8984910   -1.7557900    1.9302270  
H     2.3917560   -1.8743930   -1.3096130  
H     6.5248920   -4.3127000    0.4801980  
H     5.4063650    0.4698980    1.9293830  
