62


C     4.0007760   -0.1069780   -0.0174390  
C     4.7792160    1.0479700    0.0549520  
C     3.8932750    2.1553840    0.1777270  
C     2.5690830    1.6305740    0.1806610  
N     2.6698800    0.2682570    0.0521420  
C     1.4112500    2.4433880    0.2594240  
C     1.6607410    3.8139150    0.3220560  
O     0.6041120    4.6995670    0.3774720  
C     2.9716920    4.3549130    0.3304130  
O     2.9955630    5.7347310    0.4068100  
C     4.0883670    3.5495200    0.2646480  
H     5.8574580    1.0916730    0.1153650  
H     1.9225800   -0.4122530    0.1316320  
H     0.9827550    5.5946340    0.4540710  
H     3.9106050    6.0433370    0.4807560  
H     5.0868760    3.9809520    0.2659830  
C    -0.5194510   -0.8126840    2.6741600  
C     0.3416170    0.1393600    2.1954890  
C    -0.3145240    0.7865910    1.0926520  
C    -1.5866910    0.1791880    0.9562590  
N    -1.6751240   -0.7984770    1.9196660  
C    -2.5795040    0.6096730    0.0364540  
C    -2.2183000    1.7238890   -0.7474270  
O    -3.0491270    2.2116910   -1.6906360  
C    -0.9363510    2.3294200   -0.6366770  
O    -0.7383250    3.3631360   -1.5313990  
C     0.0450000    1.8683740    0.2396380  
H     1.3229470    0.3602000    2.5886640  
H    -2.5172070   -1.3183120    2.1163680  
H    -2.5733700    2.9709750   -2.0839850  
H    -0.3484660    4.1137350   -1.0343740  
H    -0.4019320   -1.5155100    3.4862720  
C    -3.8648490   -0.0506930   -0.0570290  
C    -4.1512780   -1.3790290    0.1747380  
C    -5.5708200   -1.5172650   -0.0064750  
C    -6.0316620   -0.1262900   -0.3331430  
N    -5.0446000    0.7177260   -0.3715500  
C    -7.4232230    0.1694190   -0.5654600  
C    -8.2995720   -0.8596020   -0.5059000  
O    -9.6205020   -0.7445330   -0.7071840  
C    -7.8607340   -2.2767820   -0.1986580  
O    -8.7474590   -3.1351580   -0.1687930  
C    -6.4495020   -2.5512380    0.0497630  
H    -3.4486850   -2.1854980    0.3351150  
H    -7.7333280    1.1839470   -0.7895780  
H    -9.9687810   -1.6595020   -0.5964700  
H    -6.1721570   -3.5763090    0.2758080  
C     7.7051890   -1.9664030   -1.4743650  
C     7.4227570   -3.2674920   -1.2084250  
C     6.0923240   -3.3133950   -0.6405520  
C     5.6259360   -1.9139370   -0.5789000  
N     6.6643690   -1.1384880   -1.0613850  
C     4.3926530   -1.5003970   -0.1307920  
C     3.4508650   -2.5901810    0.2059320  
O     2.2648080   -2.4014140    0.4419350  
C     3.9712490   -4.0767650    0.2569380  
O     3.2080930   -4.9328500    0.6786150  
C     5.3175230   -4.3522830   -0.2155310  
H     8.0661710   -4.1160760   -1.3899070  
H     5.6582030   -5.3826080   -0.2205180  
H     8.5905300   -1.5315970   -1.9192520  
H     6.5285040   -0.1872540   -1.3734110  
