62


C     1.5814230   -0.4264300   -0.0265340  
C     2.8090900    0.2036810    0.0756510  
C     2.5382280    1.6275090    0.0990730  
C     1.1357100    1.7807310    0.0009550  
N     0.5700050    0.5068670   -0.0723490  
C     0.5022540    3.0268260    0.0232390  
C     1.3062870    4.1482530    0.1488810  
O     0.7431790    5.3882700    0.1728980  
C     2.7162720    4.0168270    0.2658950  
O     3.3763320    5.2194490    0.4036220  
C     3.3361510    2.7803000    0.2469880  
H    -0.5723420    3.1363380   -0.0612170  
H     1.4642890    6.0346140    0.2659660  
H     4.3282570    5.0644280    0.4948920  
H     4.4130680    2.7072890    0.3773560  
H     1.3553200   -1.4772200   -0.1394200  
C    -1.9535370   -1.6667510    2.7252590  
C    -3.1176230   -1.6045070    2.0014560  
C    -2.8419460   -0.8530790    0.8028790  
C    -1.4694130   -0.5027050    0.8651570  
N    -0.9571960   -0.9987620    2.0432450  
C    -0.8148700    0.1992280   -0.1614610  
C    -1.5720430    0.5331000   -1.2793810  
O    -1.0031520    1.1814990   -2.3226210  
C    -2.9554550    0.2068700   -1.3538760  
O    -3.5430830    0.6396620   -2.5133990  
C    -3.6274780   -0.4544600   -0.3217360  
H    -4.0492340   -2.0797850    2.2721590  
H    -0.0039610   -0.8814570    2.3514580  
H    -1.7131140    1.2730440   -2.9896420  
H    -4.1508630   -0.0803370   -2.8169860  
H    -1.7461010   -2.1465560    3.6710720  
C    -6.7320570    0.3170320    2.6887970  
C    -7.8181270   -0.2029540    2.0649500  
C    -7.3772630   -0.6869690    0.7730130  
C    -5.9186910   -0.4086020    0.7004680  
N    -5.6002310    0.2141380    1.8821860  
C    -5.0888540   -0.7101130   -0.3582140  
C    -5.7674290   -1.2539390   -1.5324880  
O    -5.2272860   -1.3962050   -2.6319280  
C    -7.2835820   -1.6649340   -1.4433180  
O    -7.7759980   -2.2583450   -2.3878630  
C    -8.0345980   -1.2967490   -0.2471030  
H    -8.8276010   -0.2381320    2.4473200  
H    -9.0904580   -1.5447100   -0.2104630  
H    -6.6527600    0.7798030    3.6634890  
H    -4.6537130    0.4170570    2.1699810  
C     4.0846120   -0.4678490    0.1127360  
C     4.4169040   -1.7266580    0.5501110  
C     5.8211150   -1.9297850    0.3284290  
C     6.3203240   -0.6776830   -0.2930180  
N     5.2410690    0.1932750   -0.3411380  
C     7.5945850   -0.4854990   -0.7110740  
C     8.5628890   -1.5624400   -0.5074580  
O     9.7333530   -1.4712630   -0.8456200  
C     8.0678880   -2.8822350    0.1903640  
O     8.8732900   -3.7846950    0.3760590  
C     6.6641660   -2.9736230    0.5753910  
H     3.7441220   -2.4223350    1.0312900  
H     7.9404230    0.4332130   -1.1756520  
H     6.3290000   -3.8972660    1.0376730  
H     5.1874800    0.9520570   -1.0062480  
