58


C    -2.3744130    1.6564910    2.6665490  
C    -1.1968070    1.3478980    2.0618050  
C    -1.5107920    0.5897170    0.8670640  
C    -2.9869760    0.4877160    0.8230550  
N    -3.4469240    1.1468140    1.9485610  
C    -3.7136130   -0.1462050   -0.1451580  
C    -2.9461820   -0.7426320   -1.2561660  
O    -3.4780800   -1.2273620   -2.2384690  
C    -1.3790830   -0.7173860   -1.1915930  
O    -0.7557110   -1.3593160   -2.0169530  
C    -0.7138760    0.0341800   -0.0999190  
H    -0.2112370    1.6387710    2.3929110  
H    -2.5525550    2.2186130    3.5738480  
H    -4.4212070    1.2620120    2.1799980  
C    -6.9994760    2.8741160   -0.1911500  
C    -5.7867840    2.2601610   -0.1740860  
C    -6.0270510    0.8307310   -0.1490960  
C    -7.5011080    0.6636810   -0.1569630  
N    -8.0290000    1.9424980   -0.1558420  
C    -8.1501530   -0.5283740   -0.1854190  
C    -7.3500060   -1.7459480   -0.1984600  
O    -7.8339550   -2.8655740   -0.2526050  
C    -5.7875210   -1.6050510   -0.1153630  
O    -5.1185170   -2.6107690    0.0359030  
C    -5.1812400   -0.2470440   -0.1496590  
H    -4.8241890    2.7477490   -0.2116230  
H    -9.2313650   -0.6205860   -0.2175410  
H    -7.2311450    3.9304610   -0.2288360  
H    -9.0093590    2.1564180   -0.2533880  
C     2.2797600   -1.4439860    2.7727430  
C     3.4185230   -1.0500760    2.1439120  
C     3.0269040   -0.3850670    0.9164820  
C     1.5472630   -0.4176600    0.8892720  
N     1.1592630   -1.0740360    2.0424590  
C     0.7560150    0.0999170   -0.0970370  
C     1.4500760    0.7738940   -1.2098900  
O     0.8576230    1.3712130   -2.0908710  
C     3.0187510    0.7580360   -1.2420280  
O     3.5794240    1.1665570   -2.2416850  
C     3.7604130    0.1951100   -0.0857560  
H     4.4276770   -1.1871970    2.5017020  
H     2.1606820   -1.9667570    3.7126430  
H     0.2017490   -1.2746850    2.2860890  
C     6.8315610   -2.9766050   -0.0985000  
C     7.9496140   -2.2080440   -0.1484840  
C     7.5218550   -0.8242540   -0.1485890  
C     6.0399650   -0.8521960   -0.0870190  
N     5.6873240   -2.1872670   -0.0384210  
C     5.2307500    0.2482120   -0.1082730  
C     5.9028060    1.5652830   -0.1491660  
O     5.2913400    2.6157350   -0.0653210  
C     7.4717930    1.6115360   -0.2375670  
O     8.0212710    2.6992080   -0.3127730  
C     8.2075080    0.3485340   -0.2157040  
H     8.9701290   -2.5598750   -0.1880260  
H     9.2906920    0.3928440   -0.2747600  
H     6.7387800   -4.0546860   -0.0938390  
H     4.7386980   -2.5248120   -0.0933030  
