60


C    -3.7517730    0.2354150   -0.0061450  
C    -4.3281280    1.5057330   -0.0269240  
C    -3.2771250    2.4570610   -0.0972850  
C    -2.0539490    1.7249870   -0.1213360  
N    -2.3711900    0.3956000   -0.0602680  
C    -0.7892220    2.3549600   -0.1583280  
C    -0.7948570    3.7513640   -0.2044130  
O     0.3802420    4.4229000   -0.3099660  
C    -2.0105730    4.4903400   -0.1941980  
O    -1.8191440    5.8555870   -0.2529880  
C    -3.2386730    3.8679360   -0.1368480  
H    -5.3849050    1.7230790   -0.0525830  
H    -1.7523300   -0.4010540   -0.1573800  
H     0.1778040    5.3746830   -0.2802920  
H    -2.6745020    6.3084640   -0.2145590  
H    -4.1559760    4.4527580   -0.1261200  
C     1.0699810   -0.8707320   -2.6471990  
C     0.1992250    0.0576900   -2.1879880  
C     0.8366950    0.6292840   -1.0055510  
C     2.1377080   -0.1014060   -0.9111830  
N     2.2674990   -0.9695680   -1.8712610  
C     3.1068240    0.1730320    0.1381090  
C     2.7645180    1.1453150    1.0264380  
O     3.5590170    1.5480370    2.0266930  
C     1.4480750    1.8757100    0.9753450  
O     1.2173940    2.6552960    1.8935380  
C     0.4804320    1.6050030   -0.1314840  
H    -0.7640820    0.3293300   -2.5944370  
H     3.0292350    2.2072120    2.5289490  
H     0.9615820   -1.5196950   -3.5075920  
C     6.6531590   -0.5745450   -2.5096920  
C     5.4453580   -0.1475410   -2.0767940  
C     5.3107990   -0.6866420   -0.7267370  
C     6.5872910   -1.4396370   -0.5126980  
N     7.3681990   -1.3663100   -1.5513610  
C     6.8708610   -2.1211320    0.7240990  
C     5.9373370   -2.0614690    1.6995870  
O     6.0565850   -2.6574440    2.8984780  
C     4.6391040   -1.3200010    1.5176000  
O     3.8293420   -1.3800760    2.4383060  
C     4.3722310   -0.5795060    0.2462160  
H     4.7120790    0.4408230   -2.6068720  
H     7.8036900   -2.6602130    0.8462980  
H     5.2173070   -2.4579400    3.3689290  
H     7.1201150   -0.3888460   -3.4697080  
C    -7.8037780   -1.2306560    1.1621730  
C    -6.6887280   -0.4716800    0.9847010  
C    -5.6703030   -1.3173240    0.4043030  
C    -6.2852910   -2.6526730    0.2675700  
N    -7.5851500   -2.5262490    0.7147580  
C    -5.6695730   -3.7687400   -0.2160750  
C    -4.2817820   -3.6567040   -0.5996890  
O    -3.6168880   -4.5704260   -1.0671210  
C    -3.5684300   -2.2679800   -0.3899540  
O    -2.3569980   -2.2367850   -0.5638850  
C    -4.3631510   -1.0764990    0.0163170  
H    -6.5788830    0.5595360    1.2783230  
H    -6.1690630   -4.7253330   -0.3302780  
H    -8.7611160   -0.9578360    1.5854110  
H    -8.2384200   -3.2897660    0.7927640  
