60


C     1.5275800   -1.1618010   -1.1752870  
C     2.5262030   -0.9622010   -0.2510870  
C     2.1795940    0.2047440    0.5189770  
C     0.9432300    0.6668850    0.0098960  
N     0.5687340   -0.1868530   -1.0092640  
C     0.3031830    1.8323960    0.4924090  
C     0.9485780    2.5036920    1.5346780  
O     0.3647320    3.5934790    2.0923650  
C     2.1830540    2.0363420    2.0608270  
O     2.6644810    2.8116920    3.0923900  
C     2.8034760    0.9050160    1.5699580  
H    -0.2699110   -0.0926420   -1.5618090  
H     0.9875450    3.9579720    2.7463050  
H     3.5645810    2.5363800    3.3226080  
H     3.7502940    0.5667900    1.9826380  
H     1.4315120   -1.9225050   -1.9364020  
C    -3.7814030    0.1074610   -0.1999900  
C    -2.4737310    0.2550490    0.1841160  
C    -2.0992100    1.5979000   -0.2103260  
C    -3.3340440    2.1453400   -0.8438150  
N    -4.3079030    1.2809670   -0.8375260  
C    -3.3867210    3.4841670   -1.3704940  
C    -2.2731870    4.2437800   -1.2591070  
O    -2.1790710    5.5065140   -1.7000780  
C    -0.9972230    3.7159970   -0.6502050  
O    -0.0146620    4.4471280   -0.6982190  
C    -0.9586070    2.3318700   -0.0793170  
H    -1.8696170   -0.4437730    0.7439630  
H    -4.2984160    3.8552580   -1.8247810  
H    -1.2516030    5.7790120   -1.5234740  
C    -3.1090320   -4.3018100   -0.3948260  
C    -2.8865260   -2.9619560   -0.4242590  
C    -4.1737240   -2.3556320   -0.1277730  
C    -5.0890880   -3.5303420    0.0413980  
N    -4.4574090   -4.6615260   -0.1134910  
C    -6.4891260   -3.3685860    0.3185000  
C    -6.9658410   -2.1066560    0.4256910  
O    -8.2447900   -1.8083350    0.6920170  
C    -6.0745050   -0.8944580    0.2944670  
O    -6.5923030    0.1932130    0.5143250  
C    -4.6220240   -1.0692470   -0.0319400  
H    -1.9589820   -2.4487560   -0.6292620  
H    -7.1245690   -4.2392180    0.4363200  
H    -8.2788190   -0.8272910    0.7499020  
H    -2.3905880   -5.0953260   -0.5662030  
C     3.6444220   -3.1183930    0.3389690  
C     4.8946130   -3.6388060    0.4175080  
C     5.8196000   -2.5913520    0.0412790  
C     4.9878660   -1.4030350   -0.2757010  
N     3.6628560   -1.7812770   -0.0750440  
C     5.4830230   -0.2071550   -0.6848230  
C     6.9316520   -0.0633090   -0.8083500  
O     7.4694120    0.9770210   -1.1567630  
C     7.8335570   -1.3075020   -0.4704920  
O     9.0465580   -1.2020540   -0.5660980  
C     7.1752580   -2.5472340   -0.0518420  
H     5.1535180   -4.6453270    0.7126360  
H     4.8556820    0.6450090   -0.9227800  
H     7.8064220   -3.4020470    0.1719380  
H     2.6887750   -3.5789510    0.5519230  
