60


C    -3.2939850    1.6909800    0.6867480  
C    -3.9357640    0.6269710    0.0734780  
C    -2.9298480   -0.0546050   -0.7129530  
C    -1.7208010    0.6553860   -0.5474510  
N    -1.9794290    1.7124260    0.3043720  
C    -0.4885680    0.2616840   -1.1250690  
C    -0.5262790   -0.9149920   -1.8907400  
O     0.5787150   -1.3618510   -2.5388650  
C    -1.7370000   -1.6411210   -2.0533850  
O    -1.5929290   -2.7678810   -2.8345440  
C    -2.9264460   -1.2332820   -1.4825170  
H    -1.2734460    2.3463970    0.6493260  
H     0.3119680   -2.1567770   -3.0357270  
H    -2.4515940   -3.1983610   -2.9608830  
H    -3.8293210   -1.8240750   -1.6085220  
H    -3.6957740    2.4650630    1.3250230  
C     0.7254220    1.0417130   -0.9244970  
C     0.8548300    2.4016480   -0.8222440  
C     2.2642170    2.6508560   -0.6147690  
C     2.8791090    1.2859440   -0.5816600  
N     1.9827150    0.3633240   -0.7620440  
C     4.3114310    1.0683510   -0.3722390  
C     5.0599560    2.2114720   -0.2919350  
O     6.4014360    2.2227580   -0.1918580  
C     4.4695600    3.5882410   -0.3288790  
O     5.2483520    4.5407090   -0.2377070  
C     3.0196770    3.7614800   -0.4862530  
H     0.0944940    3.1546140   -0.9813710  
H     6.6443490    3.1764360   -0.1489530  
H     2.6359120    4.7767820   -0.5039890  
C     4.2755740   -1.3740700   -0.9441460  
C     4.8377250   -0.2947080   -0.3062170  
C     5.9753600   -0.8190880    0.4565160  
C     6.0299610   -2.2756610    0.1680620  
N     4.9822080   -2.5317950   -0.6953370  
C     6.9336750   -3.1447590    0.6855420  
C     7.9301170   -2.6340990    1.6204360  
O     8.7855990   -3.3363960    2.1374220  
C     7.8729560   -1.1069370    1.9781090  
O     8.6801360   -0.6562750    2.7760780  
C     6.8492260   -0.2702620    1.3410430  
H     6.9412530   -4.2048790    0.4506580  
H     6.8469500    0.7819100    1.5917690  
H     3.3863030   -1.3942180   -1.5568410  
H     4.7301280   -3.4461950   -1.0372660  
C    -5.3338300    0.2971530    0.2040980  
C    -6.1704340   -0.3855390   -0.6425410  
C    -7.4764760   -0.4433120   -0.0418260  
C    -7.3579890    0.2600970    1.2593190  
N    -6.0576280    0.7380830    1.3267430  
C    -8.3623460    0.3758790    2.1612800  
C    -9.6654760   -0.1979640    1.8275670  
O   -10.6270010   -0.1384730    2.5782790  
C    -9.8273840   -0.9085390    0.4337250  
O   -10.9149710   -1.3824510    0.1376280  
C    -8.6619300   -0.9816030   -0.4438860  
H    -5.9136000   -0.7447650   -1.6282410  
H    -8.2564260    0.8869450    3.1135490  
H    -8.7814340   -1.4875850   -1.3972410  
H    -5.6049630    0.9494490    2.2048050  
