60


C    -1.7072510   -0.3266090    0.1663010  
C    -1.1033490    0.9176920    0.2042080  
C    -2.1573320    1.8825010   -0.0629020  
C    -3.3488580    1.1507770   -0.2782590  
N    -3.0550990   -0.2061200   -0.1111200  
C    -4.5751300    1.7535440   -0.5748040  
C    -4.5970830    3.1355960   -0.6693980  
O    -5.7628490    3.7804260   -0.9520880  
C    -3.4110540    3.8892780   -0.4660800  
O    -3.5893300    5.2527150   -0.5865720  
C    -2.2042760    3.2856670   -0.1709100  
H    -5.4815540    1.1870510   -0.7502640  
H    -5.5686690    4.7336710   -0.9681980  
H    -2.7689770    5.7076470   -0.3439900  
H    -1.3210960    3.8861030    0.0172120  
H    -1.2760220   -1.3034480    0.3317360  
C     2.4534010   -1.3196910   -1.1790700  
C     1.2080050   -0.8181740   -1.0164150  
C     1.2900050    0.2825460   -0.0788750  
C     2.7165240    0.3922210    0.2919650  
N     3.3902810   -0.5993120   -0.4108220  
C     3.2225370    1.2969960    1.1833580  
C     2.3096410    2.2568170    1.7694060  
O     2.6509440    3.1213430    2.5650900  
C     0.7931420    2.1989080    1.3491010  
O     0.0498890    3.0497690    1.8074490  
C     0.3246240    1.1133150    0.4444090  
H     0.3175300   -1.1584930   -1.5220800  
H     4.2528670    1.2967850    1.5198660  
H     2.7980160   -2.1369360   -1.7934530  
C     6.8612620    2.0288250   -0.8738430  
C     7.8390550    1.1016970   -0.7198370  
C     7.1942740   -0.1806800   -0.5259700  
C     5.7367760    0.0894620   -0.5743970  
N     5.5980470    1.4369290   -0.8247320  
C     4.7742820   -0.8684090   -0.3988080  
C     5.2200780   -2.2598900   -0.2145200  
O     4.4397420   -3.1911800   -0.1012180  
C     6.7664840   -2.5536110   -0.1860720  
O     7.1268430   -3.7097710   -0.0366530  
C     7.6895430   -1.4357110   -0.3509050  
H     8.9041910    1.2782850   -0.7498950  
H     8.7533690   -1.6486530   -0.3256230  
H     6.9428340    3.0950030   -1.0379610  
H     4.7318220    1.9435400   -0.7027280  
C    -4.1201400   -2.9979540    3.0165150  
C    -4.9733620   -3.7932700    2.3225530  
C    -5.0601070   -3.2649990    0.9760370  
C    -4.1698130   -2.0797520    0.9502120  
N    -3.6191920   -1.9795160    2.2071020  
C    -3.9702460   -1.2839270   -0.1414610  
C    -4.6770400   -1.6286540   -1.3848020  
O    -4.5359210   -1.0091000   -2.4243320  
C    -5.6506890   -2.8679720   -1.3573980  
O    -6.2769320   -3.1321970   -2.3704480  
C    -5.7663910   -3.6442650   -0.1223010  
H    -5.4944180   -4.6604250    2.7008380  
H    -6.4293360   -4.5036940   -0.1270800  
H    -3.8046970   -3.0634670    4.0492630  
H    -3.0182580   -1.2265130    2.5073140  
