60


C    -0.5672090    1.9619180    0.3929070  
C     0.7875370    1.6786480    0.3398020  
C     0.9411930    0.3055280   -0.0217280  
C    -0.3642210   -0.2114420   -0.1850360  
N    -1.2585160    0.8154580    0.0398850  
C    -0.6618450   -1.5600850   -0.4857740  
C     0.4410790   -2.4064770   -0.5945960  
O     0.2631380   -3.7224800   -0.8867400  
C     1.7729880   -1.9340680   -0.4476300  
O     2.6942280   -2.9056420   -0.6154280  
C     2.0707190   -0.5667290   -0.1951080  
H     1.5633560    2.4010190    0.5368250  
H    -2.2436800    0.6696100    0.2057450  
H     1.1551430   -4.1172070   -0.9286280  
H     3.6031560   -2.4888180   -0.4662670  
C    -0.8266520    4.1416150    1.6281860  
C    -1.2586720    3.1872030    0.7482310  
C    -2.5456520    3.6549040    0.2375380  
C    -2.8157180    4.9531520    0.9052980  
N    -1.7224950    5.1969590    1.7138220  
C    -3.9300910    5.7013710    0.7085540  
C    -4.9400690    5.2146800   -0.2291330  
O    -5.9768990    5.8146740   -0.4631820  
C    -4.6634250    3.8566230   -0.9694880  
O    -5.4876850    3.4295980   -1.7625040  
C    -3.4170960    3.1447520   -0.6718920  
H    -4.1082580    6.6495240    1.2064040  
H    -3.2308020    2.2243340   -1.2149240  
H     0.0743670    4.1461760    2.2268370  
H    -1.6359400    5.9789430    2.3442880  
C    -2.9833170   -1.4137190   -1.4658760  
C    -2.0445440   -2.0194540   -0.6755950  
C    -2.7107830   -3.1724400   -0.0648830  
C    -4.1029720   -3.1707760   -0.5768070  
N    -4.1975630   -2.0779200   -1.4186440  
C    -5.0522600   -4.0812740   -0.2433440  
C    -4.6948150   -5.1407230    0.6951440  
O    -5.4779180   -6.0053730    1.0568480  
C    -3.2304110   -5.1521550    1.2668460  
O    -2.9130060   -6.0200280    2.0639040  
C    -2.2944470   -4.1120060    0.8207490  
H    -6.0654210   -4.0576810   -0.6327280  
H    -1.2822590   -4.1466290    1.2058210  
H    -2.8675120   -0.5489750   -2.1066770  
H    -5.0168180   -1.8269040   -1.9504280  
C     3.4331440   -0.1165250   -0.1315380  
C     3.9823100    1.1500000   -0.0473870  
C     5.3973260    0.9846480   -0.0271310  
C     5.6105560   -0.5000570   -0.1089230  
N     4.4680720   -1.1227340   -0.1746130  
C     6.9173890   -1.0864360   -0.1140020  
C     7.9700230   -0.2336210   -0.0469560  
O     9.2457370   -0.6136650   -0.0425790  
C     7.7965300    1.2799490    0.0319070  
O     8.8427930    1.9353600    0.0879230  
C     6.4620550    1.8383120    0.0372710  
H     3.4661630    2.0955420   -0.0479490  
H     7.0449680   -2.1616300   -0.1702660  
H     9.7562590    0.2311560    0.0126340  
H     6.3658090    2.9177400    0.0925870  
