62


C    -1.4917990    0.4897650    1.9548720  
C    -2.8318720    0.4444340    1.6941310  
C    -3.0011910   -0.1515950    0.3952230  
C    -1.7026450   -0.4639550   -0.0805800  
N    -0.7812600   -0.0421480    0.8807710  
C    -1.4772670   -1.1567820   -1.2737890  
C    -2.5956390   -1.5300170   -2.0036370  
O    -2.4509870   -2.2166440   -3.1668640  
C    -3.9095960   -1.2212500   -1.5614740  
O    -4.8921530   -1.6509340   -2.4190570  
C    -4.1445760   -0.5038790   -0.3820920  
H    -3.6096940    0.8022350    2.3522210  
H    -0.4892590   -1.4373390   -1.6195770  
H    -3.3589920   -2.4081930   -3.4725740  
H    -5.6091390   -2.0361050   -1.8620120  
H    -0.9523000    0.8833930    2.8041220  
C     1.4227440   -0.6825640    1.8131630  
C     0.6104380   -0.1890680    0.8447950  
C     1.5165860    0.3018390   -0.2079750  
C     2.8816200    0.0076590    0.3272230  
N     2.8029380   -0.5782630    1.4940400  
C     4.0945440    0.3397350   -0.4042230  
C     3.8951640    0.8690910   -1.6539170  
O     4.8867710    1.1508760   -2.5094910  
C     2.5404710    1.1941020   -2.1989950  
O     2.4713920    1.6884860   -3.3248470  
C     1.3345350    0.8903330   -1.4009750  
H     4.4452030    1.5282310   -3.3023220  
H     0.3681080    1.1159490   -1.8398400  
H     1.1305350   -1.1225660    2.7586630  
C     6.0564960   -3.1439330    1.5895040  
C     7.3156320   -2.6133140    1.6742860  
C     7.2406620   -1.2764240    1.1550270  
C     5.8969670   -1.0635000    0.7496560  
N     5.2026040   -2.2318200    0.9933630  
C     5.4493950    0.1426600    0.1588500  
C     6.4002690    1.1718950    0.0885300  
O     6.0420990    2.4082020   -0.3572220  
C     7.7426000    0.9688830    0.4976340  
O     8.5449160    2.0863220    0.3346790  
C     8.1789290   -0.2382800    1.0038590  
H     8.1966200   -3.1113070    2.0558190  
H     4.2002310   -2.2151600    1.1377110  
H     6.8502480    2.9503360   -0.3659900  
H     9.4419900    1.8838930    0.6376370  
H     9.2179470   -0.3720250    1.2991370  
H     5.6877710   -4.1130090    1.8960330  
C    -5.8440970    3.3839470    0.9176480  
C    -5.0541000    2.3966930    0.4196600  
C    -5.8139420    1.1677540    0.4605840  
C    -7.1370910    1.5290550    1.0301520  
N    -7.0804300    2.8802190    1.3058830  
C    -8.1606220    0.6614160    1.2400810  
C    -7.9570000   -0.7185150    0.8406630  
O    -8.7769090   -1.6064340    1.0128670  
C    -6.6109720   -1.0867950    0.1107920  
O    -6.5680700   -2.1940220   -0.4232440  
C    -5.5027670   -0.1165930    0.0661410  
H    -4.0461970    2.5074210    0.0529810  
H    -9.1016570    0.9375930    1.7045100  
H    -5.6322060    4.4385670    1.0339060  
H    -7.8539110    3.4285810    1.6476900  
