64


C    -0.6769570    0.5827810    1.6770820  
C    -1.8406920   -0.0672780    1.3598960  
C    -2.2406330    0.3803350    0.0502580  
C    -1.2532900    1.3030530   -0.3793880  
N    -0.3070150    1.4210390    0.6339300  
C    -1.2648850    1.9024180   -1.6421490  
C    -2.2920800    1.5367090   -2.4955880  
O    -2.3596390    2.0576080   -3.7498330  
C    -3.3037140    0.6194040   -2.0956460  
O    -4.2566380    0.4002350   -3.0588740  
C    -3.3288910    0.0548710   -0.8164110  
H    -2.3327480   -0.8055480    1.9770040  
H    -0.5038610    2.6026410   -1.9664870  
H    -3.1315200    1.6294140   -4.1684970  
H    -4.4737720   -0.5631920   -3.0374910  
H    -0.0680400    0.5359970    2.5687910  
C     3.8961760    0.2265320    0.3423750  
C     4.4145430    1.5002520    0.3814440  
C     3.3225550    2.4251310    0.4994110  
C     2.1380780    1.6534910    0.5324140  
N     2.4955480    0.3125940    0.4963440  
C     0.8608290    2.2286370    0.6086700  
C     0.7837400    3.6215110    0.6623240  
O    -0.4297210    4.2318210    0.7405470  
C     1.9677530    4.4020350    0.6397450  
O     1.7287000    5.7602970    0.7077380  
C     3.2248440    3.8281190    0.5665530  
H     5.4678270    1.7427510    0.3787230  
H     1.8745290   -0.3894130    0.1106450  
H    -0.2675080    5.1915340    0.7301990  
H     2.5654000    6.2426270    0.6338280  
H     4.1147480    4.4535330    0.5485030  
C     7.4860300   -1.1621150   -1.9649690  
C     6.4639750   -0.4097260   -1.4463500  
C     5.7215740   -1.2578680   -0.5565500  
C     6.3472610   -2.5318030   -0.5849540  
N     7.4227290   -2.4408220   -1.4448650  
C     5.8780600   -3.6305720    0.1442960  
C     4.7485670   -3.4380790    0.9231310  
O     4.2532860   -4.4684120    1.6689420  
C     4.1015590   -2.1778650    0.9702360  
O     3.0011020   -2.1553370    1.8079140  
C     4.5619560   -1.0732570    0.2461090  
H     6.2532990    0.6219390   -1.6861620  
H     8.0474080   -3.1971490   -1.6753940  
H     6.3582030   -4.6035220    0.1233220  
H     3.4901290   -4.1191160    2.1615510  
H     2.7285020   -1.2314270    1.9490440  
H     8.2607100   -0.8936760   -2.6693130  
C    -5.6730020    0.2473160    2.8786870  
C    -6.4637680   -0.8468720    2.7329520  
C    -6.1336710   -1.4445520    1.4566390  
C    -5.0626360   -0.6000890    0.8686670  
N    -4.8478400    0.4145710    1.7723820  
C    -4.4402340   -0.8052630   -0.3429910  
C    -4.9950360   -1.9033390   -1.1345490  
O    -4.7046040   -2.1122730   -2.3141150  
C    -6.0522700   -2.8800700   -0.4941850  
O    -6.3794080   -3.8693250   -1.1297850  
C    -6.6062550   -2.5440480    0.8111760  
H    -7.2114770   -1.2001180    3.4277620  
H    -7.3634190   -3.1992670    1.2296360  
H    -5.6256160    0.9582320    3.6930040  
H    -4.0883030    1.0763790    1.6965170  
