60


C    -0.6642100    1.5419280    0.3663420  
C    -1.6230300    0.5510120    0.3642650  
C    -0.9669510   -0.7091960    0.2535540  
C     0.4784280   -0.4157540    0.2224650  
N     0.5989450    0.9446530    0.2718180  
C     1.4824650   -1.3642600    0.1373570  
C     1.0191720   -2.7539570    0.2271880  
O     1.7665930   -3.7228440    0.2862760  
C    -0.5237790   -3.0703750    0.2802970  
O    -0.8122970   -4.2598390    0.4219960  
C    -1.4990010   -1.9893900    0.1799680  
H    -2.6835150    0.6754510    0.5006510  
H     1.4378110    1.4752730    0.4813060  
C    -4.0758670    4.1175710   -0.6578830  
C    -3.5683640    5.3167580   -0.2854610  
C    -2.2203740    5.0798290    0.1896550  
C    -1.9943380    3.6197110    0.0831830  
N    -3.1533280    3.0928580   -0.4182830  
C    -0.8158360    2.9757290    0.4221980  
C     0.3139360    3.8441570    0.7936280  
O     1.4569470    3.4317470    0.9511630  
C     0.0599280    5.3796080    0.9963590  
O     0.9705030    6.0668710    1.4235260  
C    -1.2544430    5.9196960    0.6477880  
H    -4.0640990    6.2747080   -0.3406470  
H    -1.4055360    6.9891280    0.7558310  
H    -5.0425200    3.8731430   -1.0766620  
H    -3.2519080    2.1457390   -0.7683630  
C     2.8892940   -1.0508720   -0.0202000  
C     3.5105750    0.1349200   -0.3713280  
C     4.9257610   -0.0995850   -0.4113470  
C     5.1166650   -1.5279690   -0.0575960  
N     3.8595520   -2.0346800    0.1772110  
C     6.3242830   -2.1460330    0.0018170  
C     7.5200270   -1.3650730   -0.2981670  
O     8.6480110   -1.8351950   -0.2717530  
C     7.3412200    0.1525560   -0.6736250  
O     8.3337440    0.8194850   -0.9294610  
C     5.9880270    0.7048500   -0.7030160  
H     3.0368360    1.0640200   -0.6471250  
H     6.4449170   -3.1931780    0.2611550  
H     5.8758360    1.7534310   -0.9619660  
H     3.6038950   -3.0007630    0.3394460  
C    -4.5444560   -0.1318360   -2.5685500  
C    -3.3749210   -0.5037340   -1.9473340  
C    -3.7122880   -1.4588600   -0.9241410  
C    -5.1187540   -1.6322110   -0.9900720  
N    -5.5996590   -0.7967570   -1.9807040  
C    -5.8193630   -2.5366870   -0.1860510  
C    -5.0689280   -3.3079400    0.6858840  
O    -5.6775670   -4.2222780    1.4825420  
C    -3.6553000   -3.1696880    0.7764400  
O    -3.0955130   -3.9928240    1.7160410  
C    -2.9484260   -2.2237150    0.0189810  
H    -2.3864190   -0.1708290   -2.2272480  
H    -6.5560240   -0.7705910   -2.2986840  
H    -6.8945000   -2.6718180   -0.2434410  
H    -4.9586970   -4.6666810    1.9730370  
H    -2.2375290   -4.3203110    1.3499510  
H    -4.7073670    0.5326240   -3.4057560  
