58


C     2.1014490   -0.2899930    0.6802740  
C     3.4068910   -0.1096300    0.3443720  
C     3.5222800    1.2782980   -0.1126700  
C     2.1500240    1.8436940   -0.0743990  
N     1.3191690    0.8487310    0.4531510  
C     1.8191650    3.0869910   -0.5084640  
C     2.8807900    3.9557770   -1.0131450  
O     2.6707260    5.0888980   -1.4175470  
C     4.3449390    3.3945880   -1.0208680  
O     5.2484000    4.1066960   -1.4258300  
C     4.5692250    2.0200680   -0.5513290  
H     0.8041200    3.4669840   -0.5291680  
H     5.5843820    1.6421780   -0.5640100  
H     1.6313330   -1.1667850    1.0987540  
C    -1.7719470    3.4780550    2.0343890  
C    -2.8633530    2.8514220    1.5253020  
C    -2.4011090    1.6967840    0.7808210  
C    -0.9322250    1.7073740    0.9074960  
N    -0.6095280    2.8045490    1.6639950  
C    -0.0856100    0.7737230    0.3596820  
C    -0.6878690   -0.3414710   -0.3525520  
O    -0.0528300   -1.2745110   -0.8354430  
C    -2.2583380   -0.3736860   -0.5012490  
O    -2.7324220   -1.3110710   -1.1164290  
C    -3.0757260    0.7130570    0.0898650  
H    -3.8911400    3.1394760    1.6828860  
H    -1.7072120    4.3602110    2.6563440  
H     0.3324810    3.0871230    1.8909800  
C    -5.2128380    1.8805820   -0.5029750  
C    -4.5154990    0.7533220   -0.1501720  
C    -5.5090910   -0.3254690   -0.0599830  
C    -6.8193080    0.2904770   -0.3836560  
N    -6.5609680    1.6270190   -0.6396340  
C    -8.0064270   -0.3640500   -0.4063630  
C    -8.0188990   -1.7855430   -0.0706640  
O    -9.0355480   -2.4609930   -0.0633480  
C    -6.6511340   -2.4569650    0.3075450  
O    -6.6355510   -3.6356120    0.6207430  
C    -5.4307050   -1.6375510    0.2744460  
H    -8.9487480    0.1165990   -0.6506600  
H    -4.4953120   -2.1337610    0.5018440  
H    -4.8265660    2.8720130   -0.6991020  
H    -7.2463620    2.2923640   -0.9637380  
C     2.9898330   -4.1919560   -1.1268200  
C     4.2266320   -4.6761920   -0.8438770  
C     4.9773930   -3.6005410   -0.2333370  
C     4.0584770   -2.4364220   -0.1779930  
N     2.8668090   -2.8658880   -0.7239050  
C     4.3893000   -1.1955920    0.3133640  
C     5.7631420   -1.0234600    0.8061820  
O     6.1801590    0.0364390    1.2495810  
C     6.7433860   -2.2544780    0.7705050  
O     7.8789690   -2.1032870    1.1927780  
C     6.2555600   -3.5188640    0.2265310  
H     4.5887050   -5.6744710   -1.0412740  
H     6.9445370   -4.3573110    0.1990660  
H     2.1465930   -4.6850590   -1.5920730  
H     2.0491180   -2.2869930   -0.8826850  
