58


C    -1.6866200    0.2934250    1.7999940  
C    -0.4648610    0.8089500    1.5409640  
C    -0.5930960    1.7232410    0.4201200  
C    -2.0213350    1.7067760    0.0284370  
N    -2.6381330    0.8120790    0.9009530  
C    -2.5873340    2.4475460   -0.9536730  
C    -1.7164990    3.3328850   -1.7154960  
O    -2.1187790    4.0759820   -2.5956120  
C    -0.1812180    3.3228010   -1.3852960  
O     0.5683780    3.9414170   -2.1171560  
C     0.3091760    2.5282340   -0.2217550  
H     0.4535750    0.5346990    2.0336690  
H    -3.6461770    2.4231330   -1.1875570  
H    -2.0052560   -0.4275960    2.5401610  
C     3.4615310   -0.5529620    0.2309370  
C     4.5703240    0.2246080    0.4007880  
C     4.0902300    1.5921340    0.4105540  
C     2.6109230    1.4646370    0.1989940  
N     2.2528850    0.2199860    0.0996590  
C     1.7410570    2.6282720    0.1154100  
C     2.3461410    3.8374810    0.3122260  
O     1.6831170    4.9958260    0.3492860  
C     3.8278450    3.9879980    0.5453490  
O     4.2610530    5.1273980    0.7056780  
C     4.6833650    2.7927050    0.5727820  
H     5.5882720   -0.1017320    0.5604240  
H     2.3682380    5.6914770    0.4695850  
H     5.7477660    2.9407630    0.7261060  
C     5.9230690   -3.7363110   -1.6901620  
C     5.4708290   -2.5169450   -1.3032520  
C     4.2977530   -2.7890200   -0.4878320  
C     4.1840890   -4.2842050   -0.5087830  
N     5.1390740   -4.8288840   -1.2071500  
C     3.1184570   -4.9721030    0.1674590  
C     2.2072580   -4.2230080    0.8304690  
O     1.1718950   -4.7343760    1.5128160  
C     2.3001200   -2.7192680    0.8998370  
O     1.4793130   -2.1461870    1.6100980  
C     3.3957870   -2.0080170    0.1706910  
H     5.8716160   -1.5469420   -1.5574810  
H     3.0637130   -6.0545340    0.1368250  
H     0.7137220   -3.9632550    1.9126250  
H     6.7812820   -3.9570140   -2.3139570  
C    -4.9265610    1.2961330    1.6560540  
C    -6.1590020    0.7590260    1.5075090  
C    -6.0344500   -0.4073630    0.6506230  
C    -4.6010700   -0.5189900    0.2945190  
N    -3.9750950    0.5507440    0.9361500  
C    -4.0638010   -1.4834560   -0.4879630  
C    -4.9638520   -2.5030220   -1.0311340  
O    -4.5787310   -3.4176860   -1.7402740  
C    -6.4932080   -2.4072560   -0.6751590  
O    -7.2583030   -3.2472390   -1.1189280  
C    -6.9405790   -1.3057050    0.1862380  
H    -7.0749560    1.1302850    1.9441680  
H    -3.0082720   -1.5364450   -0.7326880  
H    -7.9981260   -1.2508070    0.4259980  
H    -4.5968780    2.1640990    2.2108960  
