62


C    -0.2122630    1.3937840   -0.5313690  
C     1.0790850    0.8956050   -0.3982990  
C     1.0016230   -0.5333950   -0.3315130  
C    -0.3763570   -0.8589230   -0.4431190  
N    -1.0801900    0.3144070   -0.5432370  
C    -0.8363960   -2.1868950   -0.4939960  
C     0.1342910   -3.1872110   -0.4750500  
O    -0.2317770   -4.4928330   -0.5638720  
C     1.5163210   -2.8805550   -0.3692530  
O     2.3113220   -3.9966320   -0.3296010  
C     1.9829150   -1.5675960   -0.2464640  
H     1.9885540    1.4707660   -0.4820170  
H    -2.0732150    0.4121910   -0.7032020  
H     0.6074010   -4.9957850   -0.5603440  
H     3.1199190   -3.7957340   -0.8635630  
C     1.7140940    5.2120160    0.6044370  
C     0.7231500    6.0506690    0.1721360  
C    -0.3236030    5.2256430   -0.3616070  
C     0.1003550    3.8772880   -0.2365800  
N     1.3543810    3.9016030    0.3406850  
C    -0.6879130    2.7705210   -0.6421510  
C    -1.9551470    3.0966850   -1.1466830  
O    -2.8217270    2.1050330   -1.5356710  
C    -2.3849520    4.4377900   -1.2842950  
O    -3.6513240    4.5537870   -1.8269520  
C    -1.5886420    5.5027880   -0.9124820  
H     0.7324690    7.1305420    0.2246410  
H     1.8280540    3.0875920    0.6984290  
H    -3.6449390    2.5413340   -1.8202700  
H    -3.9451610    5.4752900   -1.7791100  
H    -1.9390770    6.5256260   -1.0308460  
H     2.6640370    5.4338040    1.0699930  
C    -2.7539170   -3.3311920   -1.6201780  
C    -4.0957410   -3.4636540   -1.4834590  
C    -4.4893100   -2.7011010   -0.3196580  
C    -3.2406340   -2.1069800    0.2235280  
N    -2.2116900   -2.5069340   -0.6234270  
C    -3.1864480   -1.3434000    1.3462980  
C    -4.4299530   -1.0625770    2.0583930  
O    -4.4741820   -0.3879580    3.0767450  
C    -5.7668090   -1.6563310    1.4818620  
O    -6.8183580   -1.4104660    2.0530700  
C    -5.6910350   -2.4863300    0.2783670  
H    -4.7507430   -4.0372960   -2.1230290  
H    -2.2639960   -0.9410060    1.7487110  
H    -6.6157780   -2.9134630   -0.0979330  
H    -2.0887270   -3.7585540   -2.3564360  
C     3.8313880    1.0852650    2.7183070  
C     5.1350460    0.9977730    2.3515320  
C     5.2038180    0.0813280    1.2315390  
C     3.8099260   -0.3545300    0.9654660  
N     3.0336140    0.2893500    1.8993200  
C     3.4085680   -1.2409310   -0.0115800  
C     4.5021090   -1.8594370   -0.7601280  
O     4.3543910   -2.8127410   -1.5277870  
C     5.9737470   -1.3279590   -0.5843820  
O     6.8335490   -1.7573600   -1.3353990  
C     6.2442190   -0.3711590    0.4831050  
H     5.9714170    1.4977030    2.8175420  
H     7.2687470   -0.0448880    0.6296220  
H     3.3772830    1.6504470    3.5217120  
H     2.0265810    0.2238220    1.9321100  
