60


C     0.9629150   -1.2694350   -2.3181510  
C     2.1599290   -1.3427710   -1.6548230  
C     2.1691490   -0.2956310   -0.6695570  
C     0.9227340    0.3737990   -0.7781260  
N     0.2173450   -0.2290370   -1.7978330  
C     0.5500510    1.4688240    0.0316820  
C     1.4760060    1.8342570    1.0126320  
O     1.1770550    2.8214590    1.8902640  
C     2.7183700    1.1640180    1.1615830  
O     3.4930970    1.6728070    2.1767220  
C     3.1157930    0.1283790    0.3107590  
H     2.9434210   -2.0603220   -1.8475900  
H    -0.7191880    0.0240030   -2.0732010  
H     1.9461390    2.8806180    2.4910300  
H     3.8722110    0.9017420    2.6599250  
H     0.5744520   -1.8729190   -3.1263870  
C    -3.7726400    0.2458890    0.0028390  
C    -2.4009030    0.2159890    0.1008410  
C    -1.9579110    1.5717880   -0.1249770  
C    -3.2209870    2.3285320   -0.3647660  
N    -4.2700100    1.5618700   -0.2969970  
C    -3.2166980    3.7451250   -0.6267580  
C    -2.0206000    4.3754040   -0.6243220  
O    -1.8614800    5.6903100   -0.8418760  
C    -0.7196360    3.6379420   -0.4125440  
O     0.3113930    4.2924790   -0.5399720  
C    -0.7318840    2.1735660   -0.1308130  
H    -1.7788880   -0.6131280    0.4040180  
H    -4.1498820    4.2700740   -0.7970590  
H    -0.8895010    5.8377620   -0.8164110  
C    -3.5164250   -4.1042190   -0.9112360  
C    -3.2456200   -2.7779420   -0.7621880  
C    -4.4183280   -2.1541230   -0.1945700  
C    -5.4152070   -3.2375180   -0.0403100  
N    -4.7973710   -4.3962370   -0.4734680  
C    -6.6895140   -3.0783240    0.4042040  
C    -7.1217900   -1.7379980    0.7690180  
O    -8.2663820   -1.4698380    1.1004400  
C    -6.0504910   -0.5904110    0.7604010  
O    -6.3327810    0.4505920    1.3194700  
C    -4.7107930   -0.8493530    0.1512600  
H    -2.3208080   -2.2911890   -1.0270890  
H    -7.4061990   -3.8914590    0.4681610  
H    -2.8857030   -4.8919060   -1.3016060  
H    -5.2425210   -5.2991180   -0.5242320  
C     6.2539660   -0.6425300   -2.7306300  
C     5.1533480   -0.2130340   -2.0586880  
C     5.2647170   -0.6820080   -0.6965240  
C     6.5458210   -1.4304770   -0.6288410  
N     7.0821050   -1.3891190   -1.9000400  
C     7.0381150   -2.0362050    0.4823210  
C     6.2699280   -1.9095850    1.7074530  
O     6.5766930   -2.4430150    2.7617100  
C     4.9815510   -1.0050010    1.6832320  
O     4.4887460   -0.7282820    2.7756320  
C     4.4470250   -0.5145660    0.4010800  
H     4.3459290    0.3768250   -2.4623380  
H     7.9530120   -2.6195460    0.4976960  
H     6.5345280   -0.4776950   -3.7625130  
H     7.9878480   -1.7524510   -2.1520530  
