62


C    -0.7483400   -1.4273050    0.0638610  
C    -1.2546480   -2.7251630   -0.0113330  
C    -2.6728510   -2.6289910   -0.1084760  
C    -2.9973590   -1.2432030   -0.0868910  
N    -1.8191580   -0.5485590    0.0246680  
C    -4.3228010   -0.7586450   -0.1416450  
C    -5.3243520   -1.7264390   -0.2438520  
O    -6.6211560   -1.3409600   -0.3618980  
C    -5.0135560   -3.1142440   -0.2746820  
O    -6.1270100   -3.9242440   -0.3886150  
C    -3.7152690   -3.5749560   -0.2054190  
H    -0.6747720   -3.6338070   -0.0956620  
H    -1.6797040    0.4537880   -0.0145610  
H    -7.1694810   -2.1440380   -0.3258930  
H    -5.8642640   -4.8512180   -0.2903730  
H    -3.5052080   -4.6423590   -0.2302720  
C     2.9238600   -3.3586310    1.4827680  
C     3.8207630   -2.3756060    1.2127620  
C     3.0893310   -1.2700910    0.6232570  
C     1.6839490   -1.7027820    0.5628210  
N     1.6506200   -2.9959060    1.0512460  
C     0.6155200   -0.9411980    0.1398810  
C     0.9501470    0.4541570   -0.1807550  
O     0.1112840    1.3308000   -0.3624700  
C     2.4608310    0.8732240   -0.3189760  
O     2.6928860    1.9257610   -0.8861400  
C     3.5079100   -0.0307190    0.1982500  
H     4.8804140   -2.3963000    1.4176680  
H     3.0784340   -4.3232780    1.9477750  
H     0.7926430   -3.4225810    1.3732870  
C     7.0682090   -1.8230730   -1.7563710  
C     7.9815680   -0.8768890   -1.3724210  
C     7.2789080    0.0896110   -0.5759970  
C     5.9256940   -0.3321940   -0.5071850  
N     5.8278770   -1.4998700   -1.2357360  
C     4.9189940    0.3942270    0.1693030  
C     5.3326620    1.5717950    0.7997210  
O     4.4364430    2.2979910    1.5223540  
C     6.6828490    2.0016630    0.7445320  
O     6.9174160    3.1786090    1.4327980  
C     7.6522140    1.2841910    0.0703740  
H     9.0319910   -0.8651430   -1.6290890  
H     4.9768210   -2.0203230   -1.3777600  
H     4.8880060    3.1104320    1.8099190  
H     7.8267630    3.4700320    1.2716630  
H     8.6810770    1.6378710    0.0432210  
H     7.1932860   -2.7110310   -2.3598890  
C    -3.0649350    2.7939600   -2.5047200  
C    -3.2713660    1.5324120   -2.0483080  
C    -4.1400240    1.6268940   -0.8913400  
C    -4.4409050    3.0704930   -0.7235530  
N    -3.7589900    3.7200520   -1.7329020  
C    -5.2511550    3.5919270    0.2341080  
C    -5.8705730    2.6751280    1.1770750  
O    -6.6533810    3.0303180    2.0462570  
C    -5.5027250    1.1479350    1.0799690  
O    -5.8983870    0.4046100    1.9592520  
C    -4.6501880    0.6785670   -0.0457260  
H    -2.8619870    0.6263460   -2.4676150  
H    -5.4724330    4.6514190    0.3188120  
H    -2.4671340    3.1313670   -3.3408170  
H    -3.7358270    4.7194070   -1.8598330  
