60


C     2.7806720   -1.4693900   -1.7025300  
C     3.7553920   -0.6440600   -1.1839210  
C     3.0814420    0.2599100   -0.2769160  
C     1.7069230   -0.0798360   -0.2932540  
N     1.5555460   -1.1388000   -1.1661960  
C     0.7220580    0.6062060    0.4495840  
C     1.1779640    1.6762840    1.2212110  
O     0.2981690    2.3804400    1.9890040  
C     2.5505090    2.0398280    1.2379420  
O     2.8208130    3.1245100    2.0488980  
C     3.5005980    1.3542370    0.5061490  
H     0.6694320   -1.5484500   -1.4182500  
H     0.8092060    3.0629480    2.4589240  
H     3.7789340    3.2476930    2.1217900  
H     4.5433750    1.6597090    0.5329260  
H     2.8784040   -2.2942620   -2.3942770  
C    -1.1880880   -1.0458500    0.6799470  
C    -0.6940460    0.1992850    0.4170830  
C    -1.8496450    1.0254390    0.0779950  
C    -3.0341720    0.1338630    0.1467630  
N    -2.5608780   -1.1199070    0.4770330  
C    -4.3262960    0.5190790   -0.1158110  
C    -4.5233840    1.9810840   -0.2950320  
O    -5.6165810    2.5156770   -0.2371790  
C    -3.2698150    2.8974470   -0.5200040  
O    -3.4493310    4.0504660   -0.8799320  
C    -1.9472750    2.3330570   -0.2729870  
H    -1.0839980    2.9822520   -0.3652120  
H    -0.6493880   -1.9232110    1.0161880  
H    -3.1886030   -1.7555780    0.9789700  
C    -5.6957050   -2.9299230    2.3888320  
C    -6.9620690   -3.0882810    1.9471200  
C    -7.1088750   -2.1351720    0.8541800  
C    -5.7863230   -1.4232030    0.7936120  
N    -4.9683240   -1.9213630    1.6820740  
C    -5.5155480   -0.3518340   -0.1549000  
C    -6.4908880   -0.1677860   -1.1046020  
O    -6.3608740    0.6617170   -2.1419970  
C    -7.8103680   -0.8869460   -1.0861210  
O    -8.6174470   -0.6219650   -1.9753460  
C    -8.0863620   -1.8802180   -0.0335310  
H    -7.7142840   -3.7788260    2.3015210  
H    -7.2204400    0.6322290   -2.6187840  
H    -9.0515350   -2.3766950   -0.0514110  
H    -5.1914660   -3.4618190    3.1864050  
C     5.7116780   -0.7356860   -2.7814790  
C     5.1769550   -0.6794280   -1.5279020  
C     6.3100130   -0.7039440   -0.6042750  
C     7.5372200   -0.7738550   -1.4379050  
N     7.1027850   -0.8163320   -2.7458390  
C     8.8023170   -0.7943650   -0.9442850  
C     8.9841030   -0.7619330    0.5026620  
O    10.0817290   -0.7726540    1.0397730  
C     7.6973770   -0.7159660    1.4068500  
O     7.8277670   -0.6907350    2.6208690  
C     6.3851800   -0.6963720    0.7524040  
H     9.6869940   -0.8423470   -1.5720190  
H     5.5041680   -0.6695470    1.3853170  
H     5.1962380   -0.7208950   -3.7327790  
H     7.7058540   -0.7880580   -3.5528060  
