58


C    -4.6005190    2.6349130   -2.5171700  
C    -3.7183290    1.7620950   -1.9606440  
C    -4.3479390    1.2017750   -0.7861630  
C    -5.6925850    1.8243620   -0.7070460  
N    -5.7730660    2.6954160   -1.7772300  
C    -6.6308650    1.5403580    0.2322470  
C    -6.3061140    0.5513130    1.2514180  
O    -7.0912040    0.1980260    2.1167380  
C    -4.8684590   -0.0785110    1.2382060  
O    -4.5323780   -0.7809440    2.1742400  
C    -3.9416880    0.2585480    0.1248640  
H    -2.7317000    1.5295560   -2.3306820  
H    -7.6168160    1.9944350    0.2492590  
H    -4.4934240    3.2409840   -3.4071140  
H    -6.5922220    3.2287580   -2.0234370  
C     0.3462510    1.6226110    0.1650410  
C    -1.0322010    1.6082900    0.1374450  
C    -1.4189030    0.2339170    0.0836950  
C    -0.1205600   -0.5217540    0.0756230  
N     0.8970250    0.2995680    0.1353500  
C    -0.0495810   -1.9673500    0.0344200  
C    -1.2620960   -2.6021630    0.0979180  
O    -1.3947120   -3.9213310    0.1682460  
C    -2.5918050   -1.8776610    0.0801920  
O    -3.5918600   -2.5874280    0.0095140  
C    -2.6327260   -0.4017580    0.0944850  
H    -1.6961100    2.4602070    0.1447210  
H    -2.3652560   -4.0921060    0.1321380  
C     3.8855120   -1.7113620    2.0769540  
C     4.4969520   -2.7864730    1.5172440  
C     3.5685820   -3.3610050    0.5675990  
C     2.3427230   -2.5254620    0.6416610  
N     2.5812370   -1.5656210    1.6087820  
C     1.2066640   -2.7306980   -0.0937440  
C     1.2908070   -3.7885510   -1.1300310  
O     0.4446460   -3.9354280   -1.9946090  
C     2.5420120   -4.7400310   -1.1499140  
O     2.5351190   -5.6923760   -1.9148160  
C     3.6588840   -4.4335440   -0.2637510  
H     5.4901180   -3.1507990    1.7362540  
H     4.5314630   -5.0784480   -0.3010680  
H     4.2662530   -1.0175030    2.8153980  
H     2.0866960   -0.6779650    1.5591910  
C     0.9330070    4.0707020    0.4277840  
C     1.2339890    2.7418220    0.2202030  
C     2.7036850    2.7366980    0.0534940  
C     3.0890750    4.1667600    0.1985810  
N     2.0388720    4.9277010    0.4164040  
C     4.4493350    4.6037520    0.0932200  
C     5.3955050    3.6623270   -0.1550240  
O     6.7027160    3.9240730   -0.2780800  
C     5.0384320    2.2079930   -0.3168040  
O     5.9536640    1.4177000   -0.5339070  
C     3.6231160    1.7882450   -0.2072390  
H     4.6943750    5.6538800    0.2062630  
H     7.1313000    3.0573320   -0.4555490  
H     3.3867740    0.7392610   -0.3428550  
H    -0.0488210    4.4936840    0.6071490  
