58


C     4.7754500   -2.3656630   -1.5675540  
C     4.4504660   -1.3209250   -0.7470060  
C     5.6948580   -0.9116330   -0.0954290  
C     6.7562010   -1.8062440   -0.6215010  
N     6.1244410   -2.6715860   -1.4959010  
C     8.0640490   -1.7425510   -0.2682030  
C     8.4710260   -0.7371610    0.7112590  
O     9.6248380   -0.5999980    1.0849140  
C     7.3593220    0.1973170    1.3118260  
O     7.6703340    1.0289780    2.1483350  
C     5.9788850    0.0323540    0.8391460  
H     8.8238440   -2.4074700   -0.6673370  
H     5.2237950    0.6813850    1.2706640  
H     4.1264240   -2.9243530   -2.2290870  
H     6.5940720   -3.3598510   -2.0637160  
C     1.9479190   -1.4604350   -0.3730090  
C     3.1117070   -0.7798010   -0.5522800  
C     2.6936580    0.6332170   -0.5944180  
C     1.2082410    0.5970890   -0.4126640  
N     0.7966590   -0.6333990   -0.2821760  
C     0.3866280    1.8091460   -0.3875390  
C     1.0764330    2.9904350   -0.5794060  
O     0.5295810    4.2012040   -0.6290780  
C     2.5681420    3.0313880   -0.7959460  
O     3.0831550    4.1339800   -0.9735280  
C     3.3534300    1.7867610   -0.7920780  
H     1.2830450    4.8174350   -0.7881880  
H     4.4247610    1.8705720   -0.9433690  
H     1.8239190   -2.5333240   -0.2823410  
C    -1.0490270    1.7335190   -0.1858660  
C    -1.8496400    0.6132720   -0.2153000  
C    -3.1889570    1.0785750    0.0495350  
C    -3.0335820    2.5544460    0.2122000  
N    -1.7947150    2.9300630    0.0783100  
C    -4.1571590    3.4160410    0.4695480  
C    -5.3754490    2.8378440    0.5716570  
O    -6.5088050    3.5099590    0.8161010  
C    -5.5656940    1.3429420    0.4750410  
O    -6.6828460    0.9127650    0.7421510  
C    -4.4046810    0.4606880    0.1490070  
H    -1.5305310   -0.3913350   -0.4379950  
H    -4.0117030    4.4854410    0.5723790  
H    -7.2086840    2.8231050    0.8894830  
C    -2.4659600   -3.0353860    2.0483080  
C    -3.2507930   -4.0218080    1.5459470  
C    -4.2230260   -3.3940660    0.6760180  
C    -3.9347160   -1.9382620    0.7171440  
N    -2.8755130   -1.7878520    1.5859330  
C    -4.6511000   -0.9800610    0.0455860  
C    -5.7189380   -1.4675690   -0.8584510  
O    -6.2946840   -0.7374970   -1.6453230  
C    -6.0789060   -2.9948690   -0.8531860  
O    -7.0306890   -3.3750680   -1.5161070  
C    -5.2479570   -3.8995010   -0.0615400  
H    -3.1749680   -5.0780730    1.7586890  
H    -5.4903230   -4.9576640   -0.0812170  
H    -1.6273260   -3.1015350    2.7286460  
H    -2.3444850   -0.9340940    1.6854390  
