60


C     0.2964170    1.5678810    0.0746150  
C     0.7488630    2.8528050    0.3677460  
C     2.1583930    2.8583430    0.2065840  
C     2.5417190    1.5463310   -0.1953320  
N     1.4015030    0.7924880   -0.2749600  
C     3.8806230    1.1685860   -0.4406750  
C     4.8340300    2.1732900   -0.2652970  
O     6.1479240    1.9091480   -0.5052320  
C     4.4671470    3.4887220    0.1432310  
O     5.5476470    4.3411740    0.2602880  
C     3.1571040    3.8439020    0.3740380  
H     0.1116660    3.6698670    0.6655980  
H     1.3490350   -0.1988420   -0.4590380  
H     6.6460670    2.7248450   -0.3187130  
H     5.2448170    5.2122010    0.5565790  
H     2.8999390    4.8548660    0.6821540  
C    -3.5362740    3.4248470    1.1490730  
C    -4.4041310    2.4054790    0.9549840  
C    -3.5875610    1.2910080    0.4884000  
C    -2.1985880    1.8366830    0.4717850  
N    -2.1828480    3.0801580    0.8575730  
C    -1.0401280    1.0199660    0.0870560  
C    -1.3399150   -0.2773120   -0.2511930  
O    -0.4015910   -1.1764700   -0.6590340  
C    -2.7021160   -0.8363090   -0.2669830  
O    -2.8458990   -1.9881460   -0.6907890  
C    -3.8636460    0.0032380    0.1653860  
H    -5.4722550    2.3961770    1.1164690  
H    -0.9176340   -1.9948130   -0.8453730  
H    -3.7475900    4.4285800    1.4973780  
C    -7.7380710    0.9583350   -1.8329190  
C    -6.4499310    0.9812520   -1.3985900  
C    -6.2747230   -0.1447420   -0.5079280  
C    -7.5860930   -0.8406690   -0.4662690  
N    -8.4310670   -0.1098250   -1.2801920  
C    -7.8439350   -1.9768680    0.2293930  
C    -6.7608110   -2.5724640    1.0020820  
O    -6.8812240   -3.6101410    1.6330390  
C    -5.3780080   -1.8311540    1.0290370  
O    -4.5118850   -2.2369420    1.7824350  
C    -5.1928260   -0.6234530    0.1846000  
H    -5.6991930    1.7088710   -1.6657760  
H    -8.8081360   -2.4757870    0.2238530  
H    -8.2428790    1.6343750   -2.5103990  
H    -9.3848880   -0.3591980   -1.4899230  
C     3.6551140   -0.8934590   -1.8885490  
C     4.2362930   -0.1954000   -0.8697580  
C     5.2329490   -1.0914130   -0.2808260  
C     5.1748640   -2.3551370   -1.0564170  
N     4.1968420   -2.1681290   -2.0117800  
C     5.9514280   -3.4439750   -0.8204870  
C     6.9101010   -3.3860710    0.2765570  
O     7.6543130   -4.3114580    0.5657440  
C     6.9769240   -2.0633420    1.1250720  
O     7.7666970   -1.9961430    2.0538370  
C     6.0856380   -0.9544610    0.7656900  
H     5.8908930   -4.3576590   -1.4039770  
H     6.1544790   -0.0430800    1.3480610  
H     2.8808470   -0.5697980   -2.5721510  
H     3.9308740   -2.8482550   -2.7061530  
