60


C     0.8774130   -1.1700360   -0.3479950  
C     0.4591150    0.1540400   -0.2391260  
C     1.6742600    0.9497600   -0.2509220  
C     2.7665400    0.0528270   -0.3442870  
N     2.2332410   -1.2289330   -0.3810220  
C     4.1274780    0.4600800   -0.3331980  
C     4.3029970    1.8525380   -0.3080330  
O     5.5675610    2.4002750   -0.3317380  
C     3.2182620    2.7569340   -0.2330170  
O     3.6080590    4.0841400   -0.2023300  
C     1.9074110    2.3315320   -0.1882760  
H     2.7714730   -2.0135630   -0.7315720  
H     5.4453700    3.3631520   -0.4308630  
H     2.8281910    4.6493480   -0.3088570  
H     1.0710470    3.0188370   -0.1150620  
H     0.2857960   -2.0717810   -0.4183750  
C    -0.8954400    0.6017390   -0.1417140  
C    -2.0611060   -0.1374480   -0.1000800  
C    -3.1265460    0.7993170    0.0006390  
C    -2.4374160    2.1406690    0.0045350  
N    -1.1454740    2.0201180   -0.0798880  
C    -3.1716540    3.3730150    0.0796070  
C    -4.5191110    3.2824240    0.1458580  
O    -5.3433540    4.3311620    0.2289610  
C    -5.2521460    1.9494690    0.1469510  
O    -6.4791910    2.0214480    0.2568080  
C    -4.4964830    0.6992150    0.0462920  
H    -2.1558460   -1.2127750   -0.1033320  
H    -2.6519620    4.3245680    0.0825180  
H    -6.2444970    3.9299610    0.2752890  
C    -4.3781880   -2.8308060    2.6934200  
C    -5.3281690   -3.6279140    2.1544970  
C    -5.8387180   -2.8848890    1.0065820  
C    -5.0401260   -1.6133440    1.0085350  
N    -4.1946130   -1.5911920    1.9966620  
C    -5.2486370   -0.5706470    0.0138490  
C    -6.2081340   -0.8207970   -0.9231940  
O    -6.4977730    0.0173350   -1.9285170  
C    -7.0197740   -2.0854930   -0.9444660  
O    -7.8535120   -2.2125130   -1.8404270  
C    -6.7891220   -3.1175440    0.0825520  
H    -5.6587580   -4.6013350    2.4892010  
H    -7.2243280   -0.4167250   -2.4284490  
H    -7.4014030   -4.0130310    0.0355230  
H    -3.7638410   -3.0209510    3.5655740  
C     7.8488770    0.4429270    2.0586720  
C     8.4152030   -0.7069710    1.6183870  
C     7.5246740   -1.2644500    0.6241060  
C     6.3692890   -0.3304420    0.5301650  
N     6.6081200    0.6603130    1.4598980  
C     5.2773040   -0.4822290   -0.2991320  
C     5.2997410   -1.6999770   -1.1249250  
O     4.3697210   -2.0556660   -1.8429470  
C     6.5494660   -2.6617030   -1.0900510  
O     6.5565480   -3.6156120   -1.8514040  
C     7.6141900   -2.3838190   -0.1393500  
H     9.3490370   -1.1385060    1.9480100  
H     8.4538740   -3.0698070   -0.0906330  
H     8.2153050    1.1512490    2.7904270  
H     6.2184260    1.5867760    1.3225120  
