60


C     0.7405990    1.9802600   -0.1568920  
C    -0.4012350    1.2500820   -0.5216180  
C    -1.4537590    1.5994680    0.3657640  
C    -0.9185940    2.5744660    1.2617840  
N     0.3951280    2.7641550    0.9348030  
C    -1.6866170    3.2072250    2.2446610  
C    -3.0280980    2.8707950    2.2947630  
O    -3.8485470    3.4610090    3.1949410  
C    -3.5965910    1.8956540    1.4137740  
O    -4.9299160    1.6846900    1.6351050  
C    -2.8301330    1.2102650    0.4722990  
H    -0.4948990    0.6171770   -1.3884180  
H     1.0501180    3.4290410    1.3300680  
H    -1.2835260    3.9548250    2.9190050  
H    -4.7413310    3.1048090    3.0158690  
H    -5.3567570    1.5579280    0.7504120  
C    -1.3010710   -2.8556170   -0.1793580  
C    -2.2496030   -3.3128330   -1.0646620  
C    -3.1911470   -2.2561930   -1.2990820  
C    -2.7369680   -1.1056290   -0.4798620  
N    -1.5796000   -1.5171130    0.1375750  
C    -3.3760690    0.1067470   -0.3561200  
C    -4.6579760    0.1912770   -1.0584670  
O    -5.4690380    1.1041090   -0.8898040  
C    -5.0738950   -0.9367700   -2.0724920  
O    -6.0519580   -0.7415230   -2.7780310  
C    -4.2986040   -2.1665160   -2.0904540  
H    -2.2554940   -4.2843210   -1.5373120  
H    -4.6299640   -2.9712390   -2.7386360  
H    -1.1488000   -0.9978360    0.8879340  
C     0.0253790   -4.8839190    0.5131160  
C    -0.1592750   -3.5303120    0.3763530  
C     1.0881790   -2.9431690    0.9024970  
C     1.8972890   -4.1299120    1.3093630  
N     1.2593330   -5.2514160    1.0729900  
C     3.2114440   -3.9971150    1.8677480  
C     3.7197110   -2.7459480    2.0015670  
O     4.9323250   -2.4772730    2.4994650  
C     2.9420990   -1.5291620    1.5739830  
O     3.4763030   -0.4315190    1.7052820  
C     1.5825520   -1.6940030    1.0131640  
H     3.7681060   -4.8807030    2.1591400  
H     5.0261970   -1.4994150    2.4679560  
H     1.0761850   -0.7838980    0.7044970  
H    -0.6832930   -5.6626680    0.2555920  
C     2.8877490   -0.5191750   -3.1985510  
C     1.9817830   -0.0430720   -2.2993010  
C     2.5394770    1.1473470   -1.6971580  
C     3.8656670    1.3216290   -2.3177070  
N     4.0085780    0.2924790   -3.2279730  
C     4.7612420    2.3113920   -2.0378870  
C     4.4043100    3.2686420   -1.0206100  
O     5.1080200    4.2071830   -0.6740370  
C     3.0180080    3.0907950   -0.2936370  
O     2.7906450    3.8547960    0.6353660  
C     2.0636860    2.0317230   -0.7374880  
H     1.0353430   -0.5061540   -2.0768600  
H     5.7187660    2.4095720   -2.5389490  
H     2.8296300   -1.3910770   -3.8360540  
H     4.8257350    0.1449210   -3.7992480  
