62


C     1.4474830    0.0855990   -0.1904350  
C     0.6837920    1.2270790   -0.2215050  
C     1.5903340    2.3330180    0.0586600  
C     2.8765760    1.7869700    0.2658870  
N     2.7783190    0.3938910    0.0831290  
C     3.9756950    2.5625400    0.6540770  
C     3.7778370    3.9301260    0.7869860  
O     4.8185640    4.7293680    1.1455820  
C     2.5004210    4.4985700    0.5548780  
O     2.4588920    5.8656980    0.7194710  
C     1.4121250    3.7188560    0.2100440  
H     4.9498810    2.1464950    0.8788750  
H     4.4870520    5.6441120    1.1713860  
H     1.5965030    6.2026800    0.4330570  
H     0.4453160    4.1744120    0.0279400  
H     1.1762550   -0.9297840   -0.4355790  
C    -2.6022060   -1.4405490    1.0818240  
C    -1.4124230   -0.8066790    0.9315630  
C    -1.6148300    0.2904490    0.0122780  
C    -3.0491390    0.2440220   -0.3600470  
N    -3.6052670   -0.8301240    0.3222970  
C    -3.6600100    1.1113320   -1.2146540  
C    -2.8623980    2.1857110   -1.7755850  
O    -3.3102280    3.0421380   -2.5244020  
C    -1.3376840    2.2682150   -1.3901890  
O    -0.6849710    3.1852450   -1.8623250  
C    -0.7560620    1.2416600   -0.4911000  
H    -0.4904370   -1.0608330    1.4307680  
H    -4.7011890    1.0288170   -1.5049140  
H    -2.8562480   -2.3009450    1.6840290  
C    -7.3484910    1.2866180    1.2442010  
C    -8.1934720    0.2416830    0.9818680  
C    -7.3801710   -0.8685710    0.5718110  
C    -6.0321720   -0.4234680    0.6091930  
N    -6.0395190    0.8863660    1.0359070  
C    -4.9569640   -1.2655100    0.2661670  
C    -5.2568890   -2.5745180   -0.1094890  
O    -4.2482700   -3.4295650   -0.4441000  
C    -6.5997430   -3.0277660   -0.1302300  
O    -6.7225170   -4.3501590   -0.5096130  
C    -7.6551900   -2.1988210    0.2002120  
H    -9.2705590    0.2557490    1.0733860  
H    -5.2335770    1.4919000    1.0588980  
H    -4.6636730   -4.2731810   -0.6969400  
H    -7.6588770   -4.5750620   -0.6138520  
H    -8.6763540   -2.5730020    0.1794370  
H    -7.5642430    2.2942690    1.5696690  
C     3.7852100   -0.5486730    0.1222380  
C     3.7070980   -1.8791890    0.4367790  
C     5.0168410   -2.4430300    0.2531600  
C     5.8867420   -1.3291270   -0.1980370  
N     5.0943920   -0.1836730   -0.2058590  
C     7.1920620   -1.4600530   -0.5283870  
C     7.8085720   -2.7831310   -0.4047580  
O     8.9802130   -2.9911540   -0.6769030  
C     6.9182420   -3.9708370    0.1130000  
O     7.4260740   -5.0773700    0.2292480  
C     5.5174410   -3.6998700    0.4195850  
H     2.8352980   -2.3927500    0.8137800  
H     7.8116180   -0.6343970   -0.8650640  
H     4.9069190   -4.5311500    0.7587030  
H     5.2970150    0.6178890   -0.7875300  
