58


C    -1.8792040    0.0568970    0.9886600  
C    -3.2184530    0.0988470    0.7512700  
C    -3.4697200    1.3380700    0.0181690  
C    -2.1600240    2.0103010   -0.1357830  
N    -1.2136310    1.1826170    0.4870710  
C    -1.9768110    3.1709400   -0.8071470  
C    -3.1483100    3.8356080   -1.3838540  
O    -3.0704000    4.8773690   -2.0135180  
C    -4.5537850    3.1692130   -1.1794420  
O    -5.5461150    3.7218620   -1.6228000  
C    -4.6125650    1.8883630   -0.4638080  
H    -1.0142100    3.6543180   -0.9235910  
H    -5.5833800    1.4164240   -0.3535190  
H    -1.3102570   -0.6998410    1.5120270  
C     2.1547930   -1.3734480   -0.5960590  
C     0.9212620   -0.8397700   -0.4373430  
C     1.0813250    0.4511370    0.1947510  
C     2.5311820    0.6389260    0.4093680  
N     3.1506450   -0.5110830   -0.1087350  
C     3.0902140    1.7209360    1.0091200  
C     2.2087080    2.8026890    1.4397120  
O     2.6187510    3.8383020    1.9345700  
C     0.6593130    2.6281170    1.2576030  
O    -0.0899280    3.4714980    1.7099940  
C     0.1716520    1.4000670    0.5789270  
H    -0.0067630   -1.2832280   -0.7660910  
H     4.1509700    1.8258520    1.2006430  
H     2.4527990   -2.3016190   -1.0628050  
C     4.5044810   -0.8213980   -0.1293240  
C     5.0948280   -2.0469710   -0.0229520  
C     6.5157010   -1.8523080   -0.1817060  
C     6.7128550   -0.3977630   -0.3875100  
N     5.4512180    0.1945300   -0.2910730  
C     7.9074670    0.1897540   -0.6229160  
C     9.1029650   -0.6596860   -0.6479640  
O    10.2204980   -0.2160450   -0.8504400  
C     8.9237380   -2.1994340   -0.3889350  
O     9.9111080   -2.9174460   -0.3959590  
C     7.5707480   -2.7106460   -0.1629160  
H     4.5978130   -2.9784700    0.2053980  
H     8.0331340    1.2567160   -0.7793490  
H     7.4563300   -3.7782540   -0.0026480  
H     5.2298580    1.0657530   -0.7545110  
C    -4.3886550   -1.3097670    2.4873550  
C    -4.2082290   -0.8785380    1.2046200  
C    -5.1688020   -1.6141640    0.3837200  
C    -5.9143570   -2.5015300    1.3098790  
N    -5.3794000   -2.2757610    2.5658760  
C    -6.9055200   -3.3476140    0.9342910  
C    -7.2616380   -3.4141970   -0.4818040  
O    -8.1378830   -4.1458130   -0.9138000  
C    -6.4627950   -2.5066260   -1.4867960  
O    -6.7225070   -2.5682090   -2.6769700  
C    -5.4225230   -1.6195530   -0.9504270  
H    -7.4423790   -3.9860110    1.6292330  
H    -4.8866590   -0.9912510   -1.6546530  
H    -3.8769080   -0.9841120    3.3837330  
H    -5.7294070   -2.6792440    3.4209910  
