60


C    -1.4155230    5.7373980    1.7185980  
C    -1.2165720    4.4621550    1.2860350  
C     0.0480100    4.4303110    0.5880970  
C     0.5858580    5.8055440    0.6646430  
N    -0.3637210    6.5551590    1.3335070  
C     1.7960850    6.2058030    0.1906500  
C     2.6428260    5.2086060   -0.4409090  
O     3.7751680    5.4406620   -0.8372680  
C     2.0632980    3.7594950   -0.6397630  
O     2.6974580    2.9930400   -1.3398030  
C     0.7451720    3.4108210   -0.0298580  
H    -1.8721910    3.6245890    1.4636990  
H     2.1717170    7.2195580    0.2902250  
H    -2.2398430    6.1483290    2.2862120  
H    -0.2435500    7.5182710    1.6057510  
C     0.2428590    2.0558650   -0.1444280  
C    -1.0549780    1.6198620   -0.2736950  
C    -0.9923490    0.1820410   -0.3240520  
C     0.4518310   -0.1251790   -0.1857540  
N     1.1609430    0.9618750   -0.0903080  
C     0.9798630   -1.4943880   -0.1373610  
C     0.0197070   -2.4804340   -0.1789450  
O     0.2621600   -3.7919980   -0.1465440  
C    -1.4527020   -2.1853220   -0.3090390  
O    -2.1980840   -3.1697820   -0.3257560  
C    -1.9532230   -0.7933980   -0.4410670  
H    -1.9463530    2.2240450   -0.3444380  
H    -0.6291490   -4.2092930   -0.2078820  
C     2.4052430   -1.7377020   -0.0616690  
C     3.4268790   -0.8397470   -0.2526850  
C     4.6458560   -1.5931370   -0.0824750  
C     4.1845230   -2.9832220    0.2296040  
N     2.8908670   -3.0697900    0.2403560  
C     5.1233900   -4.0501860    0.4799470  
C     6.4414950   -3.7528080    0.4156120  
O     7.4302770   -4.6378570    0.6211400  
C     6.9357110   -2.3599370    0.0976610  
O     8.1568080   -2.1948420    0.0645160  
C     5.9643750   -1.2896290   -0.1487530  
H     3.3336210    0.2100030   -0.4828570  
H     4.7651870   -5.0484080    0.7059720  
H     8.2589280   -4.1198300    0.5044680  
H     6.3531640   -0.3006010   -0.3709480  
C    -3.7462990    0.4951760   -1.5935640  
C    -3.3495250   -0.5320290   -0.7419870  
C    -4.5756290   -1.1771350   -0.2958370  
C    -5.6504470   -0.4789180   -0.8984630  
N    -5.1062700    0.5245040   -1.6870900  
C    -6.9955470   -0.7887910   -0.6735910  
C    -7.2697390   -1.8367230    0.1910570  
O    -8.5593260   -2.1916990    0.4451850  
C    -6.2095610   -2.5452880    0.8154180  
O    -6.6361410   -3.5592130    1.6487410  
C    -4.8833430   -2.2299110    0.5882260  
H    -5.6318230    1.1309090   -2.2986180  
H    -7.8112670   -0.2482680   -1.1424400  
H    -8.5350800   -2.9504100    1.0542040  
H    -5.8705230   -4.0573350    1.9720270  
H    -4.0953890   -2.8078010    1.0580360  
H    -3.1320070    1.1623320   -2.1802700  
