62


C    -0.3214790   -1.8456380    0.1485790  
C    -0.6661440   -3.1935180    0.0835860  
C    -2.0829120   -3.2715100   -0.0021860  
C    -2.5782130   -1.9353200   -0.0024580  
N    -1.4965370   -1.1066970    0.0903620  
C    -3.9611210   -1.6211620   -0.0718350  
C    -4.8255370   -2.7271820   -0.0946190  
O    -6.1816480   -2.5487250   -0.1415920  
C    -4.3402580   -4.0602130   -0.0959290  
O    -5.3471270   -5.0051230   -0.1392580  
C    -2.9922230   -4.3470490   -0.0610340  
H     0.0179040   -4.0270360    0.0427070  
H    -1.4818650   -0.0958150    0.1304700  
H    -6.5884170   -3.4335580   -0.1732930  
H    -4.9640420   -5.8935720   -0.1812970  
H    -2.6439510   -5.3775260   -0.0652570  
C     3.7579540   -3.2242030    1.3393370  
C     2.4169740   -3.1365240    1.1128060  
C     2.1464400   -1.8193820    0.5876000  
C     3.4520500   -1.1351040    0.5307990  
N     4.3928290   -2.0550260    0.9625570  
C     3.6872750    0.1553900    0.1356340  
C     2.4988880    0.9124960   -0.2752880  
O     2.5370160    2.0203790   -0.7791380  
C     1.0813420    0.2536580   -0.0922900  
O     0.1149820    0.9989700   -0.2139630  
C     0.9695570   -1.1893550    0.2147860  
H     1.6913680   -3.8991450    1.3434340  
H     4.3310480   -4.0441820    1.7513670  
H     5.3618250   -1.8255790    1.1255550  
C     7.3281400   -1.0589030   -2.0980210  
C     8.1485830   -0.0501930   -1.6690420  
C     7.3796190    0.7708980   -0.7753700  
C     6.0846570    0.1975740   -0.6952710  
N     6.0868200   -0.9301560   -1.4953700  
C     5.0346030    0.7541520    0.0698610  
C     5.3393290    1.9256310    0.7697400  
O     4.3974910    2.4937350    1.5684360  
C     6.6313140    2.5078850    0.7012070  
O     6.7623230    3.6512300    1.4664950  
C     7.6469400    1.9490360   -0.0511390  
H     9.1813190    0.0947500   -1.9550810  
H     5.2615790   -1.4504880   -1.7504910  
H     4.7591560    3.3385770    1.8888570  
H     7.6014160    4.0873720    1.2573170  
H     8.6295450    2.4152780   -0.0830370  
H     7.5225280   -1.8759590   -2.7784250  
C    -4.4404470   -0.2433120   -0.1220130  
C    -3.7873830    0.9010540   -0.5195770  
C    -4.6977880    2.0069480   -0.3833590  
C    -5.9660640    1.4329220    0.1306230  
N    -5.7389370    0.0854740    0.2890460  
C    -7.0908870    2.1542610    0.3751160  
C    -7.0617090    3.5905630    0.1254690  
O    -8.0245090    4.3207220    0.3140560  
C    -5.7233070    4.2230380   -0.4106120  
O    -5.6845510    5.4271250   -0.6209150  
C    -4.5800330    3.3404550   -0.6367400  
H    -2.7917010    0.9724180   -0.9301450  
H    -8.0106540    1.7155030    0.7497930  
H    -3.6624390    3.7867130   -1.0081000  
H    -6.4446240   -0.6137740    0.4663380  
