58


C    -0.7621000    1.4814990    0.0105350  
C    -1.2451020    2.7738630    0.1082990  
C    -2.6791740    2.7065880    0.1794230  
C    -3.0261180    1.2681640    0.1159770  
N    -1.8295970    0.5902570    0.0084300  
C    -4.2980910    0.7694080    0.1298040  
C    -5.3946770    1.7545140    0.2790670  
O    -6.5556600    1.4215020    0.4345650  
C    -5.0431950    3.2854170    0.3047100  
O    -5.9553010    4.0966780    0.3615000  
C    -3.6373310    3.6730810    0.2695180  
H    -0.6613940    3.6738760    0.2349770  
H    -3.4023660    4.7327010    0.3011240  
H    -1.6896070   -0.4116610    0.0472630  
C     2.8994900    3.4465660   -1.3982120  
C     3.8052090    2.4759600   -1.1210630  
C     3.0822760    1.3665530   -0.5366730  
C     1.6640460    1.7824150   -0.4875140  
N     1.6234740    3.0594570   -0.9870140  
C     0.6060480    1.0033870   -0.0608380  
C     0.9436000   -0.3908280    0.2605840  
O     0.1108810   -1.2703250    0.4421480  
C     2.4496100   -0.7924240    0.3974860  
O     2.7118680   -1.8372050    0.9635000  
C     3.4906250    0.1258800   -0.1164020  
H     4.8676210    2.5175500   -1.3049890  
H     3.0440320    4.4159970   -1.8555020  
H     0.7634300    3.5116720   -1.2658110  
C    -3.1396370   -2.8577120    2.4619070  
C    -3.2918690   -1.5831620    2.0156880  
C    -4.1502510   -1.6322240    0.8497130  
C    -4.5021830   -3.0616210    0.6624400  
N    -3.8478720   -3.7488310    1.6672340  
C    -5.3270900   -3.5418200   -0.3032150  
C    -5.9103770   -2.5931700   -1.2411710  
O    -6.6940660   -2.9148720   -2.1209640  
C    -5.4892160   -1.0840230   -1.1243720  
O    -5.8304960   -0.3157320   -2.0046880  
C    -4.6293240   -0.6588160    0.0129550  
H    -2.8609630   -0.6987340    2.4593130  
H    -5.5869340   -4.5914090   -0.4002890  
H    -2.5710150   -3.2238680    3.3063270  
H    -3.9008480   -4.7448800    1.8112650  
C     7.3836850    1.6002680    1.5833340  
C     6.0704580    1.5405840    1.2501890  
C     5.9307720    0.3134070    0.4775410  
C     7.3178990   -0.2580330    0.4574830  
N     8.1579410    0.5003570    1.1028460  
C     7.6170140   -1.5065070   -0.1905760  
C     6.5985540   -2.1650220   -0.7911460  
O     6.7365950   -3.3294500   -1.4408600  
C     5.1987480   -1.6116650   -0.8174610  
O     4.3648820   -2.2199190   -1.4789930  
C     4.8862310   -0.3311140   -0.1065290  
H     5.2866040    2.2383930    1.5060540  
H     8.6308900   -1.8906880   -0.1863950  
H     5.8467390   -3.5452880   -1.7961010  
H     7.8853680    2.3657600    2.1637520  
