60


C     0.0085900    0.4148670   -1.1330230  
C    -0.3132490    1.6162480   -0.5308360  
C     0.9043770    2.0703470    0.1153050  
C     1.8972540    1.0879470   -0.1150600  
N     1.3203040    0.0881860   -0.8686780  
C     3.2313220    1.1929230    0.3573850  
C     3.5326640    2.3804860    1.0418390  
O     4.7981410    2.6153750    1.5041740  
C     2.5441790    3.3612320    1.2906920  
O     3.0165120    4.4464390    2.0026180  
C     1.2423070    3.2175660    0.8565220  
H     1.8443100   -0.6333890   -1.3412190  
H     4.7880460    3.4963330    1.9223890  
H     2.3695720    5.1672160    1.9673390  
H     0.5123820    3.9990500    1.0332590  
H    -0.5937040   -0.2197710   -1.7676710  
C    -4.3153140   -0.1619730   -0.1438450  
C    -5.0725680    0.9733830   -0.3238330  
C    -4.1744130    2.0774060   -0.5144130  
C    -2.8051760    1.5203980   -0.4449110  
N    -2.9568070    0.1670260   -0.2457640  
C    -1.6418660    2.2413110   -0.5540380  
C    -1.8082480    3.6940680   -0.7430210  
O    -0.8678740    4.4695040   -0.8411570  
C    -3.2603820    4.3046970   -0.8259350  
O    -3.3674360    5.5139930   -0.9701000  
C    -4.4008630    3.4086100   -0.7115000  
H    -6.1495920    1.0065180   -0.3158930  
H    -5.3975560    3.8343650   -0.7692110  
H    -2.2041070   -0.4699700   -0.0290830  
C    -8.3601890   -1.8808300    0.2208430  
C    -8.0881280   -3.1819750    0.4591590  
C    -6.6329150   -3.2746410    0.4574960  
C    -6.1729340   -1.8723340    0.1912830  
N    -7.1861130   -1.0728910    0.0556200  
C    -4.7482460   -1.5254730    0.1078770  
C    -3.8840190   -2.5751870    0.2886960  
O    -2.5408510   -2.4661320    0.2496280  
C    -4.3292320   -3.9800050    0.5572320  
O    -3.4472160   -4.8276670    0.7051750  
C    -5.7638010   -4.2873100    0.6334280  
H    -8.7818040   -3.9954030    0.6189600  
H    -2.2082470   -3.3788810    0.4258540  
H    -6.0461380   -5.3172600    0.8284820  
H    -9.3264620   -1.3982720    0.1434080  
C     4.2100530    0.1363400    0.1383470  
C     4.0115920   -1.2082980   -0.0961120  
C     5.2973570   -1.8342420   -0.2426360  
C     6.2984890   -0.7503200   -0.0789150  
N     5.5802080    0.4069700    0.1266940  
C     7.6422910   -0.9348530   -0.1338710  
C     8.1491840   -2.2831180   -0.3710130  
O     9.3415590   -2.5444650   -0.4342360  
C     7.1058270   -3.4472010   -0.5527000  
O     7.5170350   -4.5810930   -0.7559600  
C     5.6845590   -3.1210440   -0.4712070  
H     3.0663680   -1.7291340   -0.0645730  
H     8.3603430   -0.1299250   -0.0105560  
H     4.9745090   -3.9334450   -0.5951230  
H     5.9589670    1.2951590    0.4219930  
