60


C     2.2029340   -1.2706030    0.0133370  
C     3.2072390   -0.3379470   -0.0047970  
C     2.5549480    0.9663170    0.0416970  
C     1.1602090    0.7461050    0.1226490  
N     0.9566640   -0.6541630    0.0994530  
C     0.2420240    1.7961580    0.1978820  
C     0.7369340    3.0943070    0.1402640  
O    -0.1294060    4.1428430    0.1983860  
C     2.1239590    3.3324550    0.0026400  
O     2.4654870    4.6651150   -0.0715410  
C     3.0332710    2.2860340   -0.0430150  
H    -0.8206130    1.6261700    0.2917350  
H     0.3923560    4.9605970    0.1252610  
H     3.4079610    4.7537850   -0.2779390  
H     4.0922990    2.4912030   -0.1727630  
H     2.2777570   -2.3416130   -0.0610170  
C    -0.2239200   -1.3580160    0.1703710  
C    -0.3830110   -2.7147520    0.3428980  
C    -1.7912360   -2.9317200    0.3154890  
C    -2.3881020   -1.5572310    0.1283050  
N    -1.4443490   -0.6502510    0.0329410  
C    -3.8091580   -1.3218830    0.0554430  
C    -4.5756430   -2.4609500    0.0936910  
O    -5.8893970   -2.4676340   -0.0634280  
C    -4.0058060   -3.8631570    0.2930490  
O    -4.8366010   -4.7750900    0.3229870  
C    -2.5766940   -4.0396030    0.4133390  
H     0.3778650   -3.4664560    0.4864400  
H    -6.1546840   -3.4150340    0.0419540  
H    -2.1931170   -5.0446760    0.5517730  
C    -2.9439190    2.2935620   -2.3787940  
C    -3.9765190    3.0801230   -1.9820360  
C    -4.7246240    2.3378830   -0.9912150  
C    -4.0386090    1.0262450   -0.8627480  
N    -2.9917980    1.0416480   -1.7687810  
C    -4.4274200    0.0168250   -0.0246780  
C    -5.5365000    0.3409500    0.9053050  
O    -5.8432090   -0.3754170    1.8423220  
C    -6.3337150    1.6811880    0.7065290  
O    -7.3336810    1.8675590    1.3833600  
C    -5.8351170    2.6435470   -0.2678580  
H    -4.2008320    4.0768270   -2.3331970  
H    -6.3719310    3.5804880   -0.3805180  
H    -2.1528120    2.5095420   -3.0850570  
H    -2.1697300    0.4707950   -1.5885840  
C     6.7005910    1.4034380    2.0582050  
C     7.6899160    0.6844380    1.4680590  
C     7.0623050   -0.2281080    0.5361000  
C     5.6063610    0.0357280    0.6162150  
N     5.4571590    1.0446050    1.5502690  
C     4.6351000   -0.6351300   -0.0835570  
C     5.1119240   -1.7809140   -0.8937320  
O     4.3563260   -2.5787020   -1.4239450  
C     6.6603520   -2.0019110   -1.0750790  
O     7.0308530   -2.8609530   -1.8599920  
C     7.5733830   -1.1865870   -0.2851800  
H     8.7488020    0.7634970    1.6662110  
H     8.6375430   -1.3827290   -0.3703520  
H     6.7674850    2.1684870    2.8205900  
H     4.5662140    1.3737300    1.8904340  
