62


C     2.0833130   -0.5457160    0.2259620  
C     3.4217000   -0.2337850    0.0968760  
C     3.4715500    1.1836980   -0.2269870  
C     2.1332260    1.6391890   -0.3102520  
N     1.2928360    0.5624050    0.0033830  
C     1.7969500    2.9438190   -0.6971580  
C     2.8384050    3.8186620   -0.9748110  
O     2.5661800    5.1035840   -1.3449120  
C     4.1834070    3.3866620   -0.8736810  
O     5.1106580    4.3672710   -1.1663170  
C     4.5067790    2.0898410   -0.5181470  
H     0.7734040    3.2776560   -0.8213580  
H     3.4208640    5.5426810   -1.4986510  
H     6.0032630    4.0173700   -1.0252880  
H     5.5443200    1.7858920   -0.4338510  
H     1.6245840   -1.4810900    0.5013380  
C    -1.4646400    3.1905110    2.0884490  
C    -2.6374050    2.6610500    1.6570600  
C    -2.3240130    1.5492720    0.7790790  
C    -0.8528390    1.4768870    0.7445600  
N    -0.3891450    2.4881550    1.5494410  
C    -0.1171930    0.5541000    0.0384090  
C    -0.8541160   -0.4911120   -0.6517850  
O    -0.3337620   -1.4355000   -1.2318190  
C    -2.4346890   -0.4332830   -0.6254490  
O    -3.0180970   -1.3249680   -1.2167060  
C    -3.1310800    0.6635520    0.0936680  
H    -3.6257060    2.9776120    1.9512520  
H    -1.2836190    4.0138190    2.7657820  
H     0.5850110    2.7368300    1.6416810  
C    -5.2176070    2.0390230   -0.1054820  
C    -4.5788700    0.8105090    0.0025220  
C    -5.6365110   -0.1882040    0.0103670  
C    -6.8665790    0.5095040   -0.0756260  
N    -6.5734920    1.8612440   -0.1513410  
C    -8.1144710   -0.1237090   -0.0619130  
C    -8.1246280   -1.5053320    0.0422440  
O    -9.3078960   -2.1818510    0.0508860  
C    -6.9047130   -2.2253220    0.1364680  
O    -7.0722700   -3.5935520    0.2331820  
C    -5.6771690   -1.5917430    0.1261130  
H    -7.2509520    2.5957880   -0.2871550  
H    -9.0513830    0.4193940   -0.1313860  
H    -9.0942490   -3.1298620    0.1024660  
H    -6.2095470   -4.0282520    0.1586890  
H    -4.7616620   -2.1712310    0.1680620  
H    -4.7850460    3.0238500   -0.2053980  
C     3.6797790   -4.4762100   -1.1458060  
C     3.2961700   -3.1868390   -0.9655230  
C     4.3531600   -2.5177010   -0.2303270  
C     5.4029050   -3.5363060   -0.0086960  
N     4.9240340   -4.7052170   -0.5599840  
C     6.5984770   -3.3187820    0.6088560  
C     6.8801800   -1.9818940    1.0800840  
O     7.9289550   -1.6490690    1.6170060  
C     5.7738240   -0.8741200    0.8818290  
O     6.0197080    0.2460520    1.3000680  
C     4.4904430   -1.2200490    0.2157210  
H     2.3771860   -2.7431720   -1.3187830  
H     7.3475960   -4.0917430    0.7490600  
H     3.1672290   -5.2811600   -1.6551700  
H     5.4488070   -5.5632580   -0.6226300  
