60


C    -1.9164210   -2.1185750    0.0260960  
C    -0.7435470   -1.4233370    0.3077450  
C     0.3182440   -2.3671340    0.3294720  
C    -0.2460000   -3.6455520    0.0531380  
N    -1.5933390   -3.4647960   -0.1197290  
C     0.5202030   -4.8132850   -0.0358320  
C     1.8866500   -4.6890890    0.1608450  
O     2.6883330   -5.7806490    0.0843340  
C     2.4834030   -3.4295820    0.4652150  
O     3.8363630   -3.4923770    0.7101680  
C     1.7151540   -2.2746740    0.5525550  
H    -0.6828620   -0.3618320    0.4770350  
H    -2.2764830   -4.1818050   -0.3154380  
H     0.0927120   -5.7842590   -0.2610780  
H     3.6005830   -5.4683270    0.2328660  
H     4.2824750   -2.6901410    0.3754270  
C    -3.5441440    1.9523300   -0.0370200  
C    -4.8901100    1.7203330   -0.1488470  
C    -5.0119740    0.2915160   -0.2090870  
C    -3.6008870   -0.2177230   -0.1040490  
N    -2.7569240    0.7686210   -0.0118560  
C    -3.2797570   -1.6460530   -0.1132370  
C    -4.3652610   -2.4693730   -0.2826880  
O    -4.2737760   -3.8172970   -0.3419080  
C    -5.7723450   -1.9903950   -0.4049650  
O    -6.6471500   -2.8561460   -0.5391430  
C    -6.0557440   -0.5592600   -0.3541820  
H    -5.6970420    2.4333670   -0.2272060  
H    -5.2073250   -4.1188570   -0.4592830  
H    -7.0913380   -0.2466250   -0.4392830  
C    -3.5655160    4.3616130    0.4021770  
C    -2.7113770    5.4047680    0.4859340  
C    -1.3808790    4.9088530    0.2044750  
C    -1.5234070    3.4575580   -0.0655700  
N    -2.8962650    3.1642650    0.0870560  
C    -0.4908940    2.6598630   -0.4281080  
C     0.8514390    3.2475850   -0.5024690  
O     1.8328600    2.5925400   -0.8153550  
C     1.0273690    4.7666300   -0.1615100  
O     2.1443790    5.2567640   -0.1726310  
C    -0.1783060    5.5357670    0.1600770  
H    -2.9726580    6.4242350    0.7315700  
H    -0.6070150    1.6108800   -0.6605290  
H    -0.0646460    6.5974170    0.3568450  
H    -4.6323300    4.3355980    0.5689920  
C     1.9795070   -0.2506940    2.0025630  
C     2.8071670    0.8114290    2.1345050  
C     3.7631440    0.7519090    1.0463900  
C     3.4053070   -0.4493840    0.2528260  
N     2.3157740   -1.0291360    0.8786880  
C     4.0670760   -0.8531250   -0.8705960  
C     5.1988720   -0.0539390   -1.3349440  
O     5.8315040   -0.3190430   -2.3454020  
C     5.6139640    1.2005560   -0.4851190  
O     6.5931120    1.8463650   -0.8201730  
C     4.8056780    1.5432230    0.6920900  
H     2.7698830    1.5636980    2.9090420  
H     3.7299820   -1.6747280   -1.4963340  
H     5.0769930    2.4385930    1.2426760  
H     1.1496980   -0.5677030    2.6191610  
