64


C    -0.3299020   -2.7397010   -0.1043250  
C    -1.0529370   -1.5586670   -0.1681090  
C    -2.3833150   -1.8282140    0.2825900  
C    -2.4254960   -3.2054570    0.6279740  
N    -1.1849170   -3.7370540    0.3543450  
C    -3.5626130   -3.8286150    1.1499650  
C    -4.6957090   -3.0494090    1.3307180  
O    -5.8345630   -3.6148450    1.8182270  
C    -4.6900670   -1.6720100    0.9997980  
O    -5.8958940   -1.0500660    1.2090990  
C    -3.5563410   -1.0369380    0.4707580  
H    -0.6574550   -0.6155120   -0.5115930  
H    -0.8739140   -4.6676640    0.5920200  
H    -3.5901640   -4.8823380    1.4077660  
H    -6.5178660   -2.9216280    1.8310750  
H    -5.8999870   -0.1941670    0.7400780  
C     3.4057140   -0.2160750    0.1170070  
C     2.0989170   -0.6770060    0.1893110  
C     2.0807050   -2.0254410   -0.2865230  
C     3.4239420   -2.3507810   -0.6320860  
N     4.1946190   -1.2434100   -0.3763860  
C     3.8110520   -3.6049830   -1.1105440  
C     2.8154540   -4.5625240   -1.2488620  
O     3.1260670   -5.8013460   -1.7245310  
C     1.4747490   -4.2650830   -0.9142440  
O     0.5898040   -5.3375830   -1.0905290  
C     1.0692610   -3.0149540   -0.4314610  
H     1.2450760   -0.0942660    0.4956050  
H     5.1638970   -1.1135210   -0.6279060  
H     4.8358330   -3.8459500   -1.3724350  
H     2.2885330   -6.2981200   -1.7587580  
H    -0.1766560   -5.0280120   -1.6017100  
C     1.9880000    2.8175360    2.9946270  
C     2.9397200    3.7690480    2.7439960  
C     3.8212440    3.2302400    1.7468400  
C     3.3365410    1.9383540    1.4164470  
N     2.2072990    1.7208170    2.1798910  
C     3.9647670    1.0856230    0.4761690  
C     5.1488650    1.5836840   -0.0827830  
O     5.8625680    0.8240070   -0.9798060  
C     5.6415200    2.8711680    0.2356560  
O     6.8124580    3.1918270   -0.4294050  
C     4.9926650    3.7040730    1.1263880  
H     3.0087650    4.7412330    3.2121160  
H     1.7650700    0.8204920    2.2847640  
H     6.6145180    1.3680340   -1.2744810  
H     7.0433810    4.1154340   -0.2523210  
H     5.3913860    4.6900610    1.3548920  
H     1.1529860    2.8286960    3.6808710  
C    -3.6206980    0.3652980    0.0886730  
C    -4.3345290    1.4121020    0.6366930  
C    -4.0792560    2.5932320   -0.1483980  
C    -3.1673770    2.1695110   -1.2385950  
N    -2.8974530    0.8310920   -1.0136580  
C    -2.7242650    2.9826670   -2.2288120  
C    -3.1435380    4.3829900   -2.2150250  
O    -2.7936520    5.1885690   -3.0639240  
C    -4.0779630    4.8654430   -1.0454440  
O    -4.4271020    6.0365810   -1.0149020  
C    -4.5007580    3.8843920   -0.0474230  
H    -4.8622740    1.3905060    1.5804540  
H    -2.0624640    2.6526720   -3.0237730  
H    -5.1598560    4.2252260    0.7453980  
H    -2.4732370    0.2145320   -1.6910760  
