60


C     2.9291640    0.8397510    0.1483760  
C     1.9697790   -0.1227780    0.4108310  
C     2.3353320   -1.3185390   -0.2789190  
C     3.5641380   -1.0495260   -0.9395010  
N     3.8801160    0.2874880   -0.7347170  
C     4.2814770   -2.0157840   -1.6398470  
C     3.7465450   -3.2983280   -1.6584200  
O     4.3983900   -4.2955820   -2.3046180  
C     2.5153180   -3.6012850   -1.0165910  
O     2.1286950   -4.9126160   -1.1703580  
C     1.7623350   -2.6275520   -0.3516530  
H     1.0984670    0.0418350    1.0220500  
H     4.8452430    0.5919600   -0.7037610  
H     5.2246600   -1.8137210   -2.1368130  
H     3.8582050   -5.0978780   -2.1620620  
H     1.8238070   -5.2264980   -0.2891970  
C    -2.2557320   -0.6139690   -0.4523230  
C    -0.9410360   -0.9646710   -0.7141910  
C    -0.6641090   -2.1024440    0.0921150  
C    -1.9524370   -2.3563190    0.8232690  
N    -2.8703190   -1.4895160    0.5105140  
C    -2.1014320   -3.4501990    1.7436150  
C    -1.0425320   -4.2769920    1.8856510  
O    -1.0366630   -5.3555020    2.6777460  
C     0.2493490   -4.0777520    1.1191970  
O     1.0957840   -4.9771050    1.2892780  
C     0.4471050   -2.9096110    0.2618340  
H    -0.2589650   -0.4798190   -1.3958480  
H    -3.0333690   -3.6023380    2.2756320  
H    -0.1528190   -5.7681140    2.5490350  
C    -2.6686090    1.4001470   -1.9301680  
C    -3.0316030    0.4444990   -0.9966360  
C    -4.4378840    0.7788350   -0.6834000  
C    -4.7258260    1.9618690   -1.5329940  
N    -3.6745170    2.3048880   -2.2537950  
C    -6.0005600    2.6099320   -1.5309040  
C    -6.9596850    2.1027860   -0.7125950  
O    -8.1960090    2.6022170   -0.6048270  
C    -6.7004330    0.9027740    0.1625590  
O    -7.6242240    0.5083850    0.8703530  
C    -5.3700760    0.2566390    0.1357900  
H    -6.1771670    3.4725290   -2.1635540  
H    -8.6530130    2.0335660    0.0551270  
H    -5.1914020   -0.6046560    0.7687780  
H    -1.7028030    1.5000610   -2.4121660  
C     5.0146350    4.3125550   -1.5742300  
C     4.7574950    5.2224470   -0.5999990  
C     3.9511940    4.5659690    0.4067380  
C     3.7708520    3.1787800   -0.0549100  
N     4.4824470    3.0674830   -1.2469430  
C     3.0328630    2.2125100    0.5893430  
C     2.3149220    2.6656750    1.8112900  
O     1.5383920    1.9581080    2.4275520  
C     2.5617890    4.1276030    2.3500520  
O     2.0225530    4.4454910    3.4001320  
C     3.3990060    5.0211380    1.5692160  
H     5.0892720    6.2504100   -0.5765410  
H     3.5413180    6.0349660    1.9294560  
H     5.5666260    4.4317360   -2.4973980  
H     4.2744440    2.3474360   -1.9257960  
