60


C     1.5744770    0.0132840   -0.1966030  
C     2.9122620    0.2694580    0.0095520  
C     3.0335210    1.6995580    0.2248170  
C     1.7345660    2.2461380    0.1202840  
N     0.8501630    1.1880870   -0.1526780  
C     1.4671080    3.5977780    0.3512450  
C     2.5389780    4.4193280    0.6709270  
O     2.3264350    5.7456130    0.8959280  
C     3.8488430    3.8889730    0.7795970  
O     4.8039600    4.8223110    1.1185040  
C     4.1046420    2.5444290    0.5679820  
H     0.4748280    4.0230510    0.2856720  
H     3.1833920    6.1440570    1.1270030  
H     5.6598690    4.3872160    1.2481040  
H     5.1082540    2.1503390    0.7067410  
H     1.0805720   -0.9216060   -0.4068180  
C    -2.2358100   -1.2299800    1.6393520  
C    -3.3769140   -0.7017370    1.1050180  
C    -2.8895210    0.3888400    0.2266930  
C    -1.4112080    0.3369380    0.3704260  
N    -1.0460040   -0.6042610    1.1955480  
C    -0.5432070    1.2674430   -0.3329350  
C    -1.1427230    2.1955410   -1.1382970  
O    -0.4688480    3.0866120   -1.8855340  
C    -2.6233920    2.2945030   -1.2508010  
O    -3.0872500    3.1599670   -1.9950540  
C    -3.4831760    1.3433370   -0.5112860  
H    -1.1616650    3.6157260   -2.3410380  
H    -4.5558880    1.4664640   -0.6190470  
H    -2.1601450   -2.0655150    2.3241950  
C    -5.2633460   -1.4655140    2.5967700  
C    -4.7441300   -1.0730470    1.3932350  
C    -5.8894060   -1.1802800    0.4620660  
C    -7.0167450   -1.6475320    1.3237260  
N    -6.6339350   -1.8127740    2.5619920  
C    -8.3288100   -1.8887590    0.7903170  
C    -8.5169170   -1.7077090   -0.5402210  
O    -9.6861520   -1.8976070   -1.1680480  
C    -7.3943010   -1.2751270   -1.4416940  
O    -7.6342700   -1.1397920   -2.6385900  
C    -6.0527440   -1.0273610   -0.8650090  
H    -9.1273610   -2.2167370    1.4463680  
H    -9.5166450   -1.7008440   -2.1152610  
H    -5.2699000   -0.7363020   -1.5582250  
H    -4.7399420   -1.5062430    3.5448510  
C     3.9563920   -0.7248480   -0.0144550  
C     3.9108250   -2.0666890    0.2727990  
C     5.2163890   -2.6224890    0.0500460  
C     6.0673530   -1.4959560   -0.4083550  
N     5.2695750   -0.3615290   -0.3673570  
C     7.3640520   -1.6179140   -0.7816280  
C     7.9904380   -2.9366600   -0.6974700  
O     9.1551720   -3.1363780   -1.0073190  
C     7.1214690   -4.1377020   -0.1719210  
O     7.6387160   -5.2433150   -0.0877920  
C     5.7293590   -3.8797570    0.1809210  
H     3.0515340   -2.5951530    0.6605030  
H     7.9691210   -0.7845470   -1.1263570  
H     5.1334570   -4.7200780    0.5241530  
H     5.4598860    0.4553090   -0.9307220  
