60


C     0.9590490   -0.4796110    0.9879370  
C     2.3182370   -0.4581630    0.9796060  
C     2.7330140    0.7899700    0.3889720  
C     1.5601470    1.5084700    0.0575170  
N     0.4636970    0.7152720    0.4430780  
C     1.5937410    2.7546140   -0.5774630  
C     2.8432510    3.3021740   -0.8369550  
O     2.9279670    4.5094100   -1.4570850  
C     4.0280830    2.6156820   -0.4784290  
O     5.1844430    3.2887360   -0.8012160  
C     4.0031880    1.3559090    0.1226970  
H     2.9606510   -1.2385480    1.3606460  
H     0.7096600    3.2844730   -0.9093340  
H     3.8716910    4.6949970   -1.6070840  
H     5.9291220    2.6647230   -0.7471090  
H     0.2683150   -1.2152040    1.3711570  
C    -0.8801180    1.0052910    0.3455490  
C    -1.9396140    0.1405330    0.2409340  
C    -3.1401980    0.9251880    0.2516910  
C    -2.7079520    2.3385300    0.3601820  
N    -1.3147980    2.3306580    0.3648000  
C    -3.5383160    3.4040520    0.4248290  
C    -4.9781430    3.1598110    0.3512100  
O    -5.8025900    4.0582310    0.3738680  
C    -5.4724210    1.6765230    0.2328120  
O    -6.6724520    1.4599750    0.2723190  
C    -4.4704480    0.5948580    0.1437410  
H    -1.8739880   -0.9290190    0.1165420  
H    -3.1925680    4.4307570    0.4953560  
H    -0.7660760    3.0740940    0.7741060  
C    -4.0415830   -3.2606520    2.4149330  
C    -3.9016570   -1.9617540    2.0535350  
C    -4.6758350   -1.8233570    0.8240000  
C    -5.2361410   -3.1911060    0.5993610  
N    -4.8602280   -4.0248560    1.5293810  
C    -6.1037870   -3.4852870   -0.5113100  
C    -6.3999020   -2.4756460   -1.3610140  
O    -7.1857340   -2.6052050   -2.4415030  
C    -5.8212990   -1.0951730   -1.1903570  
O    -6.0422680   -0.2826420   -2.0812320  
C    -4.9577280   -0.7846890   -0.0047970  
H    -3.3556730   -1.1810660    2.5630620  
H    -6.4973460   -4.4870370   -0.6427670  
H    -7.1797360   -1.7243170   -2.8765990  
H    -3.6205950   -3.7576080    3.2814020  
C     6.2795960    1.1202810    1.2357340  
C     5.2636600    0.6564890    0.4451730  
C     5.6777850   -0.6728840   -0.0090950  
C     7.0079610   -0.9289150    0.5947380  
N     7.3132710    0.2011970    1.3320980  
C     7.7312440   -2.0621890    0.4141210  
C     7.1746440   -3.1112180   -0.4378160  
O     7.7483620   -4.1661950   -0.6558880  
C     5.7724650   -2.8556130   -1.1016750  
O     5.2922440   -3.7136860   -1.8230240  
C     5.0891180   -1.5842260   -0.8252360  
H     8.7043420   -2.2294750    0.8655300  
H     4.1220010   -1.4190400   -1.2887550  
H     6.3366370    2.0566780    1.7764230  
H     8.1499440    0.3233540    1.8812750  
