58


C     1.6774750   -0.0654710    0.1661340  
C     1.0454180    1.1403150    0.0066930  
C     2.0885630    2.1135970   -0.3126350  
C     3.3658030    1.3644680   -0.3014390  
N     3.0445280    0.0295780   -0.0124730  
C     4.5746380    1.9020100   -0.5809250  
C     4.6448340    3.3305090   -0.9003570  
O     5.6923160    3.8981600   -1.1590240  
C     3.3054700    4.1451000   -0.9267520  
O     3.3335870    5.3330100   -1.2003470  
C     2.0552590    3.4345290   -0.6288250  
H     5.4978460    1.3343150   -0.5770980  
H     1.1364140    4.0052510   -0.7110120  
H     1.2457910   -1.0192160    0.4387940  
C     3.3966640   -3.7997130   -2.1151130  
C     3.0232180   -2.5463770   -1.7315480  
C     3.8737520   -2.1698270   -0.6303090  
C     4.7839760   -3.3174500   -0.3930400  
N     4.4290880   -4.2762700   -1.3259440  
C     5.7585750   -3.3545630    0.5490180  
C     5.9314470   -2.1886970    1.4117470  
O     6.7986330   -2.1101340    2.2645030  
C     4.9478870   -0.9743640    1.2336840  
O     5.0146440   -0.0345290    2.0051560  
C     3.9576560   -1.0407140    0.1403160  
H     2.2508170   -1.9451670   -2.1869740  
H     6.4209850   -4.2020450    0.6932770  
H     3.0022770   -4.4123040   -2.9151780  
H     4.8937420   -5.1632500   -1.4449650  
C    -0.3762230    1.3541200    0.1520070  
C    -1.4100050    0.4592720    0.0118870  
C    -2.6433960    1.1503700    0.2731220  
C    -2.2688010    2.5487960    0.5865230  
N    -0.8887430    2.6165750    0.4673650  
C    -3.1437050    3.5348350    0.9008240  
C    -4.5679170    3.2134110    0.9079220  
O    -5.4336710    4.0378270    1.1531140  
C    -4.9988070    1.7360470    0.5919060  
O    -6.1751420    1.4372950    0.7015680  
C    -3.9550690    0.7442960    0.2426230  
H    -1.3178550   -0.5625630   -0.3254260  
H    -2.8443830    4.5558270    1.1166560  
H    -0.3326090    3.3659370    0.8515250  
C    -3.1705610   -3.1001760    2.2443070  
C    -3.8738500   -3.9302870    1.4314960  
C    -4.4507870   -3.1179950    0.3796220  
C    -4.0128760   -1.7276180    0.6484390  
N    -3.2107870   -1.7912120    1.7758890  
C    -4.3762660   -0.6306210   -0.0773220  
C    -5.2395850   -0.8742610   -1.2553910  
O    -5.5476290    0.0080130   -2.0359560  
C    -5.7230710   -2.3423140   -1.5489550  
O    -6.4600860   -2.5353060   -2.5030930  
C    -5.2607840   -3.4163700   -0.6717830  
H    -3.9918480   -4.9975530    1.5502170  
H    -5.6043280   -4.4247210   -0.8816100  
H    -2.6151920   -3.3303050    3.1442890  
H    -2.8950730   -0.9787160    2.2830200  
