58


C     0.3996400    0.1446230   -1.2132250  
C     0.2019590    1.3525720   -0.6041130  
C     1.4891990    1.7021890    0.0060770  
C     2.4164550    0.5751120   -0.2926190  
N     1.6764090   -0.3386050   -1.0108520  
C     3.7331380    0.4671650    0.1223880  
C     4.2247800    1.6320300    0.8743380  
O     5.3739610    1.7383410    1.2958560  
C     3.2555670    2.8218660    1.2169810  
O     3.6949250    3.7395260    1.8888950  
C     1.8788210    2.7693660    0.7436720  
H     1.2303450    3.6046930    0.9740490  
H    -0.2982050   -0.4189550   -1.8176890  
H     2.1590480   -0.9606200   -1.6583150  
C    -4.0737670    0.1527570    0.0235120  
C    -2.6999640    0.1093020   -0.0947830  
C    -2.2867020    1.4569640   -0.4061660  
C    -3.5685150    2.2152440   -0.4773450  
N    -4.6004790    1.4621320   -0.2275340  
C    -3.6070150    3.6233930   -0.7779920  
C    -2.4251140    4.2552230   -0.9505620  
O    -2.3025570    5.5652730   -1.2133370  
C    -1.1067390    3.5281790   -0.8629160  
O    -0.0942930    4.2003890   -1.0605170  
C    -1.0723470    2.0678650   -0.5821320  
H    -2.0472590   -0.7144070    0.1606450  
H    -4.5575640    4.1414920   -0.8339740  
H    -1.3370010    5.7267530   -1.2985830  
C    -3.9522250   -4.0786420   -1.0991570  
C    -5.1045640   -4.5027340   -0.5222810  
C    -5.6979700   -3.3602010    0.1420640  
C    -4.7781380   -2.2254860   -0.0872360  
N    -3.7284540   -2.7312910   -0.8193450  
C    -4.9900130   -0.9285220    0.3236200  
C    -6.2147310   -0.6938990    1.1327470  
O    -6.4458240    0.3518010    1.7069790  
C    -7.2291740   -1.8798210    1.3270260  
O    -8.2865410   -1.6581720    1.8942420  
C    -6.8622240   -3.2052620    0.8290070  
H    -5.5110440   -5.5030160   -0.5540960  
H    -7.5594570   -4.0207030    0.9958540  
H    -3.2347420   -4.6293200   -1.6928130  
H    -3.0394090   -2.1421910   -1.2647600  
C     6.7665090   -1.6025060    2.6354340  
C     7.1310210   -2.5993930    1.7946830  
C     6.3771250   -2.4183570    0.5740150  
C     5.5161670   -1.2178680    0.7848220  
N     5.7754300   -0.8002980    2.0675090  
C     4.6148440   -0.7015770   -0.1354710  
C     4.5835440   -1.4180530   -1.4174680  
O     3.8334670   -1.1292840   -2.3496680  
C     5.5173180   -2.6634770   -1.6681990  
O     5.4566560   -3.2093560   -2.7573650  
C     6.3777290   -3.1176070   -0.5886250  
H     7.8470210   -3.3847870    1.9873150  
H     7.0021220   -3.9891600   -0.7570660  
H     7.1184210   -1.3794790    3.6340430  
H     5.6413390    0.1753360    2.3156900  
