60


C    -0.3829240   -0.6375550    2.7451870  
C     0.4639530    0.2753280    2.1753300  
C    -0.2484800    0.9014290    1.0928770  
C    -1.5364260    0.3102180    1.0593470  
N    -1.5805840   -0.6397550    2.0567490  
C    -2.5678270    0.7233360    0.1782580  
C    -2.2450600    1.8344160   -0.6149050  
O    -3.1635820    2.3756270   -1.4649220  
C    -0.9584530    2.4308920   -0.6117580  
O    -0.8412650    3.4602490   -1.5103300  
C     0.0816030    1.9582560    0.1921640  
H     1.4662720    0.4993010    2.5093470  
H    -2.4331690   -1.0751860    2.3759860  
H    -2.7080490    3.1374350   -1.8817770  
H    -0.3116650    4.1718080   -1.0654280  
H    -0.2357480   -1.2939220    3.5910210  
C     3.9687930   -0.0951630   -0.1245900  
C     4.8027510    0.9934830   -0.0544250  
C     3.9823350    2.1685020    0.0539770  
C     2.5730790    1.7004280    0.0547420  
N     2.6317400    0.3427070   -0.0570590  
C     1.4558560    2.5097490    0.1328910  
C     1.7292210    3.9417520    0.1078490  
O     0.8584940    4.8076190   -0.0238620  
C     3.2080240    4.4604580    0.2310490  
O     3.3905510    5.6592440    0.3660460  
C     4.2936770    3.4895040    0.1536800  
H     5.8789910    0.9538020   -0.0884070  
H     5.3138650    3.8572360    0.1931170  
H     1.8328150   -0.2762010   -0.0489400  
C     7.8733460   -2.1209230   -0.3729250  
C     7.5085430   -3.4167120   -0.4786590  
C     6.0505120   -3.4072010   -0.4506160  
C     5.6927950   -1.9564590   -0.3183910  
N     6.7600220   -1.2201690   -0.2737500  
C     4.2982350   -1.5032520   -0.2536340  
C     3.3591640   -2.5008080   -0.3236420  
O     2.0329340   -2.2900120   -0.2832740  
C     3.7028440   -3.9568220   -0.4516260  
O     2.7624660   -4.7493610   -0.4965860  
C     5.1115510   -4.3694360   -0.5150100  
H     8.1418870   -4.2882010   -0.5664550  
H     1.6227120   -3.1851200   -0.3477120  
H     5.3192070   -5.4307450   -0.6096400  
H     8.8716020   -1.7018170   -0.3553980  
C    -3.8592810    0.0570080    0.1281280  
C    -4.2037210   -1.2207090    0.5212480  
C    -5.6034710   -1.4098590    0.2583120  
C    -6.0837910   -0.1329300   -0.3276470  
N    -4.9932950    0.7072190   -0.3622350  
C    -7.3612870    0.0922560   -0.7283500  
C    -8.3365710   -0.9832610   -0.5776930  
O    -9.5071070   -0.8722360   -0.9121090  
C    -7.8505460   -2.3446810    0.0443980  
O    -8.6585390   -3.2533410    0.1787760  
C    -6.4491950   -2.4643760    0.4367900  
H    -3.5261200   -1.9886020    0.8632530  
H    -7.6948720    1.0326850   -1.1561170  
H    -6.1253120   -3.4094060    0.8628670  
H    -4.9447060    1.6034250   -0.8257060  
