58


C    -4.3390250   -0.0333070   -0.0579830  
C    -5.0439860    1.1559290   -0.0448020  
C    -4.1044540    2.2292340   -0.2081660  
C    -2.7716180    1.5975650   -0.3278270  
N    -2.9862970    0.2438190   -0.2342860  
C    -1.5803300    2.2708140   -0.4824690  
C    -1.6830840    3.7467260   -0.5176700  
O    -0.7138670    4.4793000   -0.6371300  
C    -3.0984500    4.4307560   -0.4104560  
O    -3.1505230    5.6515150   -0.4451830  
C    -4.2687770    3.5833050   -0.2603190  
H    -6.1173610    1.2744710   -0.0418250  
H    -5.2398520    4.0622060   -0.1821710  
H    -2.2976270   -0.4938930   -0.3114350  
C    -0.0706590    0.4006830   -1.2896600  
C    -0.3017580    1.5893330   -0.6521790  
C     1.0353690    1.9701340   -0.1318520  
C     1.9327620    0.8639140   -0.5646090  
N     1.2712160   -0.0346410   -1.2405590  
C     3.3640510    0.8216970   -0.2439920  
C     3.8172500    1.8814060    0.4992610  
O     5.1049970    2.0507180    0.8682240  
C     2.9370620    2.9866010    0.9601940  
O     3.4511560    3.8912370    1.6245920  
C     1.5034160    2.9915080    0.6054810  
H     5.1077410    2.9000260    1.3674600  
H     0.9128760    3.8385870    0.9302530  
H    -0.7784140   -0.2039120   -1.8445510  
C     3.9626460   -1.0459880   -1.8370840  
C     4.1897480   -0.2802720   -0.7217390  
C     5.4141000   -0.8724150   -0.1321620  
C     5.7714680   -1.9748460   -1.0760430  
N     4.9240640   -2.0559730   -2.0658750  
C     6.9118250   -2.8260410   -0.8684680  
C     7.6558680   -2.6271810    0.2451520  
O     8.7381200   -3.3487730    0.5763100  
C     7.3047150   -1.5523370    1.2351180  
O     8.0189710   -1.4392280    2.2303970  
C     6.1373750   -0.6805230    0.9884700  
H     7.1391090   -3.6051170   -1.5875950  
H     9.0491940   -2.9710810    1.4287820  
H     5.9413790    0.0941520    1.7179660  
H     3.1358430   -0.9490290   -2.5247830  
C    -8.0401440   -1.6972570    1.6456280  
C    -7.8582320   -3.0050020    1.3453940  
C    -6.5751110   -3.1182660    0.6809890  
C    -6.0270190   -1.7440080    0.6016190  
N    -6.9676120   -0.9301450    1.1757500  
C    -4.8024150   -1.4030530    0.0614310  
C    -3.9532770   -2.5329830   -0.3590390  
O    -2.7802280   -2.4127210   -0.6895270  
C    -4.5638870   -3.9802910   -0.3830150  
O    -3.8997960   -4.8803270   -0.8656800  
C    -5.8933110   -4.1863490    0.1907310  
H    -8.5342100   -3.8182790    1.5647890  
H    -6.2853890   -5.1982520    0.2114280  
H    -8.8615050   -1.2103680    2.1536760  
H    -6.7847160    0.0283920    1.4371760  
