60


C    -2.4501760   -0.8080410   -0.4947660  
C    -1.5498360    0.2306510   -0.5240010  
C    -2.3155240    1.4415840   -0.3175700  
C    -3.6723320    1.0636390   -0.1822650  
N    -3.7390700   -0.3260520   -0.2889240  
C    -4.6957890    1.9902960    0.0445010  
C    -4.3412010    3.3276530    0.1184850  
O    -5.2982470    4.2715740    0.3378480  
C    -2.9859830    3.7284040   -0.0336170  
O    -2.7962090    5.0915520    0.0560110  
C    -1.9782640    2.8085100   -0.2535350  
H    -5.7369910    1.7062340    0.1371280  
H    -4.8571170    5.1386180    0.3392330  
H    -1.8551350    5.2986610   -0.0439350  
H    -0.9486250    3.1374160   -0.3703100  
H    -2.2848590   -1.8682330   -0.6277420  
C     0.4813500   -0.6031650   -1.7790030  
C    -0.1137420    0.1008370   -0.7729270  
C     0.9734450    0.6610390    0.0248860  
C     2.2367840    0.2305480   -0.6121320  
N     1.8683220   -0.5101010   -1.7125520  
C     3.5061490    0.5080410   -0.1525180  
C     3.5707440    1.2936670    1.0978040  
O     4.6196000    1.6044510    1.6399150  
C     2.2329480    1.7720910    1.7801900  
O     2.3146730    2.4259040    2.8083390  
C     0.9640560    1.4029090    1.1662010  
H     0.0468190    1.7217310    1.6497650  
H     0.0148580   -1.1565570   -2.5830770  
H     2.5180080   -1.0546390   -2.2606660  
C     4.8707840   -0.0309230   -2.2183860  
C     4.7081770    0.0889070   -0.8614660  
C     6.0134590   -0.3693740   -0.3162350  
C     6.8050560   -0.7299670   -1.5251720  
N     6.1310600   -0.5166940   -2.6254470  
C     8.1467750   -1.2403110   -1.4380030  
C     8.6829040   -1.4069100   -0.2052020  
O     9.9171940   -1.8810570    0.0271370  
C     7.9078040   -1.0674140    1.0346540  
O     8.4518930   -1.2558150    2.1210290  
C     6.5349710   -0.5237260    0.9153930  
H     8.6908470   -1.4840830   -2.3437360  
H    10.0149750   -1.8853780    1.0048120  
H     6.0315260   -0.2489860    1.8336800  
H     4.1628130    0.2565390   -2.9877830  
C    -4.5839080   -3.4861510    2.5398680  
C    -5.7934090   -3.8857810    2.0706090  
C    -6.1191380   -3.0431700    0.9376050  
C    -4.9777720   -2.1097640    0.7886220  
N    -4.0742470   -2.4393190    1.7744300  
C    -4.8898870   -1.1354550   -0.1641300  
C    -6.0021200   -1.0090280   -1.1208110  
O    -6.0054860   -0.2022520   -2.0335570  
C    -7.2350460   -1.9768290   -0.9503450  
O    -8.1805640   -1.8448490   -1.7100790  
C    -7.1965720   -2.9840880    0.1096030  
H    -6.4047890   -4.6828260    2.4675470  
H    -8.0471560   -3.6518830    0.2026890  
H    -4.0119750   -3.8645330    3.3766650  
H    -3.2267180   -1.9250780    1.9619990  
