58


C     6.2143810    1.8407270    1.5223330  
C     7.5245830    1.5134190    1.4225780  
C     7.6418310    0.4982500    0.3969140  
C     6.2672790    0.2612970   -0.1085780  
N     5.4242500    1.0949230    0.6324650  
C     5.9637030   -0.5860450   -1.1228950  
C     7.0488230   -1.3544910   -1.7360660  
O     6.8643340   -2.1424730   -2.6494140  
C     8.5065820   -1.1471500   -1.1885200  
O     9.4209330   -1.7902220   -1.6774850  
C     8.7077140   -0.1731530   -0.1110300  
H     8.3332020    1.9243140    2.0095890  
H     4.9612390   -0.7215800   -1.5134300  
H     9.7223910   -0.0134280    0.2407920  
H     5.7242530    2.5462320    2.1797690  
C     3.3517110    2.4217120    0.3337070  
C     4.0427120    1.2611680    0.4672900  
C     3.0167480    0.2112260    0.5666730  
C     1.7268050    0.9553930    0.4323080  
N     1.9463350    2.2351070    0.3068260  
C     0.4266420    0.2823890    0.4459280  
C     0.4746200   -1.0792410    0.6807290  
O    -0.5790700   -1.8827930    0.7725150  
C     1.7734390   -1.8241370    0.8758400  
O     1.7052340   -3.0324220    1.0886350  
C     3.0589350   -1.1108770    0.7967640  
H    -0.2093720   -2.7812080    0.9426280  
H     3.9666580   -1.6937400    0.9143640  
H     3.7515040    3.4254970    0.2555310  
C    -0.8003380    1.0303350    0.2411740  
C    -0.9604870    2.3819050    0.0743240  
C    -2.3782230    2.5924940   -0.0972320  
C    -2.9711900    1.2194400   -0.0113960  
N    -2.0595120    0.3205250    0.1826500  
C    -4.4012460    0.9876220   -0.1531980  
C    -5.1703720    2.0966510   -0.3434670  
O    -6.5025580    2.0674660   -0.4411980  
C    -4.5947030    3.4916240   -0.4275180  
O    -5.3935790    4.4119140   -0.6011040  
C    -3.1486260    3.6855480   -0.3005660  
H    -0.1853620    3.1304490    0.0706140  
H    -6.7725340    3.0035270   -0.5857640  
H    -2.7688300    4.6996610   -0.3751830  
C    -4.4210680   -2.4476210    2.7390010  
C    -4.1472070   -1.2488030    2.1764450  
C    -4.8201210   -1.2716470    0.8810330  
C    -5.4715500   -2.6196030    0.8397830  
N    -5.2400360   -3.2984220    1.9260340  
C    -6.2671110   -3.0469530   -0.2819820  
C    -6.4103830   -2.1842300   -1.3126100  
O    -7.1110100   -2.4492180   -2.4281420  
C    -5.7627160   -0.8247340   -1.3104260  
O    -5.8944360   -0.1422240   -2.3221600  
C    -4.9751700   -0.3720980   -0.1220070  
H    -3.5429680   -0.4459140    2.5700240  
H    -6.7241330   -4.0302260   -0.2812250  
H    -7.0091760   -1.6521630   -2.9933790  
H    -4.0988990   -2.8191100    3.7046800  
