60


C    -1.1250250   -0.0424860   -1.3298020  
C    -0.6515500   -1.0693480   -0.5307240  
C    -1.8122340   -1.6225220    0.1406040  
C    -2.9333340   -0.8724340   -0.2904230  
N    -2.4894360    0.0670760   -1.1966990  
C    -4.2375930   -1.1169820    0.1837840  
C    -4.3999080   -2.1567030    1.0967380  
O    -5.6404260   -2.4531000    1.5720930  
C    -3.2830990   -2.9250310    1.5154500  
O    -3.6157520   -3.9224600    2.4072810  
C    -2.0045080   -2.6692670    1.0628990  
H    -3.0658740    0.7709650   -1.6323040  
H    -5.5403260   -3.2095660    2.1776400  
H    -2.8370970   -4.4689030    2.5925870  
H    -1.1741410   -3.2926570    1.3753230  
H    -0.5945080    0.5750900   -2.0414180  
C     2.9065300    1.4025230   -0.1001880  
C     3.9003450    0.4555130   -0.1330010  
C     3.2236240   -0.8395150   -0.2645080  
C     1.7748720   -0.5440310   -0.3174450  
N     1.6634180    0.8355790   -0.2403600  
C     0.7580530   -1.4574750   -0.4111310  
C     1.1748100   -2.8740070   -0.4016260  
O     0.3840980   -3.8035770   -0.4393410  
C     2.7096520   -3.2152220   -0.3284510  
O     3.0359110   -4.3915510   -0.3020620  
C     3.6749830   -2.1214080   -0.2778250  
H     4.7260600   -2.3799080   -0.2580910  
H     3.0101640    2.4763310   -0.0197600  
H     0.7798360    1.3192280   -0.1689960  
C     6.2808300    3.3005450    2.3477950  
C     5.2477840    2.5580090    1.8785570  
C     5.8243200    1.7162240    0.8340650  
C     7.2630000    2.0975710    0.8257710  
N     7.5241490    3.0269830    1.7038960  
C     8.2132430    1.4733090   -0.0596480  
C     7.7577620    0.5090720   -0.8900170  
O     8.5322750   -0.1691460   -1.7551620  
C     6.3096620    0.1065420   -0.9211060  
O     5.9887090   -0.7584420   -1.7329680  
C     5.3208510    0.7701460   -0.0101220  
H     4.2247240    2.5538100    2.2262880  
H     9.2549570    1.7733240   -0.0375030  
H     7.9275170   -0.7800340   -2.2289950  
H     6.2618860    4.0411540    3.1385070  
C    -6.5147860   -0.9066260   -0.8377360  
C    -7.4023570    0.0592450   -1.1763110  
C    -6.8210720    1.3305570   -0.8033310  
C    -5.4998550    1.0165590   -0.2006220  
N    -5.3539110   -0.3635730   -0.2646170  
C    -4.6501820    1.9514140    0.3043260  
C    -5.0365960    3.3571430    0.2299210  
O    -4.3273950    4.2632580    0.6427640  
C    -6.4233320    3.7117470   -0.4202150  
O    -6.7568040    4.8835780   -0.5007120  
C    -7.2614440    2.6120980   -0.9056280  
H    -8.3681610   -0.0909980   -1.6364630  
H    -3.7093400    1.7029770    0.7826070  
H    -8.2257730    2.8667450   -1.3349680  
H    -6.5850600   -1.9794650   -0.9454480  
