62


C     0.8467300   -0.8908870   -0.9098250  
C     2.2095450   -0.9312270   -0.7826430  
C     2.6236710    0.3365940   -0.2562660  
C     1.4523350    1.1114280   -0.0733770  
N     0.3654430    0.3432580   -0.4807030  
C     1.4686510    2.3954590    0.4807530  
C     2.6972310    2.9170270    0.8518430  
O     2.7669490    4.1695190    1.3801410  
C     3.8902630    2.1703840    0.6801940  
O     5.0197830    2.8495720    1.0713830  
C     3.8845490    0.8798610    0.1270510  
H     2.8390450   -1.7711060   -1.0365370  
H     0.5750490    2.9957530    0.5996620  
H     3.7088220    4.3782310    1.5087190  
H     5.8139810    2.3585090    0.7867350  
H     0.1610060   -1.6227030   -1.3133330  
C    -2.9493880   -1.5934450    1.5161380  
C    -3.9783600   -0.8044050    1.0949130  
C    -3.3757350    0.2350120    0.2594570  
C    -1.9191680   -0.0358490    0.2390140  
N    -1.7224000   -1.1474870    1.0180990  
C    -1.0001920    0.7102770   -0.4455520  
C    -1.4829830    1.8690700   -1.2074360  
O    -0.7529150    2.5825580   -1.8745070  
C    -3.0228810    2.1974250   -1.1453530  
O    -3.4271620    3.1842390   -1.7376390  
C    -3.9038480    1.3086670   -0.3842450  
H    -4.9629840    1.5415560   -0.3591660  
H    -2.9876980   -2.4745170    2.1424400  
H    -0.8221570   -1.5652650    1.1980470  
C    -5.8809260   -1.1361910    2.7216800  
C    -5.3909940   -0.9408700    1.4477130  
C    -6.5386900   -0.9323810    0.5656810  
C    -7.6862280   -1.1287360    1.3745720  
N    -7.2521110   -1.2568020    2.6803350  
C    -8.9837460   -1.1861180    0.8506270  
C    -9.1262340   -1.0453420   -0.5203750  
O   -10.3670570   -1.0858980   -1.0832360  
C    -7.9870530   -0.8619280   -1.3503380  
O    -8.2910180   -0.7528360   -2.6928650  
C    -6.7077890   -0.8110070   -0.8292820  
H    -7.8505880   -1.3604940    3.4847910  
H    -9.8631630   -1.3320940    1.4694520  
H   -10.2543500   -0.9522220   -2.0403710  
H    -7.4918460   -0.5269880   -3.1915870  
H    -5.8529470   -0.6809300   -1.4884810  
H    -5.3488370   -1.1725710    3.6619310  
C     5.1231670    0.1458930   -0.0753210  
C     5.4939690   -0.7192500   -1.0681460  
C     6.8396910   -1.1658880   -0.8199370  
C     7.2648050   -0.4999980    0.4306500  
N     6.2219410    0.3588180    0.8118700  
C     8.4479470   -0.7132460    1.0476570  
C     9.3991690   -1.6391980    0.4235920  
O    10.4888460   -1.8897280    0.9119670  
C     8.9916650   -2.3148670   -0.9355710  
O     9.7824700   -3.0767110   -1.4727770  
C     7.6730030   -2.0126590   -1.4868290  
H     4.8980250   -0.9660100   -1.9347270  
H     8.7419580   -0.2227550    1.9708760  
H     7.3905940   -2.5019930   -2.4139830  
H     6.0237510    0.4637490    1.8023550  
