60


C    -1.1932010   -1.3870470   -0.0797260  
C     0.1358150   -1.6939100   -0.3628100  
C     0.8960190   -0.5092360   -0.1854180  
C    -0.0202090    0.5080140    0.2221180  
N    -1.2644940   -0.0462610    0.2734160  
C     0.3917730    1.8187200    0.5211540  
C     1.7499260    2.1005570    0.3981590  
O     2.2033250    3.3430620    0.6758680  
C     2.6706390    1.1015580   -0.0389420  
O     3.9510090    1.5892720   -0.1520490  
C     2.2809150   -0.2002610   -0.3302240  
H     0.5053400   -2.6688930   -0.6462940  
H    -2.1442070    0.4015510    0.4942180  
H     3.1648900    3.3473930    0.5163310  
H     4.5747440    0.8735010   -0.3548940  
C     3.1132240   -1.9908680   -1.9194690  
C     3.2461730   -1.2059780   -0.8068630  
C     4.5256450   -1.5731110   -0.2032420  
C     5.1160610   -2.6217150   -1.0728970  
N     4.1993100   -2.8321150   -2.0871980  
C     6.3128460   -3.2191240   -0.8536710  
C     7.0873360   -2.8170090    0.3207040  
O     8.1785820   -3.2912710    0.5899130  
C     6.4715820   -1.7298460    1.2736220  
O     7.0879940   -1.3978330    2.2722200  
C     5.1677130   -1.1526440    0.9223930  
H     6.7257280   -3.9863220   -1.5014840  
H     4.7457940   -0.4210200    1.6048500  
H     2.3018160   -2.0040900   -2.6352960  
H     4.3267530   -3.4704300   -2.8572780  
C    -1.1477830    2.8512800    2.2045210  
C    -1.9453550    3.9399650    2.3316050  
C    -1.8593610    4.6857270    1.0933500  
C    -0.9313310    3.9275360    0.2190250  
N    -0.5337970    2.8056090    0.9446270  
C    -0.5859210    4.2989480   -1.0379150  
C    -1.1591070    5.5288260   -1.5790770  
O    -0.9086920    5.9415370   -2.7013650  
C    -2.1454860    6.3507660   -0.6699810  
O    -2.6337950    7.3811120   -1.1072880  
C    -2.4401530    5.8397760    0.6711850  
H    -2.5316760    4.2067420    3.1990070  
H     0.0983800    3.7313400   -1.6588680  
H    -3.1247180    6.4123860    1.2896690  
H    -0.9347920    2.0640330    2.9159530  
C    -2.3908760   -2.1652850   -0.0914930  
C    -2.6019890   -3.4894790   -0.3914060  
C    -4.0106800   -3.7021680   -0.2285370  
C    -4.5468190   -2.3589600    0.1898950  
N    -3.5990940   -1.4696040    0.2682750  
C    -5.9447790   -2.1533430    0.4551430  
C    -6.7677240   -3.2197880    0.3147520  
O    -8.0864270   -3.1872540    0.5250710  
C    -6.2587820   -4.5889720   -0.1054050  
O    -7.1052220   -5.4813650   -0.1987340  
C    -4.8388410   -4.7723560   -0.3690570  
H    -1.8682900   -4.2262670   -0.6866590  
H    -6.3089710   -1.1767890    0.7538430  
H    -8.3945120   -4.1060240    0.3420340  
H    -4.5075870   -5.7620410   -0.6670320  
