60


C     3.3979590    1.2999930   -1.2488370  
C     2.0795600    1.4900660   -0.9328770  
C     1.6118250    0.2837110   -0.3144950  
C     2.7041310   -0.6172580   -0.2902930  
N     3.7972470    0.0241490   -0.8675930  
C     2.6141660   -1.9102790    0.2339850  
C     1.3870660   -2.3145540    0.7348900  
O     1.2523840   -3.5626510    1.2637260  
C     0.2673170   -1.4452170    0.7152650  
O    -0.8579710   -2.0006500    1.2757200  
C     0.3524490   -0.1397590    0.2018510  
H     1.5076420    2.3809100   -1.1451770  
H     3.4580780   -2.5901380    0.2682720  
H     0.3354990   -3.6437560    1.5799470  
H    -1.5768310   -1.3391510    1.3088780  
H     4.1025610    1.9597060   -1.7345110  
C    -0.7933920    0.7550250    0.2394550  
C    -0.8671360    2.1070800    0.4283480  
C    -2.2508810    2.5085000    0.4050510  
C    -3.0270490    1.2728650    0.1877820  
N    -2.1112460    0.2082600    0.1622540  
C    -4.3755790    1.2050950    0.0283910  
C    -5.1222570    2.4851700    0.1481030  
O    -6.3375860    2.5300360    0.1325480  
C    -4.3118290    3.8104570    0.3822290  
O    -4.9263290    4.8644400    0.4423820  
C    -2.8617160    3.7206110    0.5205030  
H    -0.0281040    2.7580280    0.6262620  
H    -2.3107810    4.6425600    0.6783840  
H    -2.2849820   -0.5349420   -0.5102020  
C    -4.8166070   -2.4509850    2.4502020  
C    -5.6266010   -3.1682340    1.6336520  
C    -5.8676670   -2.3686440    0.4485950  
C    -5.1126590   -1.1087990    0.6454250  
N    -4.4478600   -1.2395150    1.8566620  
C    -5.1136130   -0.0478280   -0.2131790  
C    -5.8953900   -0.2033990   -1.4607620  
O    -5.8827840    0.6297030   -2.3485040  
C    -6.7147090   -1.5274190   -1.6771840  
O    -7.3912770   -1.6385660   -2.6864900  
C    -6.6236640   -2.5772230   -0.6614240  
H    -6.0232340   -4.1543580    1.8271660  
H    -7.1928720   -3.4874850   -0.8228920  
H    -4.4300280   -2.7042610    3.4286810  
H    -4.1064140   -0.4407660    2.3726750  
C     5.4405620   -1.6042760   -1.7510250  
C     5.0916450   -0.5033450   -1.0269070  
C     6.3053110    0.0271410   -0.4228050  
C     7.3983700   -0.8701770   -0.8665120  
N     6.8031220   -1.8407430   -1.6547010  
C     8.7014590   -0.7124700   -0.5254920  
C     9.0605360    0.4083950    0.3425290  
O    10.2061010    0.6307940    0.6998140  
C     7.9111700    1.3639750    0.8339260  
O     8.1906600    2.3000480    1.5642660  
C     6.5392980    1.0893730    0.3891540  
H     9.4925220   -1.3760850   -0.8608670  
H     5.7507490    1.7523270    0.7310820  
H     4.8078440   -2.2555090   -2.3387970  
H     7.2914980   -2.6028970   -2.0982160  
