60


C    -0.6474800    1.6295240    0.1939000  
C    -1.6678410    0.6753130    0.2238100  
C    -1.0594390   -0.6144660    0.2090710  
C     0.3459730   -0.4024420    0.1903730  
N     0.5561850    0.9497740    0.1597340  
C     1.3011320   -1.4482120    0.2055660  
C     0.7595190   -2.7425540    0.2920440  
O     1.5576270   -3.8193610    0.4045430  
C    -0.6493070   -2.9753850    0.3198730  
O    -0.9723180   -4.3048700    0.3895370  
C    -1.5842290   -1.9451950    0.2323660  
H    -2.7175610    0.8691740    0.3860440  
H     1.4438280    1.4370190    0.1596790  
H     0.9555060   -4.5864250    0.4914280  
H    -1.7398970   -4.3886070    1.0074820  
C    -3.9340920    4.4648630   -0.5546010  
C    -3.2929520    5.6255550   -0.2662440  
C    -1.9288530    5.2903910    0.0838590  
C    -1.8301080    3.8212810   -0.0098970  
N    -3.0872540    3.3739740   -0.3683100  
C    -0.6928880    3.0779700    0.2233060  
C     0.5263130    3.8684350    0.5007420  
O     1.6439050    3.3735520    0.5897960  
C     0.4168680    5.4298030    0.6872950  
O     1.4257100    6.0334040    1.0187530  
C    -0.8653420    6.0662700    0.4407590  
H    -3.7166620    6.6189250   -0.2909080  
H    -0.9299770    7.1446340    0.5425700  
H    -4.9566870    4.3015400   -0.8680240  
H    -3.2595780    2.4462150   -0.7257210  
C    -4.5277790   -0.3858400   -2.6206910  
C    -5.6690830   -0.9204990   -2.1173550  
C    -5.2972820   -1.7124690   -0.9621130  
C    -3.8253580   -1.5807930   -0.8249610  
N    -3.4265990   -0.7629280   -1.8555570  
C    -3.0419820   -2.1861890    0.1342410  
C    -3.7566610   -3.1173970    1.0080440  
O    -3.1971130   -3.8978030    1.7798310  
C    -5.3290220   -3.1765160    0.9709260  
O    -5.9009290   -3.8367710    1.8217670  
C    -6.0262520   -2.4629080   -0.0946090  
H    -6.6666840   -0.8029200   -2.5144150  
H    -7.1067030   -2.5503970   -0.1458010  
H    -4.3858690    0.2422110   -3.4904840  
H    -2.4702650   -0.4759460   -2.0047350  
C     2.7321560   -1.1879840    0.1633970  
C     3.4187050   -0.1249630    0.6929110  
C     4.8011570   -0.3251930    0.3257350  
C     4.7865270   -1.5960010   -0.4689270  
N     3.5918980   -2.0978360   -0.5579630  
C     5.9929030   -2.1389920   -1.0425120  
C     7.1480390   -1.4702760   -0.8212670  
O     8.3471410   -1.8554800   -1.2826090  
C     7.1942140   -0.1929870   -0.0113690  
O     8.2968160    0.3380120    0.1302070  
C     5.9536270    0.3486960    0.5510070  
H     3.0433880    0.6687310    1.3239740  
H     5.9554790   -3.0565380   -1.6189810  
H     8.9757790   -1.1720560   -0.9562980  
H     6.0224720    1.2730440    1.1161870  
