62


C     1.0368940   -2.0356710   -0.0537030  
C     1.6674630   -3.2339190    0.2368990  
C     3.0743240   -3.0313310    0.1151340  
C     3.2614750   -1.6722020   -0.2570530  
N     2.0199750   -1.0841640   -0.3284680  
C     4.5362540   -1.1238730   -0.4833300  
C     5.6349140   -1.9714190   -0.3343900  
O     6.8898240   -1.4917760   -0.5511660  
C     5.4540190   -3.3310250    0.0329800  
O     6.6405790   -4.0274910    0.1320950  
C     4.2017990   -3.8649090    0.2657520  
H     1.1677810   -4.1417120    0.5450700  
H     1.8410980   -0.1750850   -0.7264330  
H     7.5109260   -2.2192620   -0.3682150  
H     6.4720270   -4.9172710    0.4761320  
H     4.0900570   -4.9103750    0.5433950  
C    -1.4148440   -2.5623520   -0.3393070  
C    -0.3688400   -1.7187320   -0.0971960  
C    -1.0116810   -0.3991680    0.1072820  
C    -2.4686330   -0.6715730   -0.0540990  
N    -2.6786990   -1.9337680   -0.3094120  
C    -3.4783320    0.3800180    0.0547760  
C    -2.9787540    1.6300350    0.2888680  
O    -3.7654140    2.7420530    0.3773120  
C    -1.5434340    1.9294240    0.4850960  
O    -1.2131700    3.0986150    0.7024160  
C    -0.5577050    0.8294730    0.4111980  
H    -3.1368280    3.4759120    0.5718160  
H     0.4784390    1.0899590    0.6064880  
H    -1.3653720   -3.6203510   -0.5657720  
C    -6.3156750   -2.6275360    1.8753400  
C    -5.2078140   -1.8840730    1.5670940  
C    -5.5897970   -0.9455060    0.5500900  
C    -6.9689770   -1.1680700    0.2900580  
N    -7.3801990   -2.2052830    1.1002590  
C    -7.7125040   -0.4108220   -0.6212380  
C    -7.0519030    0.6205220   -1.2677070  
O    -7.7154670    1.4113210   -2.1566020  
C    -5.6801500    0.8846730   -1.0181800  
O    -5.1689990    1.9298990   -1.7636910  
C    -4.9166360    0.1022960   -0.1412250  
H    -4.2277550   -2.0068280    2.0016550  
H    -8.3214990   -2.5603520    1.1545650  
H    -8.7650540   -0.5890130   -0.8173350  
H    -7.0574640    2.0647490   -2.4618660  
H    -4.6961430    2.5333190   -1.1523360  
H    -6.4378650   -3.4352150    2.5831540  
C     5.3897570    0.6713130   -2.0070280  
C     5.4525250    2.0234270   -2.0640260  
C     4.8038650    2.5371130   -0.8767590  
C     4.3497480    1.3493570   -0.1097830  
N     4.7139150    0.2332000   -0.8582940  
C     3.7170870    1.4110350    1.0912870  
C     3.4504730    2.7270200    1.6698610  
O     2.8846440    2.8767250    2.7421780  
C     3.9151880    3.9980340    0.8697980  
O     3.7051830    5.1046050    1.3406980  
C     4.5930720    3.7972950   -0.4138860  
H     5.9087540    2.6111820   -2.8473360  
H     3.4231840    0.5328170    1.6555150  
H     4.9226290    4.6810310   -0.9519740  
H     5.7716320   -0.0681200   -2.6966700  
