64


C    -2.6447790   -1.8135860    0.1661750  
C    -1.2779970   -1.7084130    0.0081050  
C    -0.6977120   -2.9673900    0.3662000  
C    -1.7711360   -3.8280920    0.7247130  
N    -2.9454470   -3.1151850    0.5666170  
C    -1.5908980   -5.1541040    1.1218610  
C    -0.2877790   -5.6329860    1.1551850  
O    -0.0462690   -6.9126630    1.5575620  
C     0.7973470   -4.8054220    0.7858080  
O     2.0352930   -5.4384920    0.8586780  
C     0.6315540   -3.4742040    0.3834460  
H    -0.7680420   -0.8439480   -0.3892020  
H    -3.8214900   -3.3715070    0.9985170  
H    -2.4122780   -5.8047390    1.4033850  
H     0.9209200   -7.0272220    1.5558480  
H     2.7071800   -4.7868910    1.1214320  
C    -3.6896410   -0.8386000   -0.0444030  
C    -3.6621350    0.5359190    0.0613750  
C    -4.9719070    1.0224080   -0.2501650  
C    -5.7775870   -0.1097590   -0.5414080  
N    -4.9907890   -1.2371750   -0.3677590  
C    -7.1223660   -0.0047080   -0.9114050  
C    -7.6699330    1.2681610   -0.9778850  
O    -8.9765260    1.4280020   -1.3364510  
C    -6.8846810    2.4118310   -0.6705780  
O    -7.5761390    3.6037760   -0.7725760  
C    -5.5553980    2.3047040   -0.3075590  
H    -2.8097050    1.1203760    0.3794540  
H    -5.1958800   -2.1273470   -0.7989230  
H    -7.7413120   -0.8663060   -1.1402100  
H    -9.1647220    2.3823140   -1.3185400  
H    -6.9857770    4.3405170   -0.5559010  
H    -4.9728710    3.1949090   -0.0789860  
C     1.7755900   -2.6363010    0.0277860  
C     1.9760090   -1.2774340    0.1895750  
C     3.2648980   -0.9526610   -0.3348360  
C     3.8256900   -2.1599020   -0.8237910  
N     2.9301390   -3.1762590   -0.5481500  
C     5.0695940   -2.2229130   -1.4555640  
C     5.7764550   -1.0372430   -1.5999560  
O     6.9999720   -1.0498250   -2.1975980  
C     5.2504140    0.1868150   -1.1194810  
O     6.0938620    1.2556700   -1.3135660  
C     4.0003820    0.2605110   -0.4805190  
H     1.2781600   -0.6049550    0.6626130  
H     2.9455170   -4.0834750   -0.9929990  
H     5.4978170   -3.1492320   -1.8245470  
H     7.3475670   -0.1412640   -2.1631330  
H     5.7444530    2.0387560   -0.8464700  
C     3.4908940    1.5237360    0.0254720  
C     2.7315820    1.8013310    1.1292630  
C     2.5018830    3.2204890    1.1936130  
C     3.1862190    3.7967440    0.0159210  
N     3.8511470    2.7414660   -0.6299730  
C     3.1472010    5.1025850   -0.3288060  
C     2.4068820    6.0271100    0.5367660  
O     2.3201660    7.2210330    0.3005880  
C     1.7166520    5.4454480    1.8232030  
O     1.1057360    6.2087000    2.5574750  
C     1.8223200    4.0102060    2.0718790  
H     2.4156250    1.0783760    1.8671310  
H     3.6478410    5.5093540   -1.2024390  
H     1.3234880    3.6129650    2.9506260  
H     3.8737020    2.7441110   -1.6456250  
