58


C     0.0474420    2.0634900   -0.0813680  
C     1.1069520    1.1587030    0.0154920  
C     0.5917820   -0.1531540   -0.1092480  
C    -0.8597790   -0.0045760   -0.2855320  
N    -1.1166500    1.3480940   -0.2983090  
C    -1.7787230   -1.0296430   -0.3946700  
C    -1.2123930   -2.3850800   -0.2384830  
O    -1.8807630   -3.4017820   -0.3145910  
C     0.3246260   -2.5672180    0.0309050  
O     0.6896600   -3.7108600    0.2947280  
C     1.2150860   -1.4104400   -0.0474630  
H     2.1209470    1.4096580    0.2716010  
H    -2.0260560    1.7924130   -0.2216520  
C     3.2412880    5.1841920   -0.2729850  
C     2.5391190    4.0127530   -0.3629950  
C     1.1768490    4.2926430   -0.0141990  
C     1.1287670    5.7433820    0.2758100  
N     2.4214530    6.2156160    0.1239020  
C     0.0179210    6.4418630    0.6216900  
C    -1.2459160    5.7228540    0.6820440  
O    -2.3013380    6.2448170    0.9976720  
C    -1.2501580    4.1984210    0.3102580  
O    -2.3441250    3.6521030    0.2373100  
C     0.0339170    3.5002320    0.0649310  
H     2.9492200    3.0707600   -0.6864700  
H     0.0215650    7.5028950    0.8500430  
H     4.2891430    5.3659160   -0.4721500  
H     2.6974900    7.1805310    0.2239110  
C     2.6437730   -1.5941360   -0.0268280  
C     3.6650050   -0.7213010   -0.3865540  
C     4.9110150   -1.4019310   -0.2348590  
C     4.5789290   -2.7670930    0.2446230  
N     3.2085270   -2.8112050    0.3538180  
C     5.5017100   -3.7286920    0.5031080  
C     6.9134940   -3.4125140    0.3046340  
O     7.8114110   -4.2147920    0.5139750  
C     7.2888960   -1.9719960   -0.2022800  
O     8.4684240   -1.6907850   -0.3701020  
C     6.2078020   -1.0246190   -0.4504050  
H     3.5402930    0.2687060   -0.7946400  
H     5.2421780   -4.7240770    0.8497500  
H     6.4777470   -0.0335980   -0.8034880  
H     2.6254730   -3.6146570    0.5578890  
C    -3.7257750    0.2012800   -1.4344970  
C    -3.1838780   -0.8188590   -0.6855020  
C    -4.3746700   -1.5928550   -0.2462390  
C    -5.5236260   -0.8520120   -0.8399180  
N    -5.1238250    0.1801540   -1.5415450  
C    -6.8860550   -1.2578760   -0.6428390  
C    -7.1158720   -2.3470720    0.1308050  
O    -8.3323850   -2.8354590    0.4079410  
C    -5.9839350   -3.1088160    0.7607290  
O    -6.2666550   -4.0784740    1.4604290  
C    -4.5871770   -2.6779000    0.5224780  
H    -7.6892610   -0.6904230   -1.0992870  
H    -8.1777390   -3.6149820    0.9863070  
H    -3.8051300   -3.2830240    0.9626610  
H    -3.1847460    0.9709440   -1.9722910  
