58


C    -2.9608440   -0.7020830   -0.5088670  
C    -3.5997880    0.5009000   -0.5723180  
C    -5.0055870    0.2411960   -0.3774740  
C    -5.1386080   -1.2244550   -0.1877540  
N    -3.8472310   -1.7485100   -0.2183600  
C    -6.3138540   -1.8750160   -0.0253410  
C    -7.5453050   -1.0827950   -0.0005450  
O    -8.6490770   -1.5838530    0.1422630  
C    -7.4257860    0.4777050   -0.1524980  
O    -8.4455850    1.1502100   -0.1239310  
C    -6.0953060    1.0556740   -0.3386750  
H    -3.1216040    1.4664210   -0.6642140  
H    -6.3923600   -2.9501520    0.1043160  
H    -6.0243070    2.1320690   -0.4601900  
H    -3.6584840   -2.7028640   -0.4941360  
C    -0.8047470   -0.2575560   -1.6021460  
C     0.4900630   -0.6329390   -1.5032190  
C     0.5885460   -1.6253210   -0.4543730  
C    -0.7928290   -1.8401710    0.0387980  
N    -1.6135090   -0.9755900   -0.7033990  
C    -1.1321740   -2.6937290    1.0354700  
C    -0.0687180   -3.4816740    1.6525020  
O    -0.2810560   -4.3195470    2.5133260  
C     1.4110920   -3.2226420    1.2021480  
O     2.3053630   -3.7778860    1.8130720  
C     1.6649590   -2.2727150    0.0853190  
H     1.3091090   -0.2504520   -2.0913390  
H    -2.1419660   -2.8190790    1.4075160  
H    -1.2725540    0.4691690   -2.2506510  
C     3.9909590    1.4777390    0.0807000  
C     5.2568320    1.0037090   -0.1581030  
C     5.1162180   -0.4124340   -0.3564570  
C     3.6428310   -0.6685780   -0.1837050  
N     3.0004640    0.4349790    0.0612910  
C     3.0704840   -2.0014300   -0.2759500  
C     3.9455290   -2.9969920   -0.6033280  
O     3.5847440   -4.2636850   -0.7925470  
C     5.4300600   -2.7609430   -0.8139100  
O     6.1045690   -3.7487260   -1.1065760  
C     5.9752830   -1.4174710   -0.6581040  
H     6.1762600    1.5679350   -0.2331520  
H     4.4217010   -4.7470310   -0.9879680  
H     7.0440890   -1.2887700   -0.7954350  
C     4.3370470    3.9081090    0.6301450  
C     3.5443780    2.8262200    0.3233590  
C     2.1715760    3.3367560    0.2554240  
C     2.2522320    4.7897700    0.5328380  
N     3.5949100    5.0585250    0.7578040  
C     1.1948350    5.6373060    0.5479480  
C    -0.1302100    5.0909290    0.2509380  
O    -1.1439440    5.7694310    0.2423350  
C    -0.2326010    3.5587420   -0.0823630  
O    -1.3195390    3.0959220   -0.4013330  
C     0.9822780    2.7443110   -0.0211230  
H     1.2772080    6.6983550    0.7617770  
H     0.9082910    1.6824590   -0.2143450  
H     5.4081390    3.9374650    0.7813480  
H     3.9671360    5.9629800    1.0062280  
