58


C    -0.8040720    1.8077150    0.1854540  
C    -1.3100490    3.0224120   -0.2462810  
C    -2.7391440    2.9255550   -0.2772570  
C    -3.0702020    1.5548410    0.1661360  
N    -1.8671790    0.9453810    0.4566770  
C    -4.3343810    1.0331640    0.2448490  
C    -5.4382830    1.9473600   -0.1208450  
O    -6.6126630    1.6262150   -0.0509040  
C    -5.1004530    3.4068820   -0.6050810  
O    -6.0218850    4.1370290   -0.9374080  
C    -3.7040420    3.8210710   -0.6424560  
H    -0.7382980    3.8742540   -0.5783550  
H    -3.4779210    4.8298360   -0.9735040  
H    -1.7184630   -0.0465710    0.5967470  
C     3.0548910    4.0178810    0.5639960  
C     1.7352040    3.6802000    0.5410300  
C     1.6547650    2.2510320    0.3930780  
C     3.0436750    1.7738290    0.3266090  
N     3.8426380    2.8903840    0.3899380  
C     3.4512230    0.4539800    0.2301900  
C     2.3820580   -0.5360440    0.3959810  
O     2.5758670   -1.7380240    0.5254430  
C     0.8870160   -0.0572400    0.4299300  
O     0.0429680   -0.9336110    0.5671550  
C     0.5716580    1.3798890    0.3244160  
H     0.9111090    4.3621780    0.6719480  
H     3.5165490    4.9871770    0.6938630  
H     4.8378400    2.8463300    0.5598880  
C     4.8266720    0.0443820    0.0371750  
C     5.9040060    0.7652740   -0.4519180  
C     7.0444340   -0.1072130   -0.4797620  
C     6.5728780   -1.4167180    0.0333660  
N     5.2375370   -1.2515230    0.3363940  
C     7.3570400   -2.5170450    0.1544190  
C     8.7608410   -2.4172140   -0.2398110  
O     9.5417480   -3.3526430   -0.1635040  
C     9.2825160   -1.0378950   -0.7858890  
O    10.4531830   -0.9343720   -1.1189220  
C     8.3369760    0.0768330   -0.8726300  
H     5.8791170    1.7639560   -0.8623880  
H     6.9951960   -3.4690260    0.5297370  
H     8.7074480    1.0236200   -1.2542000  
H     4.5717960   -1.9721430    0.5864010  
C    -4.0400470   -0.9271580    1.8060650  
C    -4.6125170   -0.3269820    0.7178700  
C    -5.5093190   -1.3290340    0.1277850  
C    -5.3906210   -2.5430590    0.9720850  
N    -4.4894610   -2.2260620    1.9708900  
C    -6.0541100   -3.7076710    0.7594620  
C    -6.9460890   -3.7954200   -0.3913330  
O    -7.5854820   -4.7988380   -0.6680250  
C    -7.0720230   -2.5316000   -1.3161510  
O    -7.7895990   -2.5880800   -2.3011310  
C    -6.3130990   -1.3226250   -0.9646560  
H    -5.9488580   -4.5790640    1.3984940  
H    -6.4447740   -0.4515180   -1.5950510  
H    -3.3406530   -0.5071620    2.5172700  
H    -4.2123270   -2.8468220    2.7152710  
