62


C     3.6740740   -0.0287330    0.8420070  
C     2.3051640   -0.0151250    0.7327890  
C     1.9006520    1.3621480    0.7392950  
C     3.0809790    2.1434840    0.8372830  
N     4.1516710    1.2711970    0.9018080  
C     3.0715770    3.5417250    0.8319200  
C     1.8378200    4.1641360    0.7304290  
O     1.7651430    5.5236280    0.7355150  
C     0.6416000    3.4045780    0.6344420  
O    -0.4921320    4.1873280    0.5715740  
C     0.6409630    2.0102190    0.6326900  
H     1.6764710   -0.8851730    0.6095370  
H     5.1119950    1.5248370    1.0778030  
H     3.9734180    4.1407440    0.9003060  
H     0.8265690    5.7647840    0.6463200  
H    -1.2786810    3.6292210    0.4693560  
C    -1.0206450    0.2482420    1.3975820  
C    -0.6165760    1.2429520    0.5523640  
C    -1.6652740    1.3549080   -0.4606680  
C    -2.7036750    0.3558790   -0.1103740  
N    -2.2324330   -0.2979520    1.0059380  
C    -3.8791810    0.1307560   -0.7908750  
C    -4.0230170    0.8973690   -2.0317210  
O    -4.9138560    0.6991460   -2.8580710  
C    -2.9819030    2.0235420   -2.3855120  
O    -3.2035020    2.7273020   -3.3564040  
C    -1.7907820    2.1586890   -1.5528040  
H    -1.0502630    2.8989610   -1.8368950  
H    -0.5164140   -0.1308020    2.2766380  
H    -2.8008340   -0.9224650    1.5614550  
C    -5.7528340   -0.5241620    3.2467640  
C    -5.0499780   -0.0118710    2.1841210  
C    -5.3054210   -0.8613410    1.0485640  
C    -6.1923130   -1.8753760    1.4981420  
N    -6.4318190   -1.6525050    2.8396800  
C    -6.7141910   -2.8641110    0.6577840  
C    -6.3495090   -2.8052650   -0.6768320  
O    -6.8348500   -3.7166190   -1.5592230  
C    -5.4629880   -1.8035240   -1.1630470  
O    -5.1918200   -1.9206710   -2.5029870  
C    -4.8929880   -0.8429480   -0.3203020  
H    -4.4608420    0.8937590    2.2047920  
H    -7.0584230   -2.1953560    3.4132490  
H    -7.3982100   -3.6332070    1.0014390  
H    -6.4782190   -3.4551850   -2.4304800  
H    -5.1872600   -1.0087950   -2.8804910  
H    -5.8325390   -0.1688840    4.2643930  
C     4.3787900   -2.2121060    1.7884740  
C     5.3574170   -3.1343350    1.6255440  
C     6.2516400   -2.6404300    0.5991960  
C     5.6960170   -1.3366350    0.1592140  
N     4.5531130   -1.1156440    0.9310500  
C     6.2358260   -0.5657380   -0.8184000  
C     7.4592420   -1.0303660   -1.4721050  
O     8.0157450   -0.4013290   -2.3582790  
C     8.0783750   -2.3972470   -1.0045160  
O     9.1069580   -2.7927560   -1.5294210  
C     7.3858480   -3.1460880    0.0481450  
H     5.4599190   -4.0625580    2.1687200  
H     5.8017470    0.3705720   -1.1518410  
H     7.8105540   -4.0982150    0.3515740  
H     3.5355520   -2.2054840    2.4655930  
