58


C     3.4378300    4.8322710    1.0454340  
C     2.8252600    3.6360020    0.8027540  
C     1.5685820    3.9140750    0.1583510  
C     1.4864230    5.3891360    0.0585700  
N     2.6640740    5.8814440    0.5937570  
C     0.4312840    6.0868570   -0.4327050  
C    -0.7268090    5.3345080   -0.9000230  
O    -1.7545410    5.8672560   -1.2837570  
C    -0.6332280    3.7675800   -0.9270530  
O    -1.5052760    3.1651930   -1.5224710  
C     0.5417350    3.0993170   -0.2934930  
H     3.2181530    2.6687090    1.0721280  
H     0.3923330    7.1713960   -0.4648730  
H     4.3917040    5.0258330    1.5181680  
H     2.8807550    6.8601450    0.7035170  
C     0.5839450    1.6577990   -0.2112350  
C     1.6715630    0.8168610   -0.2139090  
C     1.1500750   -0.5134270   -0.0776680  
C    -0.3342430   -0.3246150   -0.0091840  
N    -0.6521780    0.9282050   -0.0775520  
C    -1.2598610   -1.4534910    0.1214910  
C    -0.6584570   -2.6838230    0.1950100  
O    -1.3305040   -3.8432710    0.3334050  
C     0.8216920   -2.8974280    0.1451210  
O     1.2160270   -4.0583570    0.2882820  
C     1.7296100   -1.7475060   -0.0200750  
H     2.7082470    1.0767220   -0.3606540  
H    -0.6277210   -4.5363990    0.3762240  
C     5.2987720   -0.3811540    2.3203740  
C     4.0172660   -0.5318610    1.9040930  
C     4.0956030   -1.4345090    0.7609400  
C     5.5585930   -1.7375210    0.6403050  
N     6.2532430   -1.1144800    1.5499440  
C     6.0685110   -2.6286560   -0.3671670  
C     5.1788850   -3.1974980   -1.2138460  
O     5.5149600   -4.0387220   -2.2018400  
C     3.7039840   -2.9001570   -1.1390580  
O     2.9848900   -3.3891220   -2.0029830  
C     3.1799980   -1.9934870   -0.0707750  
H     3.1206720   -0.1041090    2.3287460  
H     7.1326380   -2.8270870   -0.4287360  
H     4.6759310   -4.2621560   -2.6610100  
H     5.6592770    0.2078500    3.1557950  
C    -2.6966340   -1.2499960    0.1515060  
C    -3.4157190   -0.0917330   -0.0421800  
C    -4.8110840   -0.4188200    0.0691050  
C    -4.8807410   -1.8749020    0.3485380  
N    -3.5798480   -2.3145020    0.3930220  
C    -6.0371500   -2.5686920    0.5158720  
C    -7.3000870   -1.8468460    0.4222770  
O    -8.3901550   -2.3831170    0.5600320  
C    -7.2506240   -0.3009010    0.1310350  
O    -8.2995440    0.3210140    0.0528940  
C    -5.9414280    0.3352110   -0.0349900  
H    -2.9903390    0.8766040   -0.2524060  
H    -6.0688130   -3.6349560    0.7177910  
H    -5.9171730    1.4012560   -0.2396280  
H    -3.2808250   -3.2710290    0.5077610  
