58


C    -1.5700670   -0.6026460    0.2381100  
C    -0.7246100    0.4118660   -0.0943310  
C    -1.5428990    1.4484100   -0.7148950  
C    -2.9359750    0.9390030   -0.7099840  
N    -2.9004820   -0.3087520   -0.0931190  
C    -3.9906340    1.6013260   -1.2571510  
C    -3.7559740    2.9080930   -1.8709600  
O    -4.6484940    3.5710720   -2.3754260  
C    -2.2903160    3.4670180   -1.8781390  
O    -2.0703900    4.5542720   -2.3854850  
C    -1.2332930    2.6440300   -1.2786290  
H    -4.9922130    1.1901940   -1.3137900  
H    -0.2185930    3.0257450   -1.3213580  
H    -1.3406400   -1.5438960    0.7149690  
C    -6.8433250    0.3326370    1.7030360  
C    -7.3475650   -0.9139820    1.5315150  
C    -6.3184370   -1.7161570    0.9016820  
C    -5.1584340   -0.8104010    0.7139080  
N    -5.5268440    0.4052760    1.2413140  
C    -3.9835120   -1.1876770    0.1208840  
C    -3.8450690   -2.5895870   -0.3036610  
O    -2.8188010   -3.0274900   -0.7978620  
C    -5.0668220   -3.5575500   -0.0896960  
O    -4.9474350   -4.7187860   -0.4421010  
C    -6.2779290   -3.0231290    0.5281130  
H    -8.3306090   -1.2558230    1.8200220  
H    -7.1152650   -3.6993650    0.6668310  
H    -7.3038740    1.2096540    2.1375540  
H    -5.0013890    1.2597720    1.1279810  
C     1.5700320   -0.6026670   -0.2381580  
C     0.7245890    0.4118560    0.0942860  
C     1.5428910    1.4483910    0.7148470  
C     2.9359620    0.9389710    0.7099230  
N     2.9004520   -0.3087910    0.0930760  
C     3.9906350    1.6012860    1.2570710  
C     3.7559470    2.9079320    1.8711260  
O     4.6485380    3.5710640    2.3752640  
C     2.2903230    3.4669490    1.8781650  
O     2.0704420    4.5542860    2.3853520  
C     1.2333030    2.6440200    1.2785690  
H     4.9922480    1.1902140    1.3135390  
H     0.2186230    3.0258010    1.3211940  
H     1.3405930   -1.5439130   -0.7150180  
C     6.8434550    0.3327070   -1.7026470  
C     7.3476560   -0.9139420   -1.5312210  
C     6.3184570   -1.7161650   -0.9015670  
C     5.1584540   -0.8104100   -0.7138040  
N     5.5269370    0.4053230   -1.2410330  
C     3.9834740   -1.1877240   -0.1209230  
C     3.8449910   -2.5896630    0.3035200  
O     2.8187190   -3.0275720    0.7977040  
C     5.0667590   -3.5576180    0.0895890  
O     4.9473410   -4.7188720    0.4419270  
C     6.2778960   -3.0231750   -0.5281380  
H     8.3307200   -1.2557690   -1.8196760  
H     7.1152280   -3.6994120   -0.6668710  
H     7.3040630    1.2097640   -2.1370250  
H     5.0014940    1.2598180   -1.1276360  
