58


C    -5.2025960   -1.6531770   -1.4138930  
C    -5.0125000   -0.7588130   -0.3950080  
C    -6.3067000   -0.0961740   -0.1891730  
C    -7.2371600   -0.6861220   -1.1824630  
N    -6.4986800   -1.6177840   -1.8919440  
C    -8.5410860   -0.3430880   -1.3291150  
C    -9.0831920    0.6998360   -0.4632510  
O   -10.2422240    1.0797530   -0.5201060  
C    -8.1114090    1.3637830    0.5769990  
O    -8.5307360    2.2592680    1.2910840  
C    -6.7232920    0.8848670    0.6493580  
H    -9.1989420   -0.7972230   -2.0638050  
H    -6.0827930    1.3312120    1.4006830  
H    -4.4921320   -2.3549410   -1.8306830  
H    -6.8811810   -2.2509700   -2.5773320  
C    -0.8770110   -0.2073930   -1.8671390  
C    -2.2187600   -0.3436600   -1.7542910  
C    -2.5422500   -0.4255070   -0.3462530  
C    -1.2558390   -0.3181040    0.3750510  
N    -0.2528360   -0.2268690   -0.6088940  
C    -1.1364210   -0.2311540    1.7214160  
C    -2.3514810   -0.3018390    2.5240060  
O    -2.3518190   -0.2022440    3.7400130  
C    -3.7229480   -0.5093020    1.7901840  
O    -4.7263780   -0.6424330    2.4677620  
C    -3.7462260   -0.5425900    0.3047030  
H    -2.9201630   -0.3718340   -2.5742950  
H    -0.1932740   -0.1216050    2.2414860  
H    -0.2624780   -0.1210240   -2.7520160  
C     2.7707770    2.4944810   -2.3160880  
C     1.5689710    1.9428480   -2.0170070  
C     1.8723630    0.8526100   -1.0980400  
C     3.3547460    0.8938400   -0.9596550  
N     3.8704270    1.8538050   -1.6740130  
C     4.0883460   -0.0368570   -0.1155250  
C     3.3438230   -0.9498510    0.5661820  
O     3.8682230   -1.8370120    1.4229830  
C     1.8528300   -1.0451090    0.4363070  
O     1.2887870   -1.9626740    1.0221850  
C     1.1240960   -0.0605510   -0.4248190  
H     0.5913140    2.2590840   -2.3515130  
H     3.1261920   -2.4098770    1.7138320  
H     2.9720120    3.3432190   -2.9582870  
C     7.2067350    2.9666910    1.0752490  
C     6.0070500    2.4107420    0.7906680  
C     6.3108390    1.0549020    0.3459280  
C     7.8059390    0.9737230    0.4353820  
N     8.3210070    2.0884250    0.8642800  
C     8.5240950   -0.2265660    0.0949980  
C     7.8027350   -1.2947840   -0.3131900  
O     8.3375670   -2.4727340   -0.6741940  
C     6.3017940   -1.2493000   -0.4216890  
O     5.7406420   -2.2494260   -0.8600110  
C     5.5622550   -0.0107690   -0.0308740  
H     5.0287730    2.8628510    0.8509190  
H     9.6056070   -0.2515990    0.1676900  
H     7.5769040   -3.0355280   -0.9373940  
H     7.4071150    3.9695200    1.4332410  
