60


C    -0.7606770   -0.5444470    0.2627130  
C    -0.7816520   -1.9086000    0.5143300  
C    -2.1292960   -2.3407310    0.4010260  
C    -2.9130970   -1.1920460    0.0923650  
N    -2.0689890   -0.1017550    0.0526020  
C    -4.3169270   -1.2357900   -0.0932850  
C    -4.8783870   -2.5205960   -0.0341530  
O    -6.2024780   -2.7014120   -0.2789780  
C    -4.1013130   -3.6749990    0.2787420  
O    -4.8479380   -4.8335710    0.3180370  
C    -2.7491850   -3.6028970    0.5186460  
H     0.0730510   -2.5143900    0.7826880  
H    -2.3059170    0.6503030   -0.5929840  
H    -6.3726780   -3.6605360   -0.2465720  
H    -4.2627400   -5.6032700    0.3815800  
H    -2.1750160   -4.4917530    0.7679450  
C     0.3479450    0.3554680    0.2468590  
C     1.7077940    0.0808080    0.2418660  
C     2.4185340    1.3086500    0.2635500  
C     1.3877110    2.3695910    0.2993940  
N     0.1583990    1.7344180    0.2184090  
C     1.6335100    3.6981730    0.3999990  
C     3.0205800    4.1279660    0.4996520  
O     3.3520350    5.2989800    0.5884020  
C     4.1420660    3.0305500    0.4996950  
O     5.2886900    3.4222020    0.7042640  
C     3.7803480    1.6211140    0.2714110  
H     2.1297830   -0.9103030    0.2336430  
H     0.8546210    4.4541200    0.4071670  
H    -0.7082780    2.1790320    0.4847750  
C     4.8186280    0.6257680    0.0969750  
C     4.7524860   -0.6531480   -0.4307400  
C     6.0709600   -1.2114300   -0.4185650  
C     6.9543250   -0.1652920    0.1571230  
N     6.1405960    0.9012370    0.4558580  
C     8.2946400   -0.3076120    0.3262370  
C     8.9172830   -1.5647190   -0.0736790  
O    10.1148950   -1.7832320    0.0435760  
C     7.9991890   -2.6893510   -0.6816710  
O     8.5089250   -3.7509560   -1.0165420  
C     6.5727840   -2.4170270   -0.8188760  
H     3.8818630   -1.1259680   -0.8556450  
H     8.9264240    0.4689430    0.7460770  
H     5.9491340   -3.1980290   -1.2440150  
H     6.4181640    1.8346780    0.7359620  
C    -8.0718190    0.1445690    1.8354400  
C    -6.9243030   -0.5084690    1.5113130  
C    -6.3314230    0.1796470    0.3904630  
C    -7.2430870    1.3152250    0.0881920  
N    -8.2872250    1.2210090    0.9860980  
C    -7.0520010    2.2287860   -0.8957740  
C    -5.8407240    2.1111890   -1.6888240  
O    -5.5647590    2.8501150   -2.6194900  
C    -4.8035000    0.9893120   -1.3038220  
O    -3.6989970    1.0665910   -1.8345320  
C    -5.1714530   -0.0448130   -0.3212440  
H    -6.5315010   -1.3829640    2.0036540  
H    -7.7533360    3.0238460   -1.1275450  
H    -8.7815610   -0.0695420    2.6236120  
H    -9.0441090    1.8826260    1.0588740  
