60


C    -0.4870230   -2.0679340    0.1835900  
C    -1.2930960   -0.9390730    0.3151090  
C    -2.6361770   -1.3868400    0.4203980  
C    -2.6180830   -2.8104040    0.3428850  
N    -1.3108300   -3.1910870    0.2057570  
C    -3.7803390   -3.5893060    0.3834920  
C    -4.9877930   -2.9209910    0.5117040  
O    -6.1509010   -3.6181190    0.5546410  
C    -5.0427030   -1.4997700    0.6225000  
O    -6.3087750   -0.9994360    0.8314920  
C    -3.8841150   -0.7340870    0.5792630  
H    -0.9242200    0.0735290    0.3185920  
H    -0.9622770   -4.1336270    0.1034360  
H    -3.7678850   -4.6711940    0.3084230  
H    -6.8695330   -2.9631340    0.6298730  
H    -6.4153640   -0.1364820    0.3893720  
C     2.6026790    1.0321690    0.0989940  
C     3.7545780    0.3188470   -0.1013690  
C     3.2854320   -1.0868410   -0.1661740  
C     1.8136360   -0.9977000    0.0234130  
N     1.4361590    0.2436770    0.1693190  
C     0.9479220   -2.1825580    0.0312940  
C     1.6048440   -3.3815620   -0.1092980  
O     0.9746940   -4.5859770   -0.1131000  
C     3.0638090   -3.4971060   -0.2750260  
O     3.5497010   -4.6297300   -0.3855380  
C     3.8968810   -2.2761420   -0.3099880  
H     1.7006240   -5.2414170   -0.2341650  
H     4.9588470   -2.4029080   -0.4779010  
H     2.4954150    2.1095990    0.1473650  
C     5.6445460    3.6147580    2.0764870  
C     6.8712110    3.6072730    1.4964080  
C     6.8757010    2.5437980    0.5142660  
C     5.5301930    1.9277150    0.5647600  
N     4.8230560    2.6452160    1.5068080  
C     5.1136500    0.8432190   -0.1737660  
C     6.1273430    0.2677370   -1.0844620  
O     5.9203080   -0.7118190   -1.7821730  
C     7.5486640    0.9422920   -1.1840080  
O     8.3575350    0.4641340   -1.9626540  
C     7.8388170    2.0900710   -0.3332500  
H     7.6946820    4.2691240    1.7213050  
H     8.8272860    2.5341760   -0.3949980  
H     5.2564900    4.2520510    2.8599600  
H     3.9292890    2.3493360    1.8717030  
C    -3.2937570    1.4057640    1.7332090  
C    -3.6138210    2.7209860    1.6867300  
C    -4.5365260    2.9001530    0.5850840  
C    -4.7184920    1.5552380   -0.0192010  
N    -3.9445140    0.6797920    0.7212430  
C    -5.5088420    1.3024850   -1.1025700  
C    -6.2294920    2.4178680   -1.7141620  
O    -6.9386040    2.2917220   -2.6999770  
C    -6.0720320    3.8422260   -1.0690490  
O    -6.6914830    4.7807400   -1.5426670  
C    -5.1742610    3.9883690    0.0827130  
H    -3.2544500    3.4936810    2.3506770  
H    -5.5572260    0.3330500   -1.5903650  
H    -5.0526940    4.9834240    0.5003020  
H    -2.6460050    0.8715660    2.4145070  
