60


C     1.9277070    2.1818470   -0.9493650  
C     2.9701330    1.3102440   -0.9946720  
C     2.5760200    0.1167400   -0.2874140  
C     1.2532050    0.3179100    0.1697070  
N     0.8547870    1.5981540   -0.2569240  
C     0.5693920   -0.6255160    0.9428510  
C     1.2226380   -1.8212700    1.2111000  
O     0.5997330   -2.7668910    1.9614790  
C     2.5323350   -2.0586920    0.7278330  
O     3.0420130   -3.2868540    1.0780200  
C     3.2359770   -1.1051750   -0.0108970  
H     3.9153120    1.4878700   -1.4865620  
H    -0.4087530   -0.4528680    1.3742120  
H     1.2239220   -3.5035100    2.0860410  
H     4.0020180   -3.2804810    0.9190650  
H     1.8081420    3.1615750   -1.3863460  
C    -0.3668230    2.2102050   -0.0862090  
C    -0.6729690    3.5390730    0.0019640  
C    -2.1047160    3.6448940    0.0718550  
C    -2.6287900    2.2617500    0.0327760  
N    -1.5317920    1.4286220   -0.0114950  
C    -3.9597410    1.9102470    0.0125970  
C    -4.9141060    3.0399510   -0.0313210  
O    -6.1169940    2.8974720   -0.2092280  
C    -4.3789660    4.5046930    0.1529800  
O    -5.1980720    5.4048910    0.2503690  
C    -2.9405630    4.7179010    0.1653920  
H     0.0316730    4.3552070    0.0565670  
H    -2.5792180    5.7392440    0.2282820  
H    -1.5865360    0.4911920   -0.3919170  
C    -4.4229840    0.5325540   -0.0129840  
C    -3.7630870   -0.6389160    0.3098160  
C    -4.6804560   -1.7302090    0.1254480  
C    -5.9525980   -1.1220240   -0.3375840  
N    -5.7246440    0.2340490   -0.4118410  
C    -7.0791350   -1.8266550   -0.6160980  
C    -7.0471560   -3.2777730   -0.4581210  
O    -8.0097960   -3.9946580   -0.6877770  
C    -5.7065000   -3.9435360    0.0282190  
O    -5.6631090   -5.1582910    0.1600310  
C    -4.5613680   -3.0765020    0.3008770  
H    -2.7768750   -0.7344190    0.7372650  
H    -8.0025530   -1.3653380   -0.9517890  
H    -3.6423450   -3.5448370    0.6407100  
H    -6.4060460    0.9682620   -0.5640070  
C     5.0330730   -2.4286950   -1.2338860  
C     4.6155250   -1.3783040   -0.4622710  
C     5.8102480   -0.5785470   -0.1846010  
C     6.9385850   -1.2560480   -0.8681970  
N     6.3959700   -2.3724590   -1.4795630  
C     8.2229260   -0.8201000   -0.8518230  
C     8.5312100    0.4003860   -0.1087690  
O     9.6544940    0.8727250   -0.0409620  
C     7.3532980    1.1277670    0.6365020  
O     7.5881170    2.1448320    1.2673970  
C     6.0049400    0.5518320    0.5418910  
H     9.0352990   -1.3319430   -1.3584630  
H     5.2002200    1.0615650    1.0615420  
H     4.4387170   -3.2254180   -1.6634490  
H     6.9121530   -3.0306750   -2.0425960  
