62


C     2.4355620   -1.5897190   -0.3661050  
C     1.1694450   -1.1111630   -0.2291840  
C     1.2608240    0.2504400    0.2341020  
C     2.6386970    0.5555250    0.3493490  
N     3.3575570   -0.5915680   -0.0272480  
C     3.1024370    1.7955610    0.7969110  
C     2.1473820    2.7704780    1.0523130  
O     2.5384460    4.0030010    1.4612050  
C     0.7613140    2.5145680    0.8938140  
O    -0.0314320    3.5884490    1.2011790  
C     0.2853020    1.2450860    0.5347130  
H     0.2672710   -1.6625270   -0.4480570  
H     4.1495670    2.0230340    0.9533430  
H     1.7212710    4.5304560    1.5493070  
H    -0.7613180    3.6112550    0.5405930  
H     2.7924010   -2.5442790   -0.7219210  
C    -2.2130170   -1.9826470    2.3182690  
C    -1.1638230   -1.1915670    2.0050300  
C    -1.6882610   -0.2085950    1.0616800  
C    -3.1194770   -0.5949120    0.8827570  
N    -3.4142330   -1.6215790    1.6334920  
C    -4.0201870    0.1171260   -0.0209460  
C    -3.5221840    1.3084010   -0.4872010  
O    -4.2567260    2.1889930   -1.1885340  
C    -2.1371360    1.7671410   -0.2281690  
O    -1.8471780    2.9115610   -0.6251300  
C    -1.1516570    0.9009440    0.4842210  
H    -0.1562270   -1.2332300    2.3903350  
H    -3.6627330    2.9490140   -1.3642990  
H    -2.2447710   -2.8160960    3.0091000  
C    -7.4243110   -1.6432790    2.3072820  
C    -8.3362720   -1.6683700    1.2838030  
C    -7.6536240   -1.2086470    0.1096300  
C    -6.3228380   -0.8964210    0.4968370  
N    -6.2210670   -1.1454060    1.8485850  
C    -5.3587360   -0.3706360   -0.4019420  
C    -5.7715430   -0.2942140   -1.7473330  
O    -4.8868530    0.0600270   -2.7153350  
C    -7.0947550   -0.6167240   -2.1404350  
O    -7.3198350   -0.4579440   -3.4969960  
C    -8.0417630   -1.0444590   -1.2337620  
H    -9.3707630   -1.9756620    1.3533670  
H    -5.3118860   -1.3297910    2.2650090  
H    -5.3778710    0.0784280   -3.5560890  
H    -8.2250230   -0.7286100   -3.7090600  
H    -9.0550470   -1.2743440   -1.5573770  
H    -7.5321300   -1.9384100    3.3417650  
C     4.7270370   -0.7670290   -0.0809260  
C     5.4527310   -1.9132130    0.0936840  
C     6.8345220   -1.5890020   -0.1434360  
C     6.8687260   -0.1430340   -0.4730640  
N     5.5592680    0.3218580   -0.3633220  
C     7.9851150    0.5410780   -0.8123000  
C     9.2610200   -0.1791070   -0.8265750  
O    10.3171030    0.3591260   -1.1172200  
C     9.2570770   -1.7021910   -0.4367880  
O    10.3177940   -2.3101100   -0.4353020  
C     7.9791720   -2.3268580   -0.1066180  
H     5.0638030   -2.8681720    0.4144160  
H     7.9898110    1.5984690   -1.0589480  
H     7.9854330   -3.3834250    0.1430240  
H     5.2262960    1.1286010   -0.8736550  
