58


C    -6.7600570   -2.6786490    1.4757230  
C    -5.9983810   -1.6440830    1.0237100  
C    -4.7983200   -2.2068770    0.4549420  
C    -4.9155720   -3.6743240    0.6260060  
N    -6.1397160   -3.8933060    1.2295040  
C    -3.9662440   -4.5807340    0.2768320  
C    -2.7324190   -4.0839990   -0.3164940  
O    -1.7881980   -4.8035670   -0.6016420  
C    -2.6251120   -2.5478670   -0.6242890  
O    -1.7058070   -2.1739890   -1.3307460  
C    -3.6839430   -1.6342230   -0.1185010  
H    -6.2408300   -0.5956120    1.0978440  
H    -4.0664620   -5.6484290    0.4458040  
H    -7.7231670   -2.6547750    1.9682130  
H    -6.4788780   -4.7938680    1.5300990  
C    -3.5216930   -0.2025060   -0.2996170  
C    -4.4512700    0.7329900   -0.6657850  
C    -3.7348420    1.9862080   -0.7511720  
C    -2.3317060    1.6370480   -0.3495820  
N    -2.2171050    0.3711600   -0.0880980  
C    -1.2739570    2.6347380   -0.2804900  
C    -1.6234650    3.8923410   -0.6864110  
O    -0.7593480    4.9065900   -0.7758410  
C    -3.0220020    4.2635170   -1.1114500  
O    -3.2156950    5.4325030   -1.4460580  
C    -4.0752220    3.2430980   -1.1109800  
H    -5.4852280    0.5685230   -0.9347140  
H    -1.2939650    5.6831700   -1.0580840  
H    -5.0728260    3.5515320   -1.4077540  
C     1.7561230   -0.5315050   -1.1656200  
C     0.6465230    0.2389560   -1.1374700  
C     0.8536560    1.2797860   -0.1557110  
C     2.2110510    1.0531410    0.4020360  
N     2.7193700   -0.0915760   -0.2374360  
C     2.8297030    1.8835450    1.2737000  
C     2.0854880    3.0320560    1.7766940  
O     2.5685810    3.8524030    2.5409270  
C     0.5987040    3.2093360    1.3222540  
O    -0.0831880    4.0423980    1.8911690  
C     0.0721050    2.3338520    0.2409280  
H    -0.2631100    0.0404120   -1.6796030  
H     3.8412160    1.7422840    1.6322810  
H     1.9561870   -1.4255600   -1.7387190  
C     5.7403160   -1.5300020   -3.1207310  
C     4.6181710   -0.9484180   -2.6272780  
C     4.7378570   -1.0677650   -1.1783230  
C     6.0284240   -1.7760870   -0.9790590  
N     6.6125130   -2.0406840   -2.1163110  
C     6.5425750   -2.0840840    0.3322520  
C     5.8094410   -1.7091090    1.4038200  
O     6.1726370   -1.9256460    2.6810660  
C     4.4880990   -1.0127140    1.2565820  
O     3.8453840   -0.7873450    2.2763450  
C     3.9878670   -0.6639130   -0.1161420  
H     3.8214460   -0.4696960   -3.1783250  
H     7.4915800   -2.5984450    0.4336270  
H     5.4298560   -1.5963550    3.2307520  
H     6.0323990   -1.6316140   -4.1590530  
