60


C     2.7618090    0.6783810    2.0032200  
C     3.6622510   -0.0265410    1.2407360  
C     2.9250740   -0.6650280    0.1803930  
C     1.5673050   -0.3177800    0.3795240  
N     1.4926550    0.4663070    1.5166060  
C     0.5222530   -0.7747140   -0.4606300  
C     0.9342920   -1.5070200   -1.5837830  
O     0.0313590   -1.8844910   -2.5264020  
C     2.2967290   -1.8569390   -1.7860130  
O     2.5059820   -2.6134140   -2.9234290  
C     3.2910720   -1.4734340   -0.9111670  
H     0.7186640    1.1206220    1.6201090  
H     0.5221520   -2.3741270   -3.2101110  
H     3.4554000   -2.6694750   -3.1072840  
H     4.3255160   -1.7626270   -1.0784430  
H     2.9357620    1.3145920    2.8595110  
C    -1.7979990    2.8211760    0.7642340  
C    -3.0700120    2.3904320    0.6246130  
C    -2.9624230    0.9862080    0.2507830  
C    -1.4850640    0.7354960    0.1660260  
N    -0.8222960    1.8097470    0.4997640  
C    -0.9201340   -0.5551080   -0.2004690  
C    -1.8333360   -1.5710890   -0.2846700  
O    -1.5055740   -2.8501030   -0.4956080  
C    -3.3186830   -1.3608010   -0.1850510  
O    -4.0344340   -2.3391540   -0.3824700  
C    -3.8705040   -0.0100290    0.1218310  
H    -3.9848010    2.9483450    0.7532440  
H    -2.3615140   -3.3292110   -0.5663790  
H    -1.4505730    3.8085950    1.0430550  
C    -6.7091470    2.5827930   -2.0273670  
C    -7.8964620    2.2100700   -1.4992050  
C    -7.5688070    1.1900250   -0.5078720  
C    -6.0748950    1.0750960   -0.5846600  
N    -5.5830930    1.8883310   -1.4700920  
C    -5.3324910    0.1386690    0.2467220  
C    -6.0676350   -0.6058660    1.1210130  
O    -5.5348420   -1.4655660    1.9950410  
C    -7.5695100   -0.5016100    1.2173520  
O    -8.1300490   -1.2210510    2.0407320  
C    -8.2916190    0.4389300    0.3448260  
H    -8.8845500    2.5735930   -1.7444070  
H    -6.2975240   -1.8622950    2.4736120  
H    -9.3723830    0.4782710    0.4402920  
H    -6.5220100    3.3201300   -2.7985690  
C     5.6333020   -0.7639670    2.5894890  
C     6.9894330   -0.7088700    2.5471240  
C     7.3500490   -0.0049730    1.3365230  
C     6.0695400    0.3563730    0.6758790  
N     5.0511600   -0.1332220    1.4867780  
C     5.9765110    1.0407460   -0.4933590  
C     7.2113090    1.4403600   -1.1616580  
O     7.2291500    2.0493180   -2.2215850  
C     8.5805280    1.0626280   -0.4829920  
O     9.6222270    1.3885190   -1.0327100  
C     8.5467530    0.3320780    0.7846180  
H     7.6722140   -1.1188920    3.2771390  
H     5.0285780    1.3009010   -0.9516320  
H     9.4967340    0.0816540    1.2473940  
H     4.9818670   -1.2148310    3.3264740  
