62


C     1.3687620    1.0639530   -1.5730910  
C     2.7084930    0.9188490   -1.3557270  
C     2.8906520   -0.1318650   -0.3849380  
C     1.6027280   -0.6104020   -0.0465400  
N     0.6863320    0.1455380   -0.7742460  
C     1.3733200   -1.6738810    0.8272510  
C     2.4977890   -2.2895440    1.3552220  
O     2.3653520   -3.3468940    2.1953070  
C     3.8102170   -1.8434620    1.0350940  
O     4.7992660   -2.5591480    1.6630010  
C     4.0388420   -0.7432130    0.2017670  
H     3.4842620    1.4952400   -1.8376300  
H     0.3809960   -2.0332710    1.0752180  
H     3.2761340   -3.6335490    2.4033530  
H     5.5093510   -2.7121550    0.9958520  
H     0.8150520    1.7329460   -2.2154650  
C    -1.3817690   -0.8717330   -1.6269840  
C    -2.7138370   -0.7431330   -1.4177030  
C    -2.9084570    0.2447160   -0.3751380  
C    -1.5580280    0.7018630    0.0187190  
N    -0.6682410   -0.0322470   -0.7578300  
C    -1.2798550    1.6395710    0.9578820  
C    -2.4111490    2.2723190    1.6104160  
O    -2.3099660    3.1058550    2.4966170  
C    -3.8587570    1.8901430    1.1186070  
O    -4.7753810    2.6014270    1.5239310  
C    -4.0550220    0.7537240    0.1953900  
H    -3.4968900   -1.2770800   -1.9323970  
H    -0.2729660    1.9135670    1.2511490  
H    -0.8314550   -1.4904980   -2.3224320  
C    -5.6273680   -3.4473080    0.2838690  
C    -4.8414220   -2.3292430    0.3957630  
C    -5.6337330   -1.2033910   -0.0180120  
C    -6.9143150   -1.7153180   -0.3609150  
N    -6.8742380   -3.0837800   -0.1847130  
C    -7.9795260   -0.9043980   -0.7628310  
C    -7.7511840    0.4624290   -0.7908480  
O    -8.7470430    1.3151210   -1.1527820  
C    -6.4876150    1.0109330   -0.4439850  
O    -6.4362340    2.3816780   -0.5510070  
C    -5.3989420    0.2041880   -0.0913870  
H    -3.8178970   -2.3158330    0.7397470  
H    -7.6575770   -3.7063030   -0.3050870  
H    -8.9584810   -1.2966250   -1.0190480  
H    -8.3694910    2.2109510   -1.0556700  
H    -5.9568140    2.7108300    0.2442120  
H    -5.4001000   -4.4817950    0.4993360  
C     5.7395460    3.3475910    0.4669610  
C     4.9490890    2.2451700    0.5555200  
C     5.7058870    1.1245540    0.0465370  
C     7.0281500    1.6753790   -0.3490850  
N     6.9724600    3.0301230   -0.0900760  
C     8.0481720    0.9517200   -0.8770780  
C     7.8426950   -0.4774510   -1.0308790  
O     8.6596790   -1.2325270   -1.5328110  
C     6.4995550   -1.0945880   -0.4895440  
O     6.4550910   -2.3216790   -0.4127070  
C     5.3951220   -0.2131760   -0.0763700  
H     3.9442440    2.2090450    0.9449520  
H     8.9884180    1.3823050   -1.2057640  
H     5.5289470    4.3667350    0.7630830  
H     7.7457010    3.6674130   -0.1994210  
