64


C    -1.5251650    0.3611850    2.0404410  
C    -0.7341030   -0.0805160    1.0067490  
C    -1.6059840   -0.4513370   -0.0787910  
C    -2.9272840   -0.2018130    0.3637610  
N    -2.8485260    0.2994420    1.6501340  
C    -4.0697200   -0.4714690   -0.4216810  
C    -3.8305070   -1.0084350   -1.6880310  
O    -4.8750060   -1.2472650   -2.5230560  
C    -2.5082660   -1.2652690   -2.1409690  
O    -2.4568710   -1.7874470   -3.4170970  
C    -1.4007350   -0.9957890   -1.3612250  
H    -3.6413710    0.4405020    2.2571200  
H    -4.5192210   -1.6754670   -3.3211580  
H    -1.5346020   -1.9469110   -3.6670210  
H    -0.3973300   -1.1925570   -1.7296830  
H    -1.2417500    0.7290460    3.0157120  
C     1.4008100   -0.9057620    1.9779800  
C     2.7409140   -0.7711410    1.7333300  
C     2.8815800    0.0680970    0.5710130  
C     1.5683170    0.4260300    0.1687290  
N     0.6714530   -0.1908310    1.0356160  
C     1.3069680    1.2977390   -0.8953010  
C     2.4057590    1.8176900   -1.5584990  
O     2.2355020    2.6868800   -2.5942630  
C     3.7322480    1.4648080   -1.1888860  
O     4.7012880    2.0477510   -1.9796730  
C     4.0029350    0.5754340   -0.1465330  
H     3.5364740   -1.2009630    2.3247240  
H     0.3033730    1.5853520   -1.1862720  
H     3.1388470    2.9296860   -2.8752320  
H     5.4090740    2.3795290   -1.3851120  
H     0.8779010   -1.4626300    2.7423720  
C     5.6858150   -3.4814240    0.3590620  
C     6.9847760   -3.1263710    0.6164150  
C     7.0412980   -1.6930680    0.5847040  
C     5.7266730   -1.2299440    0.3053960  
N     4.9292760   -2.3454780    0.1560870  
C     5.3865820    0.1376760    0.1723980  
C     6.4559700    1.0198380    0.3228500  
O     6.2474690    2.3825050    0.1871020  
C     7.7725550    0.5831400    0.6008570  
O     8.6865070    1.6178710    0.7150520  
C     8.0805980   -0.7555110    0.7384240  
H     7.8077540   -3.8041890    0.7966820  
H     3.9267700   -2.3134520    0.0466500  
H     7.1066770    2.8156940    0.3419290  
H     9.5585440    1.2566600    0.9312370  
H     9.1003200   -1.0724730    0.9469190  
H     5.2301020   -4.4597160    0.2964480  
C    -6.0097870    3.2573780    0.8299280  
C    -7.2422320    2.7883030    1.1565980  
C    -7.2354260    1.3584560    0.9253970  
C    -5.8756930    1.0297630    0.4340320  
N    -5.1730930    2.2231150    0.4258680  
C    -5.4426280   -0.2102800    0.0612040  
C    -6.4160530   -1.3158660    0.2044290  
O    -6.1302320   -2.4806070   -0.0070920  
C    -7.8749710   -0.9805770    0.6949500  
O    -8.6903360   -1.8877880    0.7599450  
C    -8.1913570    0.3993640    1.0564210  
H    -8.0759390    3.3717710    1.5191770  
H    -9.1979570    0.6151390    1.4013370  
H    -5.6324480    4.2712690    0.8586520  
H    -4.2588880    2.3327960    0.0133100  
