60


C    -1.4829090   -0.2148740    0.7918810  
C    -2.8511860   -0.1245000    0.7689670  
C    -3.1660590    1.2189630    0.3254080  
C    -1.9411820    1.8943700    0.1176750  
N    -0.9064510    0.9952780    0.4099890  
C    -1.8813450    3.2111700   -0.3498100  
C    -3.0816720    3.8647060   -0.5822580  
O    -3.0748290    5.1486980   -1.0369740  
C    -4.3202270    3.2102240   -0.3520500  
O    -5.4234620    3.9929070   -0.6182050  
C    -4.3745910    1.9045370    0.1002670  
H    -0.9508880    3.7401620   -0.5118910  
H    -4.0015570    5.4285170   -1.1328050  
H    -6.2317260    3.4734090   -0.4937130  
H    -5.3325110    1.4188690    0.2674960  
H    -0.8524150   -1.0451280    1.0746360  
C     2.2044770   -1.3326190   -1.5999530  
C     1.0150690   -0.8538370   -1.1586420  
C     1.2912840    0.3312540   -0.3771780  
C     2.7573680    0.5155560   -0.4053870  
N     3.2742240   -0.5500130   -1.1448740  
C     3.4221180    1.5684780    0.1401190  
C     2.6476980    2.5733150    0.8513630  
O     3.1341070    3.5820830    1.3379170  
C     1.0970520    2.3553020    0.9997650  
O     0.4619300    3.1131340    1.7083260  
C     0.4750540    1.2100380    0.2860950  
H     0.0420240   -1.2750890   -1.3604890  
H     4.4930370    1.7101260    0.0526840  
H     2.4184410   -2.1987620   -2.2111830  
C     5.1348820   -1.0105410   -2.7187840  
C     4.6184590   -0.7623250   -1.4858610  
C     5.7480860   -0.9204090   -0.5525630  
C     6.8934730   -1.2478450   -1.4532080  
N     6.5242110   -1.3019350   -2.7042530  
C     8.2160380   -1.4683880   -0.9334400  
C     8.3875490   -1.4168470    0.4101110  
O     9.5616960   -1.6165740    1.0262380  
C     7.2425530   -1.1303600    1.3430110  
O     7.4721620   -1.1085710    2.5490850  
C     5.8946280   -0.8761470    0.7838910  
H     9.0339770   -1.6849810   -1.6114720  
H     9.3809670   -1.5172830    1.9864220  
H     5.1006870   -0.6482680    1.4879980  
H     4.6063080   -1.0110260   -3.6647640  
C    -3.7140010   -1.9183730    2.3226100  
C    -3.7787470   -1.1794840    1.1774410  
C    -4.9325950   -1.6831430    0.4345780  
C    -5.5241240   -2.7694150    1.2565780  
N    -4.7229750   -2.8762900    2.3748880  
C    -6.6294090   -3.4792920    0.9131930  
C    -7.2827760   -3.1766290   -0.3559940  
O    -8.2828910   -3.7583250   -0.7485750  
C    -6.6566390   -2.0497190   -1.2575210  
O    -7.1849850   -1.7847040   -2.3259830  
C    -5.4602320   -1.3530210   -0.7732680  
H    -7.0478070   -4.2681940    1.5308750  
H    -5.0350560   -0.5795580   -1.4046000  
H    -3.0083150   -1.8312640    3.1382790  
H    -4.9166170   -3.4708490    3.1654270  
