60


C    -1.0581930    0.0889880    0.3998110  
C    -1.3600550    1.4332940    0.2499930  
C    -2.7455140    1.4828500   -0.2045050  
C    -3.2002560    0.1459120   -0.3048130  
N    -2.1445260   -0.6947990    0.0798810  
C    -4.4983750   -0.1929420   -0.6912210  
C    -5.3581650    0.8411640   -1.0294180  
O    -6.6359530    0.5647950   -1.4186270  
C    -4.9136430    2.1832600   -0.9747760  
O    -5.8693400    3.1092610   -1.3488370  
C    -3.6308000    2.5126810   -0.5751750  
H    -4.8413160   -1.2166920   -0.7672830  
H    -7.0625840    1.4140820   -1.6251910  
H    -5.4954370    3.9998430   -1.2764090  
H    -3.3277060    3.5510410   -0.5159200  
H    -0.1193280   -0.3679760    0.6669990  
C     3.0103540    1.2737600    0.1326890  
C     3.3452200    2.5817620    0.3765380  
C     2.0921040    3.2755970    0.5780420  
C     1.0457870    2.2245540    0.3804580  
N     1.5892500    1.0766790    0.1104680  
C    -0.3950250    2.5031150    0.4860600  
C    -0.6931380    3.7925960    0.8509270  
O    -1.9474210    4.2386430    1.0945440  
C     0.3280100    4.8522890    1.0560660  
O    -0.0673520    5.9794860    1.3847150  
C     1.7550890    4.5437570    0.8891990  
H     4.3317670    3.0002000    0.5267190  
H    -1.8194140    5.1829480    1.3449560  
H     2.4627030    5.3534420    1.0400290  
C     6.8101270    1.0011270   -2.0209140  
C     7.0654310   -0.3236520   -1.8757600  
C     5.9808120   -0.8870780   -1.0988640  
C     5.0681260    0.2358420   -0.7908000  
N     5.6405610    1.3553310   -1.3501430  
C     3.8753950    0.1343280   -0.1135080  
C     3.5219970   -1.2154540    0.3872660  
O     2.5600570   -1.4419310    1.0991030  
C     4.4734330   -2.4222970    0.0427220  
O     4.1464740   -3.5409280    0.4065720  
C     5.7088460   -2.1563860   -0.6907270  
H     7.9147490   -0.8629290   -2.2689270  
H     6.3597340   -2.9971310   -0.9102280  
H     7.3764670    1.7588010   -2.5458950  
H     5.1511480    2.2342010   -1.4453250  
C    -0.7849270   -3.4383990    3.2058810  
C    -1.1652400   -2.3308380    2.5175610  
C    -1.6520780   -2.7735900    1.2304510  
C    -1.5306640   -4.2501210    1.2257410  
N    -1.0075920   -4.5881960    2.4570490  
C    -1.8968720   -5.0654270    0.2012540  
C    -2.4445790   -4.4535740   -0.9953340  
O    -2.8611500   -5.0862970   -1.9540970  
C    -2.5103120   -2.8806330   -1.0672560  
O    -2.8341960   -2.3586150   -2.1181510  
C    -2.1395700   -2.1020180    0.1396210  
H    -1.1088950   -1.3112700    2.8653360  
H    -1.8091420   -6.1464870    0.2378240  
H    -0.3671760   -3.5162260    4.2005530  
H    -0.7383460   -5.5210590    2.7269650  
