62


C    -0.7038160    0.0605630   -0.4561770  
C    -2.0236330   -0.3236960   -0.3125780  
C    -2.8313260    0.8570010   -0.3318780  
C    -1.9415640    1.9536790   -0.5049140  
N    -0.6567080    1.4488730   -0.5335520  
C    -2.3745830    3.2732780   -0.6418520  
C    -3.7452810    3.4873440   -0.6248050  
O    -4.2424660    4.7433470   -0.7763130  
C    -4.6630990    2.4175180   -0.4484360  
O    -5.9772880    2.8214420   -0.4255390  
C    -4.2387750    1.0973930   -0.2560160  
H    -2.3565420   -1.3409030   -0.1706590  
H     0.1504970    1.9613740   -0.8564240  
H    -1.6954860    4.1081030   -0.7810210  
H    -5.2141190    4.6397000   -0.7668340  
H    -6.4847450    2.1660320   -0.9598470  
C     0.5020970   -0.7313950   -0.5107820  
C     0.6865790   -2.0503490   -0.8644570  
C     2.0806230   -2.3408870   -0.7214370  
C     2.7152650   -1.1448550   -0.2906680  
N     1.7427750   -0.1621730   -0.2087080  
C     4.1085770   -1.0439690   -0.0647190  
C     4.8309560   -2.2395760   -0.2255880  
O     6.1704550   -2.2788940    0.0445750  
C     4.2052540   -3.4346080   -0.6566880  
O     5.0782450   -4.5030840   -0.7840170  
C     2.8521410   -3.4990150   -0.9252730  
H    -0.0811300   -2.7193730   -1.2282910  
H     1.8455170    0.5620390    0.4958940  
H     6.4476680   -3.2065430   -0.0600230  
H     4.5710060   -5.3219290   -0.8846600  
H     2.3980360   -4.4257480   -1.2697520  
C    -4.2891990   -2.0448780    2.8746210  
C    -4.0253110   -0.9440110    2.1236710  
C    -4.9845870   -0.9134150    1.0425790  
C    -5.8478150   -2.1047380    1.2326500  
N    -5.3584800   -2.7603540    2.3437870  
C    -6.8906620   -2.4511270    0.4324920  
C    -7.2057180   -1.5671010   -0.6718680  
O    -8.0908440   -1.7798910   -1.4866920  
C    -6.3793400   -0.2329160   -0.8114130  
O    -6.8133690    0.5925400   -1.6139720  
C    -5.1762710   -0.0157740    0.0122470  
H    -3.2455610   -0.2206150    2.3007620  
H    -7.4788960   -3.3534920    0.5641770  
H    -3.7968840   -2.3979860    3.7709740  
H    -5.7837040   -3.5720460    2.7632210  
C     7.6752010    0.9815180   -1.7589480  
C     6.6213610    0.1589520   -1.5252980  
C     5.9313960    0.6533170   -0.3549860  
C     6.6830020    1.8596420    0.0770120  
N     7.7378280    1.9902700   -0.8014570  
C     6.3643350    2.6410510    1.1413430  
C     5.1777510    2.2885380    1.8962570  
O     4.7992010    2.8893820    2.8902450  
C     4.3022400    1.0794290    1.3867320  
O     3.2044940    0.9397310    1.9135030  
C     4.8041570    0.2118070    0.3007470  
H     6.3483460   -0.7088570   -2.1031560  
H     6.9537540    3.4946950    1.4605090  
H     8.4165810    0.9411420   -2.5459410  
H     8.4006090    2.7492020   -0.7931630  
