60


C     1.3670580    0.2641140    3.4598740  
C     2.6434170    0.2025960    2.9667890  
C     2.5489000   -0.2847700    1.6183420  
C     1.1727780   -0.5137420    1.3605660  
N     0.4778300   -0.2064930    2.5123560  
C     0.6832900   -1.0026090    0.1271790  
C     1.6458770   -1.1569930   -0.8790130  
O     1.2683630   -1.5265420   -2.1328630  
C     3.0251560   -0.9352130   -0.6358060  
O     3.8131950   -1.2095080   -1.7382580  
C     3.5103610   -0.5206260    0.6013900  
H     3.5435830    0.4838640    3.4947270  
H    -0.5004480    0.0548680    2.4674330  
H     2.0827490   -1.6201040   -2.6581320  
H     4.7412880   -1.0032660   -1.5482610  
H     1.0099650    0.6008100    4.4231890  
C    -3.1059200    1.1329480    0.8705240  
C    -4.0431630    0.3338730    0.2743880  
C    -3.2583860   -0.8350160   -0.1906740  
C    -1.8487810   -0.5149520    0.1866140  
N    -1.7917300    0.6219500    0.8358980  
C    -0.7258940   -1.3848640   -0.1228580  
C    -1.0614720   -2.5904320   -0.6811230  
O    -0.1803980   -3.5599740   -0.9512130  
C    -2.4670360   -2.9483990   -1.0529540  
O    -2.6612740   -4.0480880   -1.5702830  
C    -3.5686060   -2.0014290   -0.7821130  
H    -0.7090000   -4.2835390   -1.3566090  
H    -4.5742880   -2.3195220   -1.0253800  
H    -3.2789910    2.0677250    1.3919210  
C    -6.0712930    4.0956220   -0.6666010  
C    -7.3642130    3.6842290   -0.6225460  
C    -7.3556600    2.2727150   -0.3029620  
C    -5.9328590    1.8910800   -0.1551030  
N    -5.2087630    3.0492440   -0.3535320  
C    -5.4634600    0.6236750    0.1022750  
C    -6.4983780   -0.4230780    0.2368110  
O    -6.2373810   -1.5974630    0.4443500  
C    -8.0199420   -0.0247470    0.1242930  
O    -8.8545550   -0.9052010    0.2607270  
C    -8.3590540    1.3650690   -0.1520480  
H    -8.2400420    4.2926800   -0.7942120  
H    -9.4085880    1.6254340   -0.2457420  
H    -5.6671470    5.0752080   -0.8850470  
H    -4.2064910    3.0623450   -0.4762270  
C     5.6603630   -0.8656120    1.8957460  
C     4.9523750   -0.3426470    0.8504000  
C     5.9097800    0.4367760    0.0670000  
C     7.2247930    0.2995400    0.7449770  
N     6.9977620   -0.4955560    1.8502780  
C     8.3759870    0.8750610    0.3158720  
C     8.3358500    1.6968290   -0.8911630  
O     9.3227640    2.2444240   -1.3572050  
C     6.9504510    1.8831360   -1.6106450  
O     6.8905040    2.5864840   -2.6062080  
C     5.7771170    1.2003670   -1.0533730  
H     9.3267490    0.7619390    0.8279090  
H     4.8245070    1.3532070   -1.5510800  
H     5.3002940   -1.5009450    2.6939820  
H     7.7038040   -0.7827890    2.5098070  
