60


C     0.3450160   -1.5117830    0.0765320  
C     1.5261130   -0.8021880   -0.0549520  
C     2.5918550   -1.6398630    0.4026880  
C     2.0049880   -2.8708310    0.7968770  
N     0.6467960   -2.7700050    0.5784930  
C     2.7468940   -3.9537040    1.2781360  
C     4.1223990   -3.8012850    1.3589640  
O     4.8871380   -4.8163000    1.8416430  
C     4.7457910   -2.5934380    0.9517950  
O     6.1074070   -2.5979930    1.1093740  
C     4.0100590   -1.5003800    0.4748550  
H     1.6120800    0.1726160   -0.5134410  
H    -0.0391750   -3.4388080    0.8943760  
H     2.2921950   -4.8895680    1.5858500  
H     5.8109710   -4.5091720    1.8459430  
H     6.4433230   -1.6846560    1.0337110  
C    -1.5264950    0.1487800   -0.1306710  
C    -1.0170260   -1.1150830   -0.2259380  
C    -2.1118800   -1.9645580   -0.6897670  
C    -3.2888860   -1.0780970   -0.8503990  
N    -2.8751820    0.2048950   -0.4842520  
C    -4.4951300   -1.4859900   -1.3159260  
C    -4.6752660   -2.9004800   -1.6471730  
O    -5.7321130   -3.3553520   -2.0528110  
C    -3.4456410   -3.8591670   -1.4762680  
O    -3.5683840   -5.0422970   -1.7456970  
C    -2.1806460   -3.2848310   -1.0018130  
H    -5.3332510   -0.8158250   -1.4702310  
H    -1.3253820   -3.9507610   -0.9509580  
H    -1.0389850    1.0531290    0.2067910  
C    -3.2927700    2.5750330   -1.0796350  
C    -3.6379570    1.3818330   -0.5245160  
C    -4.9157350    1.6290980    0.1672880  
C    -5.1896040    3.0671870   -0.1268920  
N    -4.2393420    3.6032610   -0.8454430  
C    -6.3743930    3.7191240    0.3601480  
C    -7.2197650    3.0021100    1.1408240  
O    -8.3500260    3.4914430    1.6702860  
C    -6.9459850    1.5652310    1.4896040  
O    -7.7514670    0.9806970    2.2088290  
C    -5.7339370    0.9042010    0.9517380  
H    -6.5585970    4.7589690    0.1143320  
H    -8.7493990    2.7540000    2.1812050  
H    -5.5851420   -0.1396300    1.2092110  
H    -2.4014750    2.7992460   -1.6539020  
C     4.6885750   -0.2586230    0.1330470  
C     5.9318330   -0.0399770   -0.4207830  
C     6.1426040    1.3843460   -0.5092400  
C     4.9282690    2.0129430    0.0647030  
N     4.0735330    0.9724920    0.3876140  
C     4.7524940    3.3485990    0.2150200  
C     5.8122940    4.2435930   -0.2469600  
O     5.7391700    5.4592460   -0.1573560  
C     7.0921020    3.6014940   -0.8973610  
O     7.9820180    4.3366510   -1.2976020  
C     7.1683590    2.1426860   -0.9840900  
H     6.5696790   -0.7956450   -0.8590580  
H     3.8603460    3.7910450    0.6478380  
H     8.0646300    1.7109230   -1.4191570  
H     3.2764300    1.0650180    1.0002770  
