60


C     4.0013280    0.1611330    0.1904950  
C     4.5670020    1.4277430    0.3401960  
C     3.5007820    2.3602090    0.4826460  
C     2.2875990    1.6192240    0.4157540  
N     2.6242700    0.3024770    0.2367150  
C     1.0040860    2.2110990    0.5047370  
C     0.9970020    3.6003440    0.6703040  
O    -0.1871140    4.2663750    0.7947740  
C     2.2018540    4.3522190    0.7393880  
O     1.9909430    5.7078940    0.9069530  
C     3.4436720    3.7595170    0.6521400  
H     5.6194200    1.6508980    0.4453220  
H     2.0049410   -0.4973200    0.2004680  
H     0.0260760    5.2036640    0.9503530  
H     2.8367300    6.1516730    1.0672060  
H     4.3500830    4.3585600    0.7072660  
C    -0.4467270    0.1880500    1.0270510  
C    -0.2205790    1.4056800    0.4561070  
C    -1.4670190    1.6785400   -0.2945220  
C    -2.3328900    0.4987000   -0.0117850  
N    -1.7269370   -0.3660070    0.7484630  
C    -3.6639410    0.3629830   -0.5780190  
C    -4.0593980    1.3371570   -1.4417450  
O    -5.2535670    1.3555000   -2.0551840  
C    -3.1916660    2.5159690   -1.7697660  
O    -3.6399470    3.3525110   -2.5543620  
C    -1.8590400    2.6404600   -1.1483820  
H    -5.2470810    2.1736950   -2.6000370  
H    -1.2706450    3.5146460   -1.4003980  
H     0.2210430   -0.3735190    1.6702140  
C    -5.3840740   -0.8986940    3.2575620  
C    -6.0046250   -2.0562440    2.9358110  
C    -5.7801610   -2.2190250    1.5023890  
C    -4.9552320   -1.0248700    1.1256210  
N    -4.7427160   -0.2529130    2.1485560  
C    -4.5112060   -0.7994080   -0.2402640  
C    -4.9247960   -1.7022320   -1.1700320  
O    -4.6048500   -1.6351730   -2.4707560  
C    -5.7655730   -2.9000550   -0.8174090  
O    -6.0756500   -3.6631740   -1.7312090  
C    -6.1760150   -3.1174320    0.5810320  
H    -6.5599230   -2.7234180    3.5802230  
H    -5.0328790   -2.4192980   -2.8813190  
H    -6.7864710   -3.9907340    0.7899180  
H    -5.3235620   -0.4227220    4.2291380  
C     8.0136370   -0.9983470   -1.1745020  
C     7.9347770   -2.3406270   -0.9849680  
C     6.6078120   -2.6292400   -0.4842660  
C     5.9199640   -1.3286110   -0.3785060  
N     6.8370440   -0.3713070   -0.7728740  
C     4.6191690   -1.1412000    0.0302930  
C     3.8540990   -2.3833010    0.2752720  
O     2.6458690   -2.3988140    0.4757680  
C     4.6038400   -3.7702110    0.2712720  
O     3.9701000   -4.7597120    0.6063500  
C     5.9944490   -3.8005490   -0.1473420  
H     8.7139260   -3.0644300   -1.1749680  
H     6.4965760   -4.7617390   -0.1867100  
H     8.8341230   -0.4041050   -1.5546110  
H     6.5609810    0.5612730   -1.0461440  
