64


C     2.4021960   -0.0309020   -2.1141820  
C     1.0971170    0.0820160   -1.7261510  
C     1.0819800    0.8127910   -0.4865950  
C     2.4225680    1.1302210   -0.1588120  
N     3.2122240    0.6006200   -1.1727940  
C     2.7918340    1.8651720    0.9703800  
C     1.7675320    2.2898930    1.8039080  
O     2.0531190    3.0118740    2.9216790  
C     0.4117390    1.9697520    1.5252940  
O    -0.4805230    2.3982600    2.4845880  
C     0.0620550    1.2367930    0.3933440  
H     0.2400910   -0.2993670   -2.2625930  
H     3.8225430    2.1104190    1.1992810  
H     1.2003220    3.2288000    3.3402200  
H    -1.3532150    2.5642780    2.0842630  
H     2.8540900   -0.4985790   -2.9765200  
C     5.2867160    1.7223020   -1.8437600  
C     6.6237780    1.4749620   -1.7153380  
C     6.7698200    0.2333570   -1.0015070  
C     5.4686760   -0.2440110   -0.7117470  
N     4.5768550    0.6847950   -1.2393170  
C     5.2219860   -1.4354140   -0.0239340  
C     6.3263550   -2.1677270    0.3849590  
O     6.1521860   -3.3398430    1.0615160  
C     7.6424550   -1.7108490    0.1067080  
O     8.6338190   -2.5509290    0.5777720  
C     7.8744070   -0.5304530   -0.5751750  
H     7.4207480    2.1046820   -2.0866650  
H     4.2212100   -1.7907640    0.1944450  
H     7.0371850   -3.6920190    1.2589860  
H     9.5021150   -2.1769790    0.3674750  
H     8.8919600   -0.2013120   -0.7767630  
H     4.7481510    2.5367450   -2.3056860  
C    -1.7960170   -0.3861010    0.0670900  
C    -3.1705310   -0.3730200   -0.0878930  
C    -3.5551000    1.0261170   -0.1009580  
C    -2.3692190    1.7857910    0.0531860  
N    -1.2989760    0.9020810    0.1496010  
C    -2.3596680    3.1902250    0.0881490  
C    -3.5829110    3.8378620   -0.0195350  
O    -3.6352990    5.1977620   -0.0085210  
C    -4.7818870    3.0914980   -0.1595890  
O    -5.9159020    3.8730900   -0.2573350  
C    -4.7808290    1.7105650   -0.2057690  
H    -1.4440970    3.7717990    0.1245990  
H    -4.5660450    5.4493740   -0.1433120  
H    -6.6652160    3.3215130   -0.5285860  
H    -5.7058410    1.1659480   -0.3600490  
H    -1.1087620   -1.2199690    0.0783090  
C    -2.9552160   -4.1624290    2.0959760  
C    -3.9717170   -4.8388770    1.4992100  
C    -4.5536160   -3.9582390    0.5098920  
C    -3.7776760   -2.6994670    0.5726210  
N    -2.7977300   -2.9037370    1.5309910  
C    -4.0120070   -1.5713120   -0.1714910  
C    -5.1574990   -1.6549300   -1.1025080  
O    -5.5040500   -0.7286190   -1.8190100  
C    -5.9845050   -2.9968020   -1.1977820  
O    -6.9285720   -3.0316570   -1.9737790  
C    -5.5992800   -4.1136060   -0.3499910  
H    -4.2895010   -5.8475920    1.7195320  
H    -6.1755150   -5.0309640   -0.4174590  
H    -2.2931440   -4.4796700    2.8910900  
H    -2.2431400   -2.1532070    1.9167720  
