58


C    -4.5573630    2.5803060   -2.4408150  
C    -5.7691220    2.6684520   -1.8360860  
C    -5.7463150    1.7752010   -0.6964190  
C    -4.3995490    1.1531570   -0.6862600  
N    -3.7334160    1.6801590   -1.7704480  
C    -3.9751160    0.2118090    0.2159830  
C    -4.9207390   -0.1368770    1.3009960  
O    -4.6049570   -0.8366360    2.2466910  
C    -6.3673620    0.4733730    1.2696830  
O    -7.1716010    0.1158300    2.1151310  
C    -6.6867540    1.4523990    0.2318180  
H    -6.6014620    3.2819410   -2.1482420  
H    -7.6851120    1.8790010    0.2286770  
H    -4.1888700    3.0882130   -3.3221850  
H    -2.7708340    1.4813520   -1.9991320  
C     0.2959180    1.6431490    0.0268220  
C    -1.0854240    1.6164060    0.0846640  
C    -1.4539520    0.2332880    0.1012490  
C    -0.1453650   -0.4983600    0.0432920  
N     0.8613210    0.3294880   -0.0011030  
C    -0.0595950   -1.9448090    0.0437380  
C    -1.2501530   -2.6040710    0.1339020  
O    -1.3501710   -3.9307070    0.1870740  
C    -2.5910880   -1.9029350    0.1681260  
O    -3.5801410   -2.6295040    0.1247110  
C    -2.6557510   -0.4243640    0.1796450  
H    -1.7529550    2.4621870    0.1691140  
H    -2.3172030   -4.1208560    0.1818420  
C     0.8815660    4.1103910   -0.0190300  
C     1.1802720    2.7646920    0.0063340  
C     2.6590120    2.7335010    0.0140610  
C     3.0514510    4.1663990   -0.0113730  
N     1.9972680    4.9538370   -0.0317280  
C     4.4234850    4.5799870   -0.0100650  
C     5.3718910    3.6092200    0.0240260  
O     6.6902410    3.8454560    0.0333540  
C     5.0059520    2.1480410    0.0637040  
O     5.9255790    1.3334360    0.1130490  
C     3.5804010    1.7523760    0.0488150  
H     4.6757150    5.6342540   -0.0325510  
H     7.1162540    2.9600820    0.0633660  
H     3.3292040    0.6983760    0.0712350  
H    -0.1057420    4.5580750   -0.0318870  
C     3.7710890   -2.0173070    2.3403060  
C     2.5092600   -1.7585380    1.9098790  
C     2.2972250   -2.5288300    0.7026730  
C     3.5605320   -3.2737230    0.4663350  
N     4.4093020   -2.9191570    1.4955530  
C     3.7786300   -4.1335150   -0.5615480  
C     2.7002950   -4.3482790   -1.5139420  
O     2.7830860   -5.1147670   -2.4615420  
C     1.3625850   -3.5453940   -1.3151350  
O     0.4945840   -3.6511080   -2.1635360  
C     1.2192710   -2.6619380   -0.1291690  
H     1.7971780   -1.0946590    2.3739500  
H     4.7080280   -4.6771080   -0.7003280  
H     4.2932890   -1.6307430    3.2055050  
H     5.3570950   -3.2456570    1.5979920  
