58


C     1.9658390   -0.4890360   -0.0361360  
C     3.2301760    0.0196970    0.0159690  
C     3.0936090    1.4742510   -0.0727150  
C     1.6436290    1.7532170   -0.1907760  
N     0.9979960    0.5104220   -0.1838340  
C     1.1073960    2.9971710   -0.2370750  
C     2.0110480    4.1464520   -0.2228580  
O     1.6121390    5.3003010   -0.2579170  
C     3.5531460    3.8711540   -0.1658830  
O     4.3270290    4.8137770   -0.2011220  
C     4.0049500    2.4781720   -0.0653300  
H     0.0452460    3.1910900   -0.3034970  
H     5.0680540    2.3033110    0.0487110  
H     1.6442390   -1.5152910    0.0595320  
C    -1.3746100   -2.0681010    2.3243240  
C    -2.6268680   -1.8320860    1.8598660  
C    -2.4630770   -0.8616920    0.7824640  
C    -0.9953260   -0.6278860    0.7395540  
N    -0.3662410   -1.3340410    1.6364800  
C    -0.3872600    0.2739860   -0.2268690  
C    -1.2194320    0.8532580   -1.1398310  
O    -0.7978080    1.6685290   -2.1193760  
C    -2.7022520    0.6775240   -1.0839960  
O    -3.3712760    1.3604150   -1.8531840  
C    -3.3190430   -0.2683320   -0.0930050  
H    -3.5517830   -2.2875460    2.1842910  
H    -1.6161890    1.9840750   -2.5654220  
H    -1.0718990   -2.7388840    3.1191550  
C    -6.4232420    0.1904390    3.0289200  
C    -7.5245270   -0.0660880    2.2812770  
C    -7.0715440   -0.3671470    0.9384580  
C    -5.5902000   -0.2642530    0.9681600  
N    -5.2646780    0.0742580    2.2593730  
C    -4.7740890   -0.4329350   -0.1222040  
C    -5.4247370   -0.8348420   -1.3881860  
O    -4.7902990   -1.1666140   -2.3738500  
C    -6.9904470   -0.9036240   -1.4413900  
O    -7.5309520   -1.1550420   -2.5049920  
C    -7.7400550   -0.6711460   -0.2048890  
H    -8.5507210   -0.0454910    2.6173690  
H    -8.8229070   -0.7339210   -0.2521730  
H    -6.3447710    0.4562910    4.0745550  
H    -4.3226640    0.1975520    2.5994330  
C     4.5987040   -3.4597090   -2.2775550  
C     5.7666380   -3.7182960   -1.6361730  
C     5.9117760   -2.7293290   -0.5884150  
C     4.7110380   -1.8639900   -0.6702750  
N     3.9383410   -2.3823940   -1.6929150  
C     4.4623120   -0.7722970    0.1179270  
C     5.4854880   -0.4562820    1.1351260  
O     5.3832000    0.4818280    1.9082400  
C     6.7604710   -1.3752800    1.2462510  
O     7.6003890   -1.0988940    2.0879280  
C     6.8865660   -2.5079950    0.3342540  
H     6.4620830   -4.5133830   -1.8621050  
H     7.7719410   -3.1306580    0.4165170  
H     4.1495140   -3.9694360   -3.1197390  
H     3.1460930   -1.8996770   -2.0901120  
