60


C     0.9465860   -0.4652380    0.9929830  
C     2.3073300   -0.4463720    0.9817790  
C     2.7209070    0.7993780    0.3873410  
C     1.5460230    1.5173710    0.0581960  
N     0.4524610    0.7257280    0.4456840  
C     1.5751930    2.7657950   -0.5727410  
C     2.8225040    3.3150370   -0.8362650  
O     2.9054120    4.5253150   -1.4533070  
C     4.0095580    2.6287500   -0.4839170  
O     5.1651770    3.3045130   -0.8102310  
C     3.9892480    1.3688310    0.1166500  
H     2.9495130   -1.2252240    1.3663190  
H     0.6855810    3.2961860   -0.8891700  
H     3.8490190    4.7099420   -1.6044350  
H     5.9090740    2.6790470   -0.7662480  
H     0.2534400   -1.1960200    1.3815440  
C    -0.8952790    1.0098810    0.3295980  
C    -1.9418120    0.1474570    0.1634010  
C    -3.1513200    0.9209010    0.2034990  
C    -2.7306990    2.3296140    0.3914590  
N    -1.3374270    2.3355140    0.4024730  
C    -3.5693770    3.3839360    0.5131150  
C    -5.0038500    3.1288720    0.4277100  
O    -5.8403140    4.0142300    0.5050660  
C    -5.4856210    1.6484280    0.2169310  
O    -6.6859850    1.4327540    0.2191630  
C    -4.4733660    0.5784060    0.0709040  
H    -1.8685930   -0.9166820    0.0095330  
H    -3.2321320    4.4077330    0.6425620  
H    -0.8067100    3.0477480    0.8854170  
C    -3.8849460   -3.1412390    2.3887230  
C    -4.6579710   -4.0226640    1.7152540  
C    -5.2100560   -3.2645120    0.5974670  
C    -4.6351390   -1.8871180    0.7676330  
N    -3.8617900   -1.8284940    1.8138300  
C    -4.9515480   -0.8006470   -0.1473460  
C    -5.7824380   -1.1158020   -1.1838450  
O    -6.1292530   -0.2483180   -2.1415110  
C    -6.3677140   -2.4886620   -1.3760060  
O    -7.1012540   -2.6642450   -2.3470260  
C    -6.0426630   -3.5603850   -0.4175150  
H    -4.8452160   -5.0630850    1.9416070  
H    -6.7479880   -0.7358660   -2.7292400  
H    -6.4918260   -4.5343050   -0.5865400  
H    -3.3043430   -3.3155730    3.2870800  
C     6.2747380    1.1426430    1.2130480  
C     5.2520270    0.6722310    0.4357530  
C     5.6626680   -0.6614180   -0.0095210  
C     6.9979080   -0.9127370    0.5855360  
N     7.3101180    0.2237140    1.3087020  
C     7.7187150   -2.0487940    0.4100330  
C     7.1541570   -3.1054830   -0.4259470  
O     7.7245460   -4.1637730   -0.6384750  
C     5.7466810   -2.8548200   -1.0809250  
O     5.2595140   -3.7206620   -1.7886560  
C     5.0671350   -1.5800900   -0.8123690  
H     8.6954110   -2.2122830    0.8550690  
H     4.0957090   -1.4184660   -1.2679030  
H     6.3366850    2.0837670    1.7448170  
H     8.1506470    0.3500330    1.8508720  
