58


C     3.7329350   -0.2342460   -0.2280560  
C     3.7468910   -1.5091120   -0.7308050  
C     5.0531300   -2.0685600   -0.4978830  
C     5.8314260   -1.0147960    0.1978460  
N     4.9973670    0.0909390    0.2853630  
C     7.1033830   -1.1666840    0.6390310  
C     7.7745000   -2.4436080    0.3935690  
O     8.9183710   -2.6704960    0.7541900  
C     6.9815970   -3.5625540   -0.3762330  
O     7.5313340   -4.6312570   -0.5958140  
C     5.6066200   -3.2784780   -0.7880790  
H     2.9381080   -1.9855300   -1.2665130  
H     7.6564950   -0.3876640    1.1547690  
H     5.0628540   -4.0636500   -1.3045430  
H     5.1464030    0.8415920    0.9441310  
C     1.3220600    0.3940830   -0.1066950  
C     2.6447510    0.7197930   -0.1871880  
C     2.7177650    2.1785740   -0.2028750  
C     1.3225950    2.6683320   -0.1124780  
N     0.5000990    1.5136700   -0.0648270  
C     0.9853960    3.9781660   -0.1043660  
C     2.0605180    4.9776310   -0.1854320  
O     1.8366850    6.1757920   -0.1677260  
C     3.5377390    4.4781470   -0.3057760  
O     4.4441240    5.2894570   -0.3901050  
C     3.7697680    3.0291070   -0.3122750  
H    -0.0394320    4.3151860   -0.0374680  
H     4.7933910    2.6901950   -0.4313590  
H     0.8843680   -0.5904200   -0.0346220  
C    -0.8800340    1.4315360    0.0159060  
C    -1.6543500    0.2984570   -0.0594660  
C    -2.9965030    0.7621110    0.1169720  
C    -2.8583260    2.2513110    0.2792660  
N    -1.6088610    2.6269720    0.2113010  
C    -3.9853710    3.1139580    0.4669700  
C    -5.2048600    2.5265560    0.4968250  
O    -6.3495060    3.1849030    0.6744880  
C    -5.3905860    1.0236390    0.3456970  
O    -6.5447000    0.6155760    0.4576520  
C    -4.2228630    0.1536700    0.1111220  
H    -1.3494770   -0.7271650   -0.1877020  
H    -3.8498920    4.1833830    0.5804070  
H    -7.0499760    2.4908650    0.6715080  
C    -2.6692450   -3.3751830    2.2678590  
C    -3.3108030   -4.3922430    1.6503280  
C    -4.1213930   -3.7580510    0.6156210  
C    -3.8271840   -2.2938240    0.7670180  
N    -2.9789080   -2.0814510    1.7293060  
C    -4.4579800   -1.2903150   -0.0788820  
C    -5.3095740   -1.7622750   -1.0351130  
O    -5.9295140   -0.9803980   -1.9254480  
C    -5.6140360   -3.2284300   -1.2081390  
O    -6.3944290   -3.5392940   -2.1048750  
C    -4.9750630   -4.2144130   -0.3201560  
H    -3.2553210   -5.4503950    1.8644910  
H    -6.4808010   -1.5861320   -2.4705610  
H    -5.2264130   -5.2596690   -0.4716810  
H    -1.9745280   -3.4295660    3.0974520  
