58


C     1.6654130   -0.8511280   -0.4469420  
C     2.9330980   -0.3808890   -0.5977610  
C     2.8311930    1.0743760   -0.6609450  
C     1.3887700    1.3981080   -0.5408550  
N     0.7209690    0.1871210   -0.3882150  
C     0.8833420    2.6595990   -0.6141890  
C     1.8077240    3.7763880   -0.7990910  
O     1.4354610    4.9374390   -0.8713980  
C     3.3390450    3.4544930   -0.9113580  
O     4.1296290    4.3711730   -1.0586980  
C     3.7580670    2.0483040   -0.8458050  
H    -0.1776360    2.8811990   -0.5969460  
H     4.8156380    1.8347950   -0.9616260  
H     1.3273670   -1.8723470   -0.3599120  
C    -2.1918930    1.9796110    2.3271110  
C    -3.3061720    1.3386940    1.8913650  
C    -2.9097220    0.4627940    0.8046670  
C    -1.4510860    0.6540460    0.6488980  
N    -1.0755740    1.5740880    1.6004340  
C    -0.6695410   -0.0123380   -0.2604690  
C    -1.3189330   -1.0215900   -1.0988130  
O    -0.7032490   -1.7458020   -1.8661970  
C    -2.8783650   -1.1725340   -1.0064390  
O    -3.4287890   -1.8529910   -1.8494080  
C    -3.6209860   -0.4332250    0.0471760  
H    -4.2990000    1.4306230    2.3045610  
H    -2.0776200    2.6989600    3.1267680  
H    -0.1541350    1.9800550    1.6719770  
C    -7.1357640    2.2549370   -0.1966230  
C    -8.1222370    1.3425380   -0.0112420  
C    -7.4878190    0.0535630    0.1757900  
C    -6.0263430    0.2957200    0.0881850  
N    -5.8819210    1.6507430   -0.1251800  
C    -5.0637770   -0.6736940    0.1732710  
C    -5.5329590   -2.0543470    0.4290960  
O    -4.7661810   -2.9754030    0.6471220  
C    -7.0776360   -2.3302240    0.4870350  
O    -7.4621250   -3.4785660    0.6354940  
C    -7.9918000   -1.1943420    0.3687790  
H    -9.1849730    1.5355360   -0.0093030  
H    -9.0574480   -1.3954620    0.4197340  
H    -7.2070430    3.3195200   -0.3759950  
H    -5.0006690    2.1117570   -0.2901880  
C     4.2992820   -2.2551070   -1.5772620  
C     4.1392240   -1.1966250   -0.7290750  
C     5.3785930   -1.0920070    0.0377560  
C     6.2635030   -2.1792370   -0.4504800  
N     5.5408140   -2.8509570   -1.4188920  
C     7.5173580   -2.4163570    0.0097530  
C     8.0407040   -1.5605820    1.0719850  
O     9.1573720   -1.6953790    1.5468020  
C     7.1090410   -0.4230520    1.6287640  
O     7.5154090    0.2862900    2.5346420  
C     5.7764770   -0.2604130    1.0355780  
H     8.1498310   -3.2156580   -0.3641600  
H     5.1474440    0.5323020    1.4272570  
H     3.6019490   -2.6375780   -2.3114050  
H     5.8912600   -3.6176230   -1.9718340  
