58


C     0.3350890    0.1366190   -1.0101930  
C     0.1908880    1.3509900   -0.3960250  
C     1.4650800    1.5953750    0.2917950  
C     2.3390160    0.4257770   -0.0044030  
N     1.6008850   -0.3879730   -0.8276830  
C     3.6441360    0.2482490    0.4286870  
C     4.1301230    1.3017950    1.3275970  
O     5.2645640    1.3328100    1.8021160  
C     3.1895380    2.4963220    1.7265630  
O     3.6111920    3.3122320    2.5282830  
C     1.8694540    2.5923860    1.1137990  
H     1.2642820    3.4606020    1.3401700  
H    -0.3799640   -0.3998410   -1.6187580  
H     1.8203580   -1.3793730   -0.8866200  
C    -4.1149910    0.2747080   -0.1514130  
C    -2.7350020    0.2770990   -0.1279980  
C    -2.2860690    1.6185330   -0.3505100  
C    -3.5081050    2.4416420   -0.4990220  
N    -4.5696910    1.5761480   -0.3910190  
C    -3.5237270    3.7878960   -0.6908090  
C    -2.2521700    4.4826810   -0.7484140  
O    -2.1438090    5.6924040   -0.8851280  
C    -0.9303740    3.6346520   -0.6257750  
O     0.1350250    4.2218220   -0.7244720  
C    -1.0194460    2.1672370   -0.4224610  
H    -2.1339220   -0.5961330    0.0593070  
H    -4.4367130    4.3660820   -0.7908370  
H    -5.5458220    1.8316500   -0.4086960  
C     7.9537710    0.0248280   -0.6312220  
C     8.0611970   -1.2951000   -0.9186920  
C     6.7595670   -1.8827800   -0.6949690  
C     5.8664920   -0.7700250   -0.2600600  
N     6.6466500    0.3619860   -0.2830280  
C     4.5191460   -0.8897640    0.0414290  
C     3.9967070   -2.2598810   -0.0591440  
O     2.8199140   -2.5619580    0.1353590  
C     4.9413340   -3.4544640   -0.4700520  
O     4.4573500   -4.5742850   -0.5073650  
C     6.3235580   -3.1634970   -0.8077630  
H     8.9450270   -1.8187110   -1.2524050  
H     6.9637640   -3.9832770   -1.1175720  
H     8.7104430    0.7980600   -0.6547380  
H     6.4145940    1.1390050    0.3297460  
C    -3.3428440   -4.0139280    0.5133960  
C    -4.5970270   -4.5024950    0.6309980  
C    -5.4742480   -3.3503860    0.4638190  
C    -4.5381060   -2.2009450    0.2490000  
N    -3.3027670   -2.6005590    0.2746150  
C    -5.0290870   -0.8324860    0.0382180  
C    -6.3961200   -0.6968000    0.0386400  
O    -7.0380650    0.4763550   -0.1416080  
C    -7.3406550   -1.8338380    0.2461030  
O    -8.5471540   -1.5738600    0.2255510  
C    -6.8111320   -3.1869420    0.4622510  
H    -4.9058330   -5.5229830    0.8089850  
H    -7.9972320    0.2484790   -0.0855560  
H    -7.5296920   -3.9876630    0.6081560  
H    -2.4029380   -4.5480030    0.5765260  
