58


C     0.0257780   -2.2094940   -3.3302380  
C     1.0138400   -1.7638480   -2.5087590  
C     0.9633000   -2.5611890   -1.3020820  
C    -0.1424850   -3.5289930   -1.5026360  
N    -0.6487940   -3.2849130   -2.7669450  
C    -0.5346860   -4.4625590   -0.5987960  
C     0.1899000   -4.5462030    0.6614800  
O    -0.0558160   -5.3756670    1.5232250  
C     1.3310800   -3.5008140    0.9288100  
O     1.8317170   -3.4599280    2.0385300  
C     1.7028500   -2.5453210   -0.1472450  
H     1.7175270   -0.9747350   -2.7255240  
H    -1.3418820   -5.1650570   -0.7799060  
H    -0.2501060   -1.8598040   -4.3165780  
H    -1.5627190   -3.5964390   -3.0601630  
C     1.9594320    1.9437910   -0.0646180  
C     1.5011090    0.6576820   -0.2541720  
C     2.6010590   -0.2096420    0.0842920  
C     3.6855410    0.7324230    0.5004820  
N     3.3106370    1.9763490    0.4158290  
C     4.9599490    0.2588330    0.9716240  
C     5.1547040   -1.0797240    1.0083800  
O     6.2950540   -1.6628960    1.4005410  
C     4.0939500   -2.0604560    0.5679020  
O     4.4101610   -3.2463170    0.5416510  
C     2.7575550   -1.5646660    0.1429390  
H     0.5653710    0.3486410   -0.6954390  
H     5.7255210    0.9653860    1.2714390  
H     6.1446110   -2.6287880    1.2924450  
C    -2.3022820    2.8370260    0.4801300  
C    -2.2542110    4.1902290    0.2680780  
C    -0.9017550    4.5432150   -0.0719610  
C    -0.1283060    3.2853820   -0.0480980  
N    -1.0321520    2.2792490    0.2343220  
C     1.2334020    3.1877930   -0.2198700  
C     1.9305280    4.4440030   -0.6105770  
O     3.0765320    4.4697540   -1.0127350  
C     1.1256900    5.7923370   -0.5919250  
O     1.7284140    6.8366100   -0.7857350  
C    -0.3128720    5.7412050   -0.3504010  
H    -3.0990130    4.8634950    0.2951440  
H    -0.8632240    6.6770810   -0.3573710  
H    -0.7248290    1.4026590    0.6398020  
C    -4.4792010    2.3547360    1.6538250  
C    -3.4206300    2.0087550    0.8589700  
C    -3.7137410    0.6199040    0.4506670  
C    -5.0102530    0.3141980    1.1294070  
N    -5.4422030    1.3356540    1.8211230  
C    -5.6617290   -0.9561360    0.9788870  
C    -5.0816650   -1.8752760    0.1682900  
O    -5.5903480   -3.0924180   -0.0649240  
C    -3.8025600   -1.5817120   -0.5662230  
O    -3.3577960   -2.4500290   -1.3160110  
C    -3.1357630   -0.2731220   -0.3751410  
H    -6.5945890   -1.1508820    1.4957910  
H    -4.9721970   -3.5320890   -0.6867690  
H    -2.2206650   -0.0998430   -0.9332060  
H    -4.6247210    3.2989850    2.1651850  
