60


C     1.4636360   -1.5290780   -0.9244270  
C     2.7935140   -1.2410000   -0.8760950  
C     2.9784240   -0.1743020    0.0789440  
C     1.6971780    0.1540430    0.5826200  
N     0.7613180   -0.6778830   -0.0612970  
C     1.5131330    1.0545890    1.6340990  
C     2.6505960    1.6400680    2.1673630  
O     2.5416920    2.5146840    3.1991190  
C     3.9475100    1.3515140    1.6629600  
O     4.9494920    2.0376440    2.2935190  
C     4.1401210    0.4741280    0.5901880  
H     3.5609120   -1.7425840   -1.4479650  
H     0.5435290    1.3031470    2.0441730  
H     3.4565240    2.7627140    3.4355620  
H     5.7110030    1.4148740    2.3955590  
H     0.9192940   -2.2354080   -1.5325570  
C    -2.0538740   -4.0221320    0.4660660  
C    -0.8957160   -3.3320910    0.3341700  
C    -1.2959400   -1.9331100    0.2503140  
C    -2.7754430   -1.9635360    0.3497150  
N    -3.2065250   -3.1890380    0.4691280  
C    -3.6090950   -0.7507440    0.3218980  
C    -2.9056740    0.4222270    0.2243870  
O    -3.4839290    1.6462390    0.2331310  
C    -1.4306840    0.4945160    0.1061350  
O    -0.9216090    1.6075900   -0.0441410  
C    -0.6148660   -0.7619050    0.1427500  
H     0.1135800   -3.7170300    0.3234570  
H    -2.7378210    2.2781250    0.1271890  
H    -2.1878970   -5.0912790    0.5748540  
C    -5.7575650   -1.8821660    1.0072790  
C    -5.0554550   -0.8523280    0.4262540  
C    -6.1159850    0.0555400   -0.0741700  
C    -7.3867560   -0.6147330    0.3387440  
N    -7.1582750   -1.7336080    0.9745760  
C    -8.6806950   -0.0678000    0.0374800  
C    -8.7309490    1.0811470   -0.6781610  
O    -9.8628150    1.7003740   -1.0430910  
C    -7.4749990    1.7633660   -1.1444230  
O    -7.5981650    2.7951450   -1.8022620  
C    -6.1573330    1.1868000   -0.8053450  
H    -9.5737700   -0.5849290    0.3701190  
H    -9.5746230    2.4919540   -1.5497120  
H    -5.2841060    1.7277930   -1.1442290  
H    -5.3350100   -2.7647180    1.4634340  
C     5.3866360    0.5709550   -3.6119070  
C     6.6832030    0.1875250   -3.4975550  
C     6.9483270   -0.0077320   -2.0873770  
C     5.6746540    0.2874360   -1.3808930  
N     4.7772470    0.6339660   -2.3617280  
C     5.4701560    0.2296120   -0.0198310  
C     6.6726620   -0.0359710    0.7674310  
O     6.7300960    0.0881930    1.9925580  
C     8.0008250   -0.4754270    0.0463000  
O     8.9331910   -0.8520850    0.7364580  
C     8.0627210   -0.3877320   -1.4090710  
H     7.3929130    0.0639650   -4.3022420  
H     8.9963050   -0.6480160   -1.8972730  
H     4.8172030    0.8200720   -4.4974420  
H     3.8083890    0.8549240   -2.1850550  
