58


C    -6.7217800   -3.7695810    1.8833220  
C    -5.7482650   -2.9364560    1.4268520  
C    -6.3896630   -1.8968310    0.6537090  
C    -7.8402310   -2.1921760    0.7063030  
N    -7.9704130   -3.3503100    1.4465200  
C    -8.8183370   -1.4422010    0.1323480  
C    -8.4212370   -0.2399960   -0.5752900  
O    -9.2090540    0.5227730   -1.1132180  
C    -6.8868800    0.1116830   -0.6460480  
O    -6.5720850    1.1340090   -1.2320270  
C    -5.8918930   -0.7991060   -0.0202130  
H    -4.6931160   -3.0263260    1.6316240  
H    -9.8736450   -1.6899570    0.1870550  
H    -6.6340910   -4.6518260    2.5032380  
H    -8.8495100   -3.7804080    1.6879750  
C    -3.4893880   -1.5018580   -0.3394090  
C    -4.4649620   -0.5559190   -0.1778780  
C    -3.7108720    0.7220310   -0.1662100  
C    -2.2860550    0.3136510   -0.3187350  
N    -2.1817790   -0.9836210   -0.4252900  
C    -1.1755970    1.2698150   -0.3332200  
C    -1.5446460    2.5822500   -0.1916940  
O    -0.6819410    3.6177690   -0.2160260  
C    -2.9602950    3.0144640   -0.0201920  
O    -3.1776970    4.2224060    0.0990760  
C    -4.0464830    2.0146780   -0.0150930  
H    -1.2489660    4.4164530   -0.1084990  
H    -5.0606320    2.3818860    0.0764090  
H    -3.6271330   -2.5709400   -0.4421630  
C     0.5871830   -0.3355240   -1.1677180  
C     0.1943660    0.7991680   -0.5122840  
C     1.4634590    1.3731760   -0.0102170  
C     2.5157830    0.4334650   -0.5012430  
N     1.9841260   -0.5497460   -1.1713640  
C     3.9449820    0.6094350   -0.2211180  
C     4.2475910    1.6978300    0.5560360  
O     5.5021860    2.0591740    0.8973250  
C     3.2152600    2.6234920    1.0937590  
O     3.6001810    3.5718560    1.7843040  
C     1.7896870    2.4095230    0.7817500  
H     5.3850230    2.8747920    1.4375210  
H     1.0829090    3.1238110    1.1827940  
H    -0.0512260   -1.0576320   -1.6539690  
C     4.7752600   -1.0773220   -1.9085630  
C     4.9182810   -0.3268330   -0.7691350  
C     6.2421480   -0.7355230   -0.2429610  
C     6.7357600   -1.7304920   -1.2434160  
N     5.8758270   -1.9104820   -2.2093070  
C     8.0041350   -2.3940960   -1.1073800  
C     8.7479990   -2.1191330   -0.0098590  
O     9.9429550   -2.6686180    0.2564680  
C     8.2667920   -1.1519780    1.0353060  
O     8.9905790   -0.9614650    2.0114920  
C     6.9665500   -0.4714150    0.8621680  
H     8.3260610   -3.0992340   -1.8655970  
H    10.2221000   -2.2778870    1.1140990  
H     6.6762800    0.2330500    1.6303760  
H     3.9187110   -1.0892250   -2.5659760  
