64


C    -1.8127210   -1.4276550    0.8132110  
C    -1.0478010   -0.5894280    0.0382370  
C    -1.9012630    0.4822420   -0.4092740  
C    -3.1821120    0.2267870    0.1396900  
N    -3.1003080   -0.9329370    0.8804090  
C    -4.2760760    1.0838990   -0.0932760  
C    -4.0525550    2.2095980   -0.8850880  
O    -5.0747510    3.0779060   -1.1278750  
C    -2.7664260    2.4705360   -1.4242380  
O    -2.7172210    3.6249860   -2.1778060  
C    -1.6960910    1.6258330   -1.2037260  
H    -3.8867790   -1.4125210    1.2911950  
H    -4.7201000    3.7830750   -1.6981500  
H    -1.8183770    3.7578040   -2.5141970  
H    -0.7162960    1.8447360   -1.6191690  
H    -1.5337750   -2.3358930    1.3268590  
C     0.8335910   -1.8975390   -0.9302900  
C     2.1845050   -1.7552680   -1.0874470  
C     2.5471220   -0.4824590   -0.5278550  
C     1.3554800    0.1030710   -0.0293180  
N     0.3084990   -0.7768780   -0.2916340  
C     1.3344690    1.3367340    0.6338840  
C     2.5446200    1.9983980    0.7699820  
O     2.5885610    3.2181020    1.3873950  
C     3.7447450    1.4377530    0.2658240  
O     4.8551860    2.2394780    0.4606440  
C     3.7819480    0.2019170   -0.3792890  
H     2.8499470   -2.4748030   -1.5424790  
H     0.4275580    1.7749220    1.0345240  
H     3.5143770    3.5155570    1.3523280  
H     5.6164120    1.8356310    0.0106660  
H     0.1692150   -2.6953950   -1.2302830  
C     5.2681040   -0.8268130   -2.1712580  
C     5.0509400   -0.3426830   -0.8984930  
C     6.3146370   -0.4789920   -0.1985820  
C     7.2440910   -1.0445240   -1.1098620  
N     6.5758010   -1.2456610   -2.3003820  
C     8.5694860   -1.3319800   -0.7605080  
C     8.9657310   -1.0476620    0.5367760  
O    10.2466910   -1.3050650    0.9291160  
C     8.0468350   -0.4940120    1.4684300  
O     8.5879680   -0.2771490    2.7211810  
C     6.7390060   -0.2113810    1.1217780  
H     6.9805850   -1.6367620   -3.1365750  
H     9.2810770   -1.7662110   -1.4554330  
H    10.3160190   -1.0549200    1.8666790  
H     7.9023680    0.0630810    3.3150140  
H     6.0510370    0.2014220    1.8555410  
H     4.5827120   -0.8860460   -3.0046000  
C    -6.2586060    1.7561660    1.2761750  
C    -7.4462790    1.2482850    1.6851450  
C    -7.5655570   -0.0782710    1.1212000  
C    -6.3273370   -0.3016070    0.3304330  
N    -5.5548070    0.8449260    0.4747870  
C    -6.0713010   -1.4314840   -0.3823340  
C    -7.0598440   -2.5070910   -0.3608080  
O    -6.9126700   -3.5562930   -0.9696530  
C    -8.3660460   -2.2988930    0.4889790  
O    -9.1936840   -3.1958950    0.5321590  
C    -8.5353410   -1.0274210    1.1959760  
H    -8.1731680    1.7434640    2.3124750  
H    -5.1838050   -1.5634590   -0.9914770  
H    -9.4508590   -0.8845100    1.7621790  
H    -5.8128050    2.7197690    1.4769080  
