64


C    -0.2672980    1.2103390   -0.1062090  
C    -1.3898690    0.5173060    0.2879320  
C    -2.5355840    1.3527710    0.0650160  
C    -2.0572620    2.5669700   -0.4839360  
N    -0.6692080    2.4944950   -0.5235670  
C    -2.9011490    3.6060860   -0.8809740  
C    -4.2642790    3.4175790   -0.7043760  
O    -5.1352380    4.4000800   -1.0696710  
C    -4.7668390    2.2233780   -0.1267840  
O    -6.1383380    2.2320790    0.0250420  
C    -3.9303850    1.1767600    0.2659920  
H    -1.3815960   -0.4685700    0.7288040  
H    -0.1222300    3.0224280   -1.1920030  
H    -2.5379520    4.5335460   -1.3114330  
H    -6.0317910    4.0787970   -0.8694590  
H    -6.4463910    1.3738940    0.3555500  
C     1.8452030   -2.6979440   -0.7767930  
C     0.8920830   -1.7171400   -0.6727100  
C     1.5703590   -0.5019800   -0.3164530  
C     2.9511700   -0.8132170   -0.2297080  
N     3.0882940   -2.1567390   -0.5151600  
C     3.9572300    0.1224270    0.0888580  
C     3.5151860    1.4255220    0.3180240  
O     4.4118670    2.4057080    0.6143860  
C     2.1409550    1.7635940    0.2386190  
O     1.8899690    3.1009760    0.5033230  
C     1.1453690    0.8329900   -0.0740980  
H    -0.1655640   -1.8405010   -0.8530560  
H     3.9616350   -2.6598730   -0.4797680  
H     3.8949060    3.2069220    0.8108280  
H     0.9457870    3.2084550    0.7154950  
H     1.7433940   -3.7446870   -1.0265310  
C     6.6111550   -1.4693470   -3.0504470  
C     7.7447880   -1.6155090   -2.2938410  
C     7.4245990   -1.1798310   -0.9631080  
C     6.0634210   -0.7797260   -0.9746280  
N     5.5900820   -0.9774560   -2.2573730  
C     5.3875020   -0.2674100    0.1539150  
C     6.1389960   -0.1745460    1.3258070  
O     5.5594270    0.2765440    2.4736630  
C     7.5026910   -0.5707550    1.3546160  
O     8.0954460   -0.4206740    2.5970930  
C     8.1490810   -1.0695480    0.2401870  
H     8.6977650   -1.9893460   -2.6427070  
H     4.6721470   -0.7073240   -2.5756310  
H     6.2567470    0.3032000    3.1514430  
H     9.0375690   -0.6344620    2.5305850  
H     9.1947430   -1.3663820    0.2957010  
H     6.4377360   -1.6821180   -4.0959860  
C    -4.0343370   -0.6268010    2.0447690  
C    -4.4671400   -0.0502380    0.8837050  
C    -5.5368570   -0.9118010    0.3820210  
C    -5.6859250   -2.0180720    1.3626250  
N    -4.7390100   -1.7855480    2.3399570  
C    -6.5859980   -3.0272550    1.2538740  
C    -7.4745890   -3.0458220    0.0944350  
O    -8.3221400   -3.9070080   -0.0811850  
C    -7.3188510   -1.9016760   -0.9724000  
O    -8.0354120   -1.9116940   -1.9600680  
C    -6.3115370   -0.8603940   -0.7373140  
H    -6.6769260   -3.8270040    1.9826010  
H    -6.2033190   -0.0881380   -1.4926670  
H    -3.2535990   -0.2839480    2.7107380  
H    -4.5901620   -2.3665260    3.1501270  
