62


C     1.1598520   -2.1610620    0.0221670  
C     1.8503970   -3.3124480    0.3354590  
C     3.2499950   -3.0236430    0.2479090  
C     3.3746890   -1.6551850   -0.1201570  
N     2.0915030   -1.1551900   -0.2339150  
C     4.6215720   -1.0209160   -0.3230240  
C     5.7518460   -1.8327480   -0.1588220  
O     7.0048840   -1.3128400   -0.3679780  
C     5.6401570   -3.1892570    0.2226480  
O     6.8606870   -3.8321540    0.3538640  
C     4.4137260   -3.7919180    0.4322340  
H     1.4006000   -4.2483420    0.6370650  
H     1.8471650   -0.2657570   -0.6412910  
H     7.6375450   -2.0120820   -0.1257480  
H     6.7200600   -4.7120510    0.7330550  
H     4.3541460   -4.8413420    0.7136350  
C    -1.2360540   -2.7655350   -0.5109480  
C    -0.2670270   -1.8939600   -0.0583880  
C    -0.9612170   -0.6796500    0.3169550  
C    -2.3330760   -0.8812950    0.0348580  
N    -2.4673210   -2.1518960   -0.4935080  
C    -3.3225120    0.1093320    0.2585590  
C    -2.8715170    1.2748310    0.8981130  
O    -3.7470920    2.2475660    1.2619000  
C    -1.4999520    1.4746910    1.2174240  
O    -1.2510750    2.6685790    1.8448460  
C    -0.5450560    0.5241980    0.9183290  
H    -3.3580380   -2.6371480   -0.4291850  
H    -3.2098760    2.9655300    1.6463280  
H    -0.2885900    2.8279660    1.9196720  
H     0.4880360    0.6951920    1.1958680  
H    -1.1279020   -3.7768510   -0.8769890  
C    -6.3290380   -3.1599050    0.6191980  
C    -7.4595990   -2.5392690    0.2164300  
C    -7.0354880   -1.2065260   -0.1949560  
C    -5.5571470   -1.1808040    0.0767540  
N    -5.1600340   -2.3410200    0.5263220  
C    -4.7358140   -0.0026490   -0.1693480  
C    -5.3748150    1.0140480   -0.8326840  
O    -4.7617050    2.1239750   -1.2608350  
C    -6.8413950    0.9994580   -1.1490690  
O    -7.3128860    1.9760000   -1.7333660  
C    -7.6599330   -0.1675900   -0.7771490  
H    -8.4658920   -2.9326060    0.1809610  
H    -5.4702340    2.6692350   -1.6700900  
H    -8.7166420   -0.1391450   -1.0246430  
H    -6.2162680   -4.1723100    0.9884180  
C     5.6457210    0.8865600   -1.6390480  
C     4.7633850    0.3926300   -0.7142990  
C     4.0422580    1.5455460   -0.1982570  
C     4.5547940    2.7342440   -0.9319280  
N     5.5315760    2.2601130   -1.7824310  
C     4.1212030    4.0041690   -0.7387760  
C     3.0736130    4.2344830    0.2526540  
O     2.6267330    5.3405890    0.5095080  
C     2.4992360    2.9878520    1.0182250  
O     1.5473320    3.1634000    1.7766920  
C     3.0952250    1.6857300    0.7765120  
H     4.5234620    4.8619780   -1.2686840  
H     2.7452170    0.8436050    1.3619360  
H     6.3766810    0.3395390   -2.2165840  
H     6.0872810    2.8291480   -2.4014790  
