62


C     1.7489070    0.2575770   -1.1335440  
C     1.0478820    1.2468110   -0.4890860  
C     2.0256430    2.0246520    0.2569690  
C     3.3000040    1.4572370    0.0243820  
N     3.1057200    0.3822860   -0.8391570  
C     4.4754600    1.9379340    0.6062760  
C     4.3594320    3.0304930    1.4532750  
O     5.4690730    3.5470710    2.0471640  
C     3.0895460    3.6154060    1.7104030  
O     3.1394620    4.6868860    2.5765330  
C     1.9321630    3.1290430    1.1309330  
H     5.4468320    1.4905430    0.4276930  
H     5.1816630    4.2870700    2.6099700  
H     2.2446340    5.0234650    2.7340100  
H     0.9708850    3.5874600    1.3473590  
H     1.4099280   -0.5224060   -1.7993170  
C    -2.3997250   -1.5586630    0.0926160  
C    -1.1533670   -1.0073880   -0.0068620  
C    -1.3240000    0.3777650   -0.3493910  
C    -2.7180300    0.6142670   -0.4446640  
N    -3.3706120   -0.5882900   -0.1713600  
C    -3.2549250    1.8782510   -0.7099340  
C    -2.3586490    2.9165200   -0.9039300  
O    -2.8225090    4.1681490   -1.1859420  
C    -0.9593220    2.6992560   -0.8267760  
O    -0.2083230    3.8346590   -1.0699940  
C    -0.4129100    1.4476100   -0.5496440  
H    -0.2188910   -1.5304010    0.1384320  
H    -4.3180540    2.0623530   -0.8012970  
H    -2.0461350    4.7279840   -1.3600270  
H     0.7256110    3.5846460   -1.1621470  
H    -2.7011540   -2.5805300    0.2756840  
C    -5.7106450   -2.2105760    3.0791660  
C    -6.9325420   -2.2257540    2.4860830  
C    -6.7740860   -1.6837130    1.1523020  
C    -5.3370330   -1.3502150    1.0212300  
N    -4.7452260   -1.7025540    2.2157050  
C    -4.7613890   -0.8068120   -0.0922420  
C    -5.6338930   -0.5463390   -1.2511080  
O    -5.2196600   -0.1103700   -2.3106270  
C    -7.1735410   -0.8575490   -1.1046980  
O    -7.9059980   -0.5827360   -2.0417900  
C    -7.6540510   -1.4505360    0.1404620  
H    -7.8552570   -2.5750710    2.9256530  
H    -8.7123830   -1.6785780    0.2175010  
H    -5.4256070   -2.5281930    4.0734000  
H    -3.7706190   -1.5554110    2.4314050  
C     4.8256650   -0.3588550   -2.4292200  
C     5.6462360   -1.4235460   -2.5898730  
C     5.4300470   -2.3203720   -1.4687980  
C     4.3964480   -1.6869230   -0.6165870  
N     4.0779620   -0.4864540   -1.2481860  
C     3.8960060   -2.2132100    0.5260370  
C     4.4130430   -3.5091640    0.9651730  
O     4.0225260   -4.0732880    1.9747130  
C     5.5222620   -4.2003660    0.0884040  
O     5.9701370   -5.2784270    0.4437020  
C     5.9729640   -3.5186120   -1.1304510  
H     6.3393440   -1.5798120   -3.4038000  
H     3.1387070   -1.7209030    1.1266850  
H     6.7343460   -4.0087190   -1.7296800  
H     4.6819810    0.5206500   -3.0420050  
