58


C    -3.4339860   -0.0933060   -0.0053990  
C    -3.6275820    1.1882230    0.4858590  
C    -5.0284870    1.4814060    0.4250760  
C    -5.6781710    0.2725190   -0.1399430  
N    -4.6649490   -0.6268480   -0.3851840  
C    -7.0141450    0.1506590   -0.3461150  
C    -7.8781430    1.2748620    0.0040940  
O    -9.0903040    1.2564910   -0.1459620  
C    -7.2105180    2.5670730    0.6029140  
O    -7.9180080    3.5183940    0.9006230  
C    -5.7586400    2.5783810    0.7810500  
H    -2.8747830    1.8276670    0.9193390  
H    -7.4739790   -0.7419620   -0.7582890  
H    -5.3080950    3.4743190    1.1977670  
H    -4.7548200   -1.5979920   -0.6582500  
C     0.8919800    1.0337610   -0.1831370  
C    -0.4851550    1.0396610   -0.1946030  
C    -0.9398750   -0.3125860   -0.1027820  
C     0.2742660   -1.1433790   -0.0496530  
N     1.3567090   -0.2718030   -0.0235700  
C     0.3208170   -2.5094230   -0.0617180  
C    -0.9873170   -3.1936410   -0.0862260  
O    -1.1109940   -4.3932100    0.0693300  
C    -2.2870710   -2.3373860   -0.2516590  
O    -3.3205600   -2.9463830   -0.5003550  
C    -2.2169790   -0.8695700   -0.1005650  
H    -1.0992260    1.9227010   -0.2670150  
H     2.2733490   -0.5654320   -0.3359840  
C     3.8294100   -2.6871690    2.7118240  
C     2.6557460   -2.3581630    2.1046430  
C     2.5325650   -3.1874350    0.9250370  
C     3.7467320   -4.0399090    0.8985330  
N     4.5018380   -3.6643930    1.9970370  
C     4.0050090   -5.0024680   -0.0217220  
C     3.0246180   -5.2244810   -1.0794350  
O     3.1454740   -6.0890980   -1.9309560  
C     1.7668740   -4.2880190   -1.1288220  
O     1.0332860   -4.3457610   -2.0977090  
C     1.5520340   -3.3073860   -0.0291350  
H     1.9349560   -1.6382120    2.4608960  
H     4.8902190   -5.6304580    0.0007140  
H     4.2578190   -2.2985780    3.6265890  
H     5.3472540   -4.1260400    2.2955410  
C     1.8184210    2.1318320   -0.2626810  
C     1.6331600    3.3943760   -0.7611350  
C     2.8755010    4.1107040   -0.6242710  
C     3.8277040    3.1691020    0.0110830  
N     3.1529240    1.9591960    0.1505740  
C     5.0952520    3.4859950    0.3654190  
C     5.5802280    4.8373550    0.0778920  
O     6.7064790    5.2101980    0.3616260  
C     4.6024340    5.8382500   -0.6375790  
O     4.9925000    6.9643960   -0.8991680  
C     3.2457390    5.3785350   -0.9541630  
H     0.7313910    3.7649730   -1.2275290  
H     5.7785510    2.7878960    0.8391740  
H     2.5719080    6.0835260   -1.4312090  
H     3.4022760    1.2940600    0.8707390  
