58


C    -0.7999620    1.8209870    0.1192440  
C    -1.6985550    0.7961700   -0.0171190  
C    -3.0038440    1.2998000    0.3251090  
C    -2.8136510    2.7249100    0.6779890  
N    -1.4649090    3.0027200    0.4839490  
C    -3.7974350    3.5650800    1.0819890  
C    -5.1589320    3.0467940    1.1498560  
O    -6.1182860    3.7286120    1.4720260  
C    -5.3948310    1.5370140    0.7910550  
O    -6.5014770    1.0619270    0.9670860  
C    -4.2445710    0.7140200    0.3270530  
H    -1.4716770   -0.1939000   -0.3829470  
H    -3.6306210    4.6102340    1.3233490  
H    -0.9964970    3.7556780    0.9697610  
C     0.6215610    1.8290490   -0.1187190  
C     1.5155690    0.7936840   -0.0703520  
C     2.8200540    1.3168290   -0.3774400  
C     2.6340920    2.7665720   -0.6143640  
N     1.2889110    3.0384980   -0.3817020  
C     3.6180360    3.6289650   -0.9645800  
C     4.9730280    3.1052550   -1.0986450  
O     5.9358470    3.8053620   -1.3663690  
C     5.1979680    1.5662480   -0.8871090  
O     6.2892860    1.0975940   -1.1541390  
C     4.0550500    0.7261180   -0.4428080  
H     1.2830510   -0.2271360    0.1897600  
H     3.4575200    4.6915360   -1.1181860  
H     0.8218230    3.8124080   -0.8360720  
C    -2.7866470   -3.2393900    1.8203180  
C    -2.9928310   -1.9099170    1.6278620  
C    -3.9287580   -1.7709770    0.5313950  
C    -4.2605440   -3.1521010    0.1015910  
N    -3.5154580   -3.9920630    0.9088580  
C    -5.1454430   -3.4743520   -0.8760840  
C    -5.8271110   -2.3904090   -1.5708650  
O    -6.6609240   -2.5732380   -2.4434380  
C    -5.4531190   -0.9152220   -1.1848740  
O    -5.9028100   -0.0047920   -1.8557980  
C    -4.5074840   -0.6789000   -0.0600110  
H    -2.5501220   -1.1067520    2.1968060  
H    -5.3856280   -4.4964390   -1.1521990  
H    -2.1627200   -3.7368270    2.5511970  
H    -3.5846140   -4.9977270    0.9070530  
C     6.7941600   -1.1526220    2.3944250  
C     6.6821890   -2.4654880    2.0924770  
C     5.6746980   -2.5272490    1.0369730  
C     5.3011490   -1.0957990    0.8075590  
N     5.9357590   -0.3039250    1.6155680  
C     4.3036660   -0.7018830   -0.1813330  
C     3.6741090   -1.7197860   -0.8325980  
O     2.7171450   -1.5409290   -1.7612110  
C     4.0191790   -3.1659400   -0.6047490  
O     3.4009410   -4.0026810   -1.2629310  
C     5.0648490   -3.5246960    0.3688230  
H     7.2042890   -3.3031540    2.5333370  
H     2.5007460   -2.4465860   -2.0799780  
H     5.2770060   -4.5809710    0.5037370  
H     7.4357080   -0.6883920    3.1334910  
