60


C     0.7820390    1.5177510   -0.7177280  
C    -0.5902740    1.4202150   -0.5637140  
C    -0.9099400    0.0587580   -0.2672140  
C     0.3174380   -0.6445860   -0.2571890  
N     1.3253470    0.2612930   -0.5096510  
C     0.4441760   -2.0380330   -0.0486870  
C    -0.7495590   -2.7248190    0.1666100  
O    -0.7270820   -4.0516570    0.4313870  
C    -2.0092720   -2.0628510    0.1719970  
O    -3.0374540   -2.9020350    0.4104970  
C    -2.1323780   -0.6592900   -0.0241280  
H    -1.2624550    2.2600480   -0.6329430  
H     2.2749740    0.0039710   -0.7346750  
H    -1.6568930   -4.3407140    0.4933780  
H    -3.8889180   -2.3616020    0.3533000  
C     1.3696570    3.7374850   -1.7857000  
C     1.6322030    2.6663480   -0.9781250  
C     2.9346490    2.9242240   -0.3680520  
C     3.3986860    4.2298800   -0.8964120  
N     2.3950160    4.6736080   -1.7355010  
C     4.5810670    4.8096080   -0.5677100  
C     5.4548830    4.1235940    0.3837250  
O     6.5387900    4.5649340    0.7308190  
C     4.9596200    2.7597920    0.9889770  
O     5.6491990    2.1837550    1.8175350  
C     3.6736730    2.2294090    0.5350430  
H     4.9105750    5.7639540   -0.9666640  
H     3.3466560    1.2856410    0.9560500  
H     0.5080230    3.9113620   -2.4163380  
H     2.4378160    5.5137260   -2.2911640  
C     4.2391030   -1.3830710    2.1281200  
C     4.9939340   -2.3537390    1.5560310  
C     4.1601230   -3.0463120    0.5958080  
C     2.8327970   -2.3851430    0.6487620  
N     2.9525220   -1.3700410    1.5836970  
C     1.7425890   -2.7371390   -0.0995460  
C     1.9432760   -3.8413140   -1.0704440  
O     1.1035660   -4.1567820   -1.8928370  
C     3.3225840   -4.5966210   -1.0852840  
O     3.4483220   -5.5647710   -1.8183690  
C     4.3984340   -4.0984240   -0.2321140  
H     6.0333680   -2.5619390    1.7634160  
H     5.3568940   -4.6065510   -0.2744950  
H     4.5172060   -0.6413970    2.8653670  
H     2.1640510   -0.8771690    1.9763310  
C    -3.4207290   -0.0251360    0.0388050  
C    -3.7976860    1.3050330    0.0066150  
C    -5.2185430    1.3342330    0.1104790  
C    -5.6248570   -0.1084740    0.2076450  
N    -4.5773000   -0.8810890    0.1701900  
C    -6.9944390   -0.5117250    0.3269820  
C    -7.9223770    0.4769770    0.3537280  
O    -9.2338390    0.2742160    0.4609670  
C    -7.5509060    1.9536560    0.2620450  
O    -8.4979720    2.7465100    0.2993260  
C    -6.1577500    2.3255040    0.1403800  
H    -3.1624320    2.1729250   -0.0469740  
H    -7.2621660   -1.5603150    0.3921720  
H    -9.6270540    1.1810830    0.4515430  
H    -5.9203030    3.3824830    0.0777220  
