58


C    -5.2988750   -0.4766750    1.9077790  
C    -4.3110900   -0.6150500    0.9752930  
C    -4.3822240   -1.9719050    0.4591870  
C    -5.5016120   -2.6178830    1.1844740  
N    -6.0175390   -1.6518410    2.0337680  
C    -5.8890560   -3.9030890    0.9970760  
C    -5.1623000   -4.7130380    0.0168810  
O    -5.4364460   -5.8790370   -0.2121820  
C    -3.9771050   -4.0413150   -0.7690300  
O    -3.3553750   -4.6989300   -1.5873100  
C    -3.6612510   -2.6398390   -0.4777530  
H    -6.7113270   -4.3653050    1.5343460  
H    -2.8536590   -2.1786050   -1.0374470  
H    -5.5522350    0.3914970    2.5011420  
H    -6.8162260   -1.7794460    2.6359720  
C    -1.9994540    0.2411740    0.6660990  
C    -1.3483480    1.3540000    0.2208190  
C    -2.3908810    2.2943390   -0.2036530  
C    -3.6869850    1.6180100    0.0289450  
N    -3.3894630    0.3656190    0.5688730  
C    -4.8996800    2.1552970   -0.2542330  
C    -4.9479220    3.4937380   -0.8368050  
O    -5.9927050    4.0556780   -1.1263840  
C    -3.5858010    4.2275640   -1.1013640  
O    -3.5973790    5.3392770   -1.6019800  
C    -2.3381630    3.5376620   -0.7410690  
H    -5.8365470    1.6371260   -0.0808100  
H    -1.4078180    4.0679770   -0.9075220  
H    -1.5849960   -0.6575750    1.1044490  
C     1.8651010   -1.1691780   -1.3881490  
C     2.9625000   -0.4413390   -1.0229240  
C     2.4531380    0.7478610   -0.3396010  
C     0.9764110    0.6290310   -0.3317970  
N     0.6898250   -0.5639060   -0.9642890  
C     0.1068680    1.5480640    0.1923030  
C     0.7108080    2.7528560    0.7944170  
O     0.0489670    3.6294680    1.3254030  
C     2.2747880    2.9132050    0.7626590  
O     2.7642130    3.9308010    1.2240710  
C     3.0767600    1.8395750    0.1767470  
H     4.1536200    1.9686140    0.1568910  
H     1.8283760   -2.1166430   -1.9091940  
H    -0.2409510   -0.8523610   -1.2249200  
C     4.8707380   -1.2541000   -2.4784170  
C     4.3493440   -0.7825010   -1.3112890  
C     5.4985820   -0.7771560   -0.3827550  
C     6.6370230   -1.2826840   -1.2088720  
N     6.2579300   -1.5614560   -2.4249400  
C     7.9598660   -1.4300660   -0.6616110  
C     8.1443370   -1.1226110    0.6448460  
O     9.3203430   -1.2192590    1.2838710  
C     7.0111800   -0.6426430    1.5099580  
O     7.2522760   -0.3944070    2.6887350  
C     5.6621300   -0.4859120    0.9211920  
H     8.7680310   -1.7879030   -1.2897410  
H     9.1442030   -0.9362090    2.2077560  
H     4.8750560   -0.1347140    1.5810490  
H     4.3450960   -1.3964410   -3.4157670  
