62


C    -1.6758840    0.0274990    0.9307070  
C    -1.2864230    1.2719600    0.5000400  
C    -2.3234470    1.7270650   -0.4085270  
C    -3.3083190    0.7109220   -0.4722460  
N    -2.8837820   -0.3403660    0.3446050  
C    -4.4808700    0.8501100   -1.2293750  
C    -4.6372910    2.0173910   -1.9663070  
O    -5.7612530    2.1955690   -2.7166160  
C    -3.6403840    3.0254490   -1.9442170  
O    -3.9310640    4.1156010   -2.7377250  
C    -2.4982010    2.8967330   -1.1736360  
H    -5.2776580    0.1151700   -1.2281640  
H    -5.6973690    3.0747270   -3.1289220  
H    -3.2407110    4.7877230   -2.6347730  
H    -1.7535080    3.6879200   -1.1536940  
H    -1.1980390   -0.6343550    1.6352260  
C     3.0443880    0.0156070    0.5541280  
C     1.6718140    0.0522860    0.4201590  
C     1.2265290    1.3527160    0.8215230  
C     2.3842900    2.0886290    1.1878910  
N     3.4759870    1.2649890    0.9933370  
C     2.3362450    3.4140220    1.6324770  
C     1.0857050    4.0067200    1.7089290  
O     0.9666880    5.2889140    2.1596200  
C    -0.0827170    3.2952680    1.3327580  
O    -1.2470730    4.0283180    1.4783600  
C    -0.0477420    1.9781100    0.8789510  
H     1.0608110   -0.7473190    0.0258200  
H     4.4051100    1.4535780    1.3381160  
H     3.2189170    3.9750180    1.9213100  
H     0.0143950    5.4860170    2.2009680  
H    -2.0064770    3.4236790    1.4353050  
C     3.7477960   -2.3995550    0.5441840  
C     3.9787710   -1.0720250    0.3195320  
C     5.3329590   -0.9791560   -0.2261600  
C     5.8565860   -2.3678020   -0.2890300  
N     4.8360360   -3.1779820    0.1641880  
C     7.0985800   -2.7030270   -0.7228640  
C     7.9874250   -1.6391510   -1.1781790  
O     9.1234430   -1.8424720   -1.5787700  
C     7.4425440   -0.1645430   -1.1552840  
O     8.1618370    0.7401550   -1.5474060  
C     6.0821010    0.0692730   -0.6567750  
H     7.4620380   -3.7255640   -0.7574730  
H     5.7160170    1.0909460   -0.6652900  
H     2.8663290   -2.8665390    0.9623830  
H     4.9160980   -4.1713910    0.3150770  
C    -4.5068870   -3.1917150   -2.5249460  
C    -5.0063630   -4.1044060   -1.6528060  
C    -4.6976440   -3.6408740   -0.3163450  
C    -3.9752140   -2.3583690   -0.4910060  
N    -3.8629800   -2.1570320   -1.8512030  
C    -3.5286800   -1.5782900    0.5402510  
C    -3.7248040   -2.0855710    1.9111180  
O    -3.3197330   -1.4966880    2.8989270  
C    -4.4731940   -3.4598390    2.1006970  
O    -4.6250190   -3.8754770    3.2385120  
C    -4.9330190   -4.1723240    0.9146580  
H    -5.5267450   -5.0168480   -1.9044180  
H    -5.4507510   -5.1153520    1.0577130  
H    -4.5361810   -3.1865390   -3.6064710  
H    -3.5636140   -1.2881840   -2.2702140  
