58


C     4.4522340   -1.0172360   -1.8456050  
C     5.0586460   -2.2273290   -1.9139690  
C     5.9257330   -2.3421320   -0.7616030  
C     5.7792680   -1.0746470   -0.0058970  
N     4.8591700   -0.2924490   -0.7173680  
C     6.4013010   -0.8191160    1.1696370  
C     7.2947760   -1.8404100    1.7211520  
O     7.8836530   -1.6978160    2.7806110  
C     7.4883400   -3.1758080    0.9176210  
O     8.2350960   -4.0341020    1.3604530  
C     6.7406480   -3.3402590   -0.3309680  
H     4.9365410   -2.9617050   -2.6972860  
H     6.2917990    0.1082810    1.7184820  
H     6.8565210   -4.2755950   -0.8701770  
H     3.7555120   -0.5556580   -2.5321710  
C     0.7803070    1.3279120   -0.3683820  
C     1.8891810    0.4968780   -0.4929880  
C     3.0595600    1.3016490   -0.3706920  
C     2.5926140    2.6908180   -0.1624490  
N     1.2184530    2.6369810   -0.1915990  
C     3.4050500    3.7610790    0.0361020  
C     4.8437960    3.5442090    0.0427740  
O     5.6601670    4.4264210    0.2547550  
C     5.3862810    2.0930540   -0.2375650  
O     6.5883790    1.9198850   -0.3395440  
C     4.4044250    1.0006120   -0.3986180  
H     1.8723060   -0.5786620   -0.5568670  
H     3.0334300    4.7668540    0.2016690  
H     0.5665960    3.3853350    0.0144190  
C    -1.5572440   -2.2150840   -1.7676000  
C    -0.5678950   -1.3029420   -1.5291230  
C    -1.1501040   -0.2107030   -0.8006480  
C    -2.5683500   -0.5561000   -0.6253210  
N    -2.7425100   -1.7979830   -1.2015050  
C    -3.5360950    0.2265100   -0.0327580  
C    -3.0688710    1.5323210    0.4787990  
O    -3.7365600    2.2626190    1.1823800  
C    -1.6024890    1.9840320    0.1621430  
O    -1.3350240    3.1612340    0.3703800  
C    -0.6237490    0.9962800   -0.3396630  
H     0.4471510   -1.3793060   -1.8819320  
H    -1.5114120   -3.1498850   -2.3099640  
H    -3.6520840   -2.2107810   -1.3547380  
C    -4.9165370   -0.1837450    0.1136530  
C    -5.4132210   -1.4521990    0.3180440  
C    -6.8491150   -1.3026290    0.3751500  
C    -7.0720130    0.1612340    0.1500610  
N    -5.9510390    0.8062480    0.0049510  
C    -8.3970410    0.7223630    0.1071880  
C    -9.4417320   -0.1165900    0.3052020  
O   -10.7247770    0.2656180    0.3020630  
C    -9.2470770   -1.5948180    0.5540000  
O   -10.2570700   -2.2776630    0.7199010  
C    -7.8864300   -2.1485090    0.5770550  
H    -4.8588890   -2.3562780    0.5328510  
H    -8.5319660    1.7842380   -0.0645390  
H   -11.2433240   -0.5523190    0.4731860  
H    -7.7867920   -3.2158490    0.7493390  
