62


C     0.5063590    0.0041350   -3.3217690  
C     1.7709730   -0.2262100   -2.8465620  
C     1.8756080    0.4631480   -1.5918690  
C     0.6282550    1.0973950   -1.3535090  
N    -0.1817820    0.8035330   -2.4303550  
C     0.3378220    1.8590800   -0.2029750  
C     1.3703920    1.9666000    0.7310110  
O     1.1747760    2.6460730    1.8907190  
C     2.6419890    1.3755300    0.5067030  
O     3.5771940    1.6517060    1.4842410  
C     2.9031420    0.6297370   -0.6395610  
H     2.5275300   -0.8331800   -3.3229560  
H    -1.1357890    1.1133510   -2.5331290  
H     2.0139360    2.5911690    2.3843440  
H     4.1442520    0.8743500    1.6426310  
H     0.0273520   -0.3491970   -4.2235440  
C    -3.6768100    0.0193170    0.1140780  
C    -4.3918990    1.1981890    0.3284500  
C    -3.4627390    2.2767050    0.3096270  
C    -2.1756450    1.7120370    0.0842480  
N    -2.3382740    0.3522840   -0.0284440  
C    -0.9921960    2.4790280    0.0158670  
C    -1.1503330    3.8578890    0.1629920  
O    -0.0718540    4.6775770    0.0683720  
C    -2.4325840    4.4368170    0.3878820  
O    -2.3978170    5.8123800    0.5078320  
C    -3.5788720    3.6748350    0.4633530  
H    -5.4675920    1.2898000    0.3856200  
H    -1.6358470   -0.3407640   -0.2561150  
H    -0.3813240    5.5843930    0.2383520  
H    -3.2877040    6.1451380    0.6960610  
H    -4.5456010    4.1434830    0.6356730  
C     5.0187370    0.3809920   -1.9532800  
C     6.2297670   -0.2177300   -1.8499570  
C     6.2312360   -0.9711540   -0.6134660  
C     4.8911180   -0.7632590   -0.0062070  
N     4.1935570    0.0706970   -0.8600040  
C     4.4881400   -1.3229350    1.1715190  
C     5.4271460   -2.1790280    1.8927730  
O     5.1490750   -2.7382210    2.9423700  
C     6.8588950   -2.3880250    1.2782760  
O     7.6692730   -3.0735000    1.8808420  
C     7.1641680   -1.7494180   -0.0068910  
H     7.0461170   -0.1427250   -2.5535240  
H     3.4750990   -1.2360030    1.5540660  
H     8.1476690   -1.9245750   -0.4327620  
H     4.6306930    1.0367650   -2.7206200  
C    -7.3071680   -1.9570960    1.6026180  
C    -7.1222300   -3.1928870    1.0703690  
C    -5.8617790   -3.1734320    0.3597540  
C    -5.3315600   -1.8053960    0.5082640  
N    -6.2723470   -1.1004790    1.2371340  
C    -4.1294110   -1.3544210    0.0122730  
C    -3.2890530   -2.3879010   -0.6303450  
O    -2.1282530   -2.1920410   -0.9687080  
C    -3.8900830   -3.8206180   -0.8981130  
O    -3.2208670   -4.6024410   -1.5576330  
C    -5.1907360   -4.1373120   -0.3359510  
H    -7.7877310   -4.0389710    1.1616120  
H    -5.5834050   -5.1379120   -0.4848070  
H    -8.1179350   -1.5863870    2.2158250  
H    -6.0539170   -0.2309150    1.7030640  
