60


C     2.5062910   -0.4462600    0.5356070  
C     3.3044660    0.6614920    0.5103330  
C     2.4893580    1.7898070    0.1161720  
C     1.1772880    1.3022500   -0.0756620  
N     1.2035650   -0.0927550    0.1739630  
C     0.1313570    2.1416740   -0.4685610  
C     0.4257150    3.4839570   -0.6766340  
O    -0.5668810    4.3300320   -1.0601590  
C     1.7424880    3.9790710   -0.5048250  
O     1.8753610    5.3227070   -0.7640250  
C     2.7756100    3.1453440   -0.1104520  
H    -0.8767940    1.7800850   -0.6071210  
H    -0.1798360    5.2174260   -1.1574810  
H     2.7985410    5.5954470   -0.6537740  
H     3.7852540    3.5329870   -0.0005420  
H     2.7476910   -1.4613410    0.8033560  
C     0.1798150   -1.0053660    0.0955390  
C     0.2354000   -2.3661810    0.3051000  
C    -1.1013130   -2.8286430    0.1106430  
C    -1.8768790   -1.5867090   -0.2288530  
N    -1.1184610   -0.5291500   -0.2361700  
C    -3.2970510   -1.6207770   -0.5070410  
C    -3.8964260   -2.8452110   -0.4641990  
O    -5.1877030   -3.0506130   -0.7140490  
C    -3.1375590   -4.1098170   -0.1031340  
O    -3.8086500   -5.1453930   -0.0938580  
C    -1.7155130   -4.0419600    0.1772780  
H     1.0885490   -2.9751540    0.5621030  
H    -5.3142860   -4.0233640   -0.5884090  
H    -1.2051850   -4.9668880    0.4236140  
C    -3.5869690    0.5193560   -1.7448140  
C    -4.4091600    1.5955200   -1.7577660  
C    -5.4190480    1.3830390   -0.7441470  
C    -5.1154580    0.0682950   -0.1261990  
N    -3.9897160   -0.4260790   -0.7891480  
C    -5.8185830   -0.4686880    0.9008480  
C    -6.9624710    0.2762460    1.4255190  
O    -7.6475830   -0.1307410    2.3512190  
C    -7.3174210    1.6579080    0.7667550  
O    -8.2764480    2.2864880    1.1871740  
C    -6.4683530    2.1378680   -0.3250460  
H    -4.3245350    2.4563720   -2.4049900  
H    -5.5879640   -1.4261250    1.3511950  
H    -6.7047320    3.1036780   -0.7612780  
H    -2.7167250    0.3102600   -2.3497740  
C     5.2719080    1.6592200    1.6509320  
C     6.6025500    1.4435440    1.7834460  
C     6.9326540    0.2750370    0.9949790  
C     5.6616310   -0.1808200    0.3793590  
N     4.6738800    0.7075550    0.8102130  
C     5.5581580   -1.2497820   -0.4491730  
C     6.7674340   -2.0134470   -0.7559270  
O     6.7651970   -2.9848500   -1.4956490  
C     8.1202940   -1.5575000   -0.1003180  
O     9.1368000   -2.1909990   -0.3341370  
C     8.1025810   -0.3771720    0.7691560  
H     7.2893430    2.0262360    2.3801570  
H     4.6272000   -1.5631330   -0.9077800  
H     9.0441440   -0.0596340    1.2068170  
H     4.6469590    2.4153230    2.1062890  
