60


C    -1.3773860    0.6230480    1.8611520  
C    -2.6533220    0.2022840    1.6182200  
C    -2.7330460   -0.2123030    0.2365440  
C    -1.4478750   -0.0303130   -0.3254170  
N    -0.6392320    0.4945590    0.6835500  
C    -1.1132750   -0.3800190   -1.6345240  
C    -2.1200560   -0.9620690   -2.3888510  
O    -1.8755170   -1.3568210   -3.6609970  
C    -3.4283520   -1.1624970   -1.8606630  
O    -4.2941120   -1.7315210   -2.7548650  
C    -3.7772310   -0.7619340   -0.5674350  
H    -3.4443380    0.1615150    2.3530400  
H    -0.1235390   -0.2412640   -2.0546480  
H    -2.7043020   -1.7679340   -3.9769290  
H    -4.8402660   -2.3879210   -2.2550690  
H    -0.9037310    1.0007080    2.7553820  
C     1.7170090   -0.1485650    0.7114870  
C     2.9334970    0.4166410    0.4496940  
C     2.6817610    1.8157160    0.0915480  
C     1.2161160    2.0075730    0.1587210  
N     0.6923160    0.7776900    0.5615750  
C     0.5632940    3.1608930   -0.1092640  
C     1.3605050    4.3290440   -0.4886690  
O     0.8663270    5.4119430   -0.7529450  
C     2.9218410    4.1667770   -0.5404230  
O     3.6102460    5.1272760   -0.8387080  
C     3.5007380    2.8518910   -0.2240020  
H    -0.5148800    3.2597270   -0.0491420  
H     4.5824490    2.7697620   -0.2396170  
H     1.4727640   -1.1666170    0.9828760  
C     4.2092880   -0.2669180    0.5266020  
C     4.5906450   -1.3079330    1.3300000  
C     5.9481570   -1.6576910    0.9974490  
C     6.3551060   -0.7306070   -0.0865150  
N     5.2807230    0.1249730   -0.2918450  
C     7.5546970   -0.7647250   -0.7147770  
C     8.5356980   -1.7606180   -0.2818350  
O     9.6417840   -1.8633270   -0.7878000  
C     8.1409430   -2.7283350    0.8934440  
O     8.9536160   -3.5580800    1.2724540  
C     6.8056940   -2.5999770    1.4774390  
H     3.9970310   -1.7474190    2.1190570  
H     7.8332710   -0.0842370   -1.5136660  
H     6.5372640   -3.2848670    2.2760380  
H     5.1522770    0.6433770   -1.1490810  
C    -6.3227470    2.2183110    1.4183520  
C    -7.4098160    1.4616370    1.7090210  
C    -7.1559430    0.1321220    1.1930450  
C    -5.8031360    0.1761870    0.5774160  
N    -5.3620200    1.4653240    0.7450000  
C    -5.1600270   -0.8746630   -0.0394460  
C    -5.9626750   -2.0874310   -0.1781060  
O    -5.6381500   -3.0460170   -0.8824020  
C    -7.3407890   -2.2044950    0.5709560  
O    -7.9044080   -3.2854870    0.5755800  
C    -7.8913040   -1.0094850    1.2047860  
H    -8.3060750    1.7874440    2.2159680  
H    -8.8644980   -1.0853550    1.6789220  
H    -6.1332170    3.2626960    1.6274750  
H    -4.4490740    1.7895610    0.4632070  
