58


C     2.0124950   -1.3003510   -1.2092860  
C     2.1922570   -2.6208540   -0.9576700  
C     3.3315740   -2.7397160   -0.0705590  
C     3.8116480   -1.3574380    0.1738340  
N     2.9669320   -0.5113350   -0.5547880  
C     4.8436350   -1.0467120    0.9937510  
C     5.5571880   -2.1384030    1.6586540  
O     6.4983880   -1.9492250    2.4124240  
C     5.0816060   -3.6115020    1.3905890  
O     5.6682790   -4.5338560    1.9336920  
C     3.9350280   -3.8139480    0.5007870  
H     1.6223350   -3.4393580   -1.3762030  
H     5.1846570   -0.0339290    1.1726740  
H     3.5972570   -4.8326260    0.3358580  
H     1.2794230   -0.8096290   -1.8349880  
C    -0.0679790    2.6342540    0.0949920  
C     0.5899040    1.4132620    0.1084120  
C     1.9074500    1.6735390   -0.3834390  
C     1.9149420    3.1405800   -0.6722890  
N     0.7699870    3.6930980   -0.3976190  
C     3.0839730    3.8018600   -1.1913080  
C     4.1887000    3.0491370   -1.4011280  
O     5.3533620    3.5330380   -1.8527060  
C     4.2119020    1.5546910   -1.1654970  
O     5.2445770    0.9548990   -1.4604930  
C     3.0024130    0.8970040   -0.6360880  
H     0.2645200    0.4823120    0.5491570  
H     3.0655180    4.8687550   -1.3818390  
H     5.9473210    2.7543360   -1.9405150  
C    -3.5588170   -0.0157000    0.1127420  
C    -4.5203110    0.8992320    0.4635800  
C    -3.8661540    2.1686390    0.6522690  
C    -2.4288430    1.9463270    0.3907410  
N    -2.3083440    0.6278220    0.0782660  
C    -1.4392370    2.9168290    0.4334300  
C    -1.8818090    4.2678020    0.8699120  
O    -1.1203660    5.1677480    1.1618010  
C    -3.4214930    4.5352870    1.0419850  
O    -3.8004680    5.6769660    1.2452530  
C    -4.3471880    3.4030950    0.9701810  
H    -5.5714090    0.6870030    0.5725260  
H    -5.4011620    3.5963340    1.1457480  
H    -1.4628990    0.1858830   -0.2503190  
C    -7.0870240   -2.6373100   -0.1437050  
C    -6.5253590   -3.8343680   -0.4174790  
C    -5.0897130   -3.5804150   -0.4753620  
C    -4.9653200   -2.1123900   -0.2016500  
N    -6.1297500   -1.5744400   -0.0105800  
C    -3.6640910   -1.4368940   -0.1678790  
C    -2.5814200   -2.2451140   -0.4019450  
O    -1.3049100   -1.8121510   -0.4081900  
C    -2.6883790   -3.7158730   -0.6744260  
O    -1.6372010   -4.3278090   -0.8638250  
C    -4.0124280   -4.3552170   -0.7020040  
H    -7.0138080   -4.7871900   -0.5653070  
H    -0.7472690   -2.6110830   -0.5616930  
H    -4.0489130   -5.4215570   -0.9020340  
H    -8.1355450   -2.3981420   -0.0185150  
