60


C     1.2177920    1.2061170   -1.1442150  
C     2.5636060    1.0562830   -1.0078640  
C     2.7942780   -0.0300860   -0.0886270  
C     1.5235860   -0.5068120    0.3126450  
N     0.5511830    0.2792570   -0.3317290  
C     1.3650540   -1.6454640    1.1048030  
C     2.5196020   -2.2995740    1.5066840  
O     2.4325400   -3.4191180    2.2708080  
C     3.8081370   -1.8347390    1.1352100  
O     4.8340330   -2.5926420    1.6385060  
C     3.9792440   -0.6764330    0.3669720  
H     3.3115850    1.6609630   -1.4988970  
H     0.4011230   -2.0334670    1.4063820  
H     3.3514770   -3.7261230    2.3949570  
H     5.5034700   -2.6840960    0.9196550  
H     0.6436780    1.9269930   -1.7063380  
C    -2.6199500    0.2992560   -3.3926990  
C    -1.3895210    0.2822220   -2.8244360  
C    -1.6373240    0.2191040   -1.3884720  
C    -3.1185250    0.2092840   -1.2733550  
N    -3.6851980    0.2558180   -2.4485760  
C    -3.8076630    0.1449330    0.0089720  
C    -3.0121850    0.0649350    1.1120040  
O    -3.4918260   -0.0632580    2.3589650  
C    -1.5174490    0.0915550    1.0447620  
O    -0.9006160    0.0954210    2.1057200  
C    -0.8368740    0.1535450   -0.2909130  
H    -0.4266450    0.2850410   -3.3142760  
H    -2.7130160   -0.0121040    2.9536950  
H    -2.8655310    0.3317470   -4.4474130  
C    -7.1721260   -2.2644520   -1.6685240  
C    -5.9471010   -1.7726870   -1.3546230  
C    -6.1473840   -0.6176530   -0.5067870  
C    -7.6177310   -0.4795380   -0.3457850  
N    -8.1790640   -1.5032920   -1.0807280  
C    -8.2358370    0.4684700    0.4047280  
C    -7.4056690    1.4342220    1.1061790  
O    -7.8574520    2.3131230    1.8246590  
C    -5.8460400    1.3432090    0.9255390  
O    -5.1568290    2.2103220    1.4319550  
C    -5.2753690    0.2329780    0.1178340  
H    -4.9979520   -2.1513480   -1.6980100  
H    -9.3135890    0.5319200    0.5193360  
H    -7.4326040   -3.1150930   -2.2843320  
H    -9.1671430   -1.6892470   -1.1458830  
C     5.6761100    3.4009890    0.7674400  
C     4.8998800    2.2877850    0.8433970  
C     5.6244260    1.2080920    0.2128670  
C     6.9117700    1.7944570   -0.2406970  
N     6.8676490    3.1300660    0.1045150  
C     7.8954730    1.1143080   -0.8839230  
C     7.6872460   -0.3041370   -1.1106130  
O     8.4702840   -1.0201120   -1.7140980  
C     6.3889290   -0.9660840   -0.5144610  
O     6.3576840   -2.1959390   -0.5099800  
C     5.3110040   -0.1222200    0.0280020  
H     3.9259360    2.2173000    1.3011850  
H     8.8071830    1.5736650   -1.2517190  
H     5.4823770    4.3979180    1.1405860  
H     7.6287540    3.7794350   -0.0178630  
