60


C    -4.0161230   -0.7380900    0.0377890  
C    -4.0677540   -2.1296660   -0.0281950  
C    -2.7468300   -2.5992600   -0.2526200  
C    -1.9014260   -1.4545760   -0.3341420  
N    -2.6939870   -0.3569370   -0.1542400  
C    -0.4993220   -1.5393850   -0.5429580  
C     0.0144660   -2.8409080   -0.6282890  
O     1.3483880   -3.0397290   -0.8192590  
C    -0.8218380   -3.9874200   -0.5512410  
O    -0.1270250   -5.1746100   -0.6750490  
C    -2.1842270   -3.8870920   -0.3758960  
H    -4.9579620   -2.7377910    0.0176010  
H    -2.4189580    0.6163280   -0.1496100  
H     1.4968710   -4.0010530   -0.8641210  
H    -0.7445330   -5.9204870   -0.6562140  
H    -2.8051750   -4.7785540   -0.3222260  
C     0.3358250   -0.3459180   -0.6603340  
C    -0.0257020    0.9170000   -1.0639590  
C     1.1376470    1.7569480   -1.0007790  
C     2.2369630    0.8944110   -0.4995540  
N     1.6909810   -0.3532610   -0.2938290  
C     3.5116970    1.3360800   -0.2455520  
C     3.8170100    2.7214030   -0.6808500  
O     4.9524230    3.1637410   -0.7242050  
C     2.6451640    3.6557600   -1.1479990  
O     2.8947970    4.8309470   -1.3759460  
C     1.3192170    3.0756260   -1.2908900  
H    -0.9910810    1.2330540   -1.4298120  
H     0.5094480    3.7200040   -1.6192410  
H     2.2707150   -1.1883470   -0.3515570  
C     5.0190760   -2.7700410   -0.9902800  
C     6.1312920   -2.8048790   -0.2225770  
C     6.1591710   -1.5185710    0.4646500  
C     4.9468370   -0.7965350   -0.0505770  
N     4.2849150   -1.5474330   -0.8862500  
C     4.5998380    0.5515890    0.3657620  
C     5.3951690    1.0793110    1.3493750  
O     5.1643840    2.2593520    1.9322510  
C     6.6051540    0.3739490    1.8945010  
O     7.2552480    0.9454920    2.7685060  
C     6.9643030   -0.9639760    1.3881790  
H     6.8531450   -3.6032220   -0.1214050  
H     5.9086600    2.3976440    2.5590060  
H     7.8478560   -1.4365800    1.8060880  
H     4.6411340   -3.5380470   -1.6547440  
C    -8.1858460   -0.9646110    1.6186830  
C    -6.8928370   -1.2388270    1.2951080  
C    -6.3220350   -0.0431510    0.7185410  
C    -7.3981300    0.9689820    0.7437940  
N    -8.5075950    0.3394700    1.2723540  
C    -7.2901250    2.2573700    0.3143810  
C    -6.0036810    2.6946330   -0.1784320  
O    -5.7746180    3.8140790   -0.6122640  
C    -4.8104400    1.6671500   -0.1414660  
O    -3.6969710    2.1057740   -0.4013090  
C    -5.0645110    0.2451940    0.2164770  
H    -6.3822110   -2.1679250    1.4887130  
H    -8.1156980    2.9615940    0.3192540  
H    -8.9270000   -1.6000630    2.0845460  
H    -9.3864080    0.7952070    1.4617770  
