58


C    -4.0404770   -0.0353420   -0.2531680  
C    -5.3216770   -0.4836000   -0.4777050  
C    -5.3458370   -1.8913780   -0.1874420  
C    -3.9653760   -2.2539130    0.2341300  
N    -3.2339510   -1.0909670    0.1696740  
C    -3.5809240   -3.5058410    0.5936050  
C    -4.5736800   -4.5745340    0.5649600  
O    -4.3188170   -5.7313070    0.8652590  
C    -6.0398890   -4.2142240    0.1222650  
O    -6.8846330   -5.0963900    0.0920090  
C    -6.3363400   -2.8266070   -0.2403550  
H    -6.1568590    0.1138430   -0.8136950  
H    -2.5695410   -3.7526360    0.9009320  
H    -7.3516950   -2.5899700   -0.5438270  
H    -2.2580770   -0.9606200    0.3958600  
C    -3.4543840    1.2725500   -0.3896030  
C    -4.0173670    2.4569950   -0.7759700  
C    -2.9452450    3.4235650   -0.7289830  
C    -1.7466720    2.6367940   -0.2780320  
N    -2.0555540    1.3880020   -0.0823760  
C    -0.4432280    3.2476540   -0.0922280  
C    -0.3702970    4.5837900   -0.3648070  
O     0.7590550    5.2881840   -0.2890710  
C    -1.5583800    5.3989600   -0.8189980  
O    -1.3677410    6.5934180   -1.0406450  
C    -2.8638430    4.7488930   -0.9829350  
H    -5.0439480    2.6481460   -1.0552710  
H     0.5124460    6.2140110   -0.5134450  
H    -3.6967200    5.3672840   -1.3021750  
C     1.7146650   -0.3981340   -1.4607970  
C     0.8638960    0.6482150   -1.3341820  
C     1.2106740    1.3556330   -0.1246320  
C     2.3605770    0.6247610    0.4609870  
N     2.6112170   -0.4630700   -0.3834100  
C     3.0430450    1.0261300    1.5606110  
C     2.5948700    2.2333130    2.2473240  
O     3.1625930    2.6859180    3.2285250  
C     1.3267950    2.9769530    1.7023470  
O     0.8855290    3.9172210    2.3390100  
C     0.7054480    2.4926190    0.4455980  
H     0.0686660    0.9043360   -2.0164450  
H     3.9031010    0.5052920    1.9597800  
H     1.7849180   -1.1382890   -2.2429330  
C     5.3827780   -1.9621200   -3.3466300  
C     6.1244490   -2.8245140   -2.6165490  
C     5.5607150   -2.7737560   -1.2700980  
C     4.4458060   -1.7853490   -1.3859470  
N     4.3434990   -1.3187730   -2.5935840  
C     3.6157560   -1.4355830   -0.2406100  
C     3.8679320   -2.0887820    0.9315530  
O     3.1523940   -1.9124030    2.0538820  
C     4.9897510   -3.0693990    1.0656350  
O     5.1445560   -3.6045880    2.1626560  
C     5.8363270   -3.3853290   -0.1035600  
H     6.9615690   -3.4277940   -2.9387210  
H     3.5726420   -2.4990620    2.7231470  
H     6.6323260   -4.1088530    0.0427410  
H     5.4819770   -1.7129860   -4.3957970  
