58


C    -3.6893850   -1.1425980    1.7770050  
C    -4.3476830   -2.3252220    1.8048720  
C    -5.3119220   -2.3125500    0.7260610  
C    -5.1649680   -0.9982790    0.0539770  
N    -4.1630590   -0.3080670    0.7512830  
C    -5.8573800   -0.6343160   -1.0513380  
C    -6.8433780   -1.5690790   -1.5969770  
O    -7.5078230   -1.3188610   -2.5900070  
C    -7.0426120   -2.9484770   -0.8739060  
O    -7.8681830   -3.7344970   -1.3106150  
C    -6.2072320   -3.2381850    0.2938120  
H    -4.1914220   -3.1265480    2.5127240  
H    -5.7395690    0.3202190   -1.5494500  
H    -6.3248390   -4.2059120    0.7718850  
H    -2.9074040   -0.7722930    2.4256770  
C    -0.0449560    1.2356720    0.2366020  
C    -1.1104730    0.3740920    0.4036010  
C    -2.2803330    1.1943250    0.3693960  
C    -1.7588090    2.5848960    0.1784120  
N    -0.4583710    2.6001960    0.1010870  
C    -2.6300840    3.7248150    0.0756440  
C    -3.9605490    3.5015290    0.1674970  
O    -4.8921460    4.4563910    0.0780410  
C    -4.5374410    2.1182200    0.3978790  
O    -5.7561760    2.0441420    0.5404860  
C    -3.6268600    0.9591570    0.4636970  
H    -1.0779020   -0.6999780    0.5179690  
H    -2.2180460    4.7159850   -0.0751880  
H    -5.7529640    4.0020280    0.2218600  
C     1.9076130   -0.3249340    0.1859550  
C     1.3577150    0.9341250    0.1728360  
C     2.4801150    1.8713800    0.0756910  
C     3.7074230    1.0437950    0.0570360  
N     3.2893910   -0.2937500    0.0887470  
C     4.9718580    1.5390140    0.0473490  
C     5.1483230    2.9924860    0.0054410  
O     6.2479160    3.5213570   -0.0098580  
C     3.8607450    3.8858770   -0.0298270  
O     3.9834860    5.0967400   -0.1030810  
C     2.5488400    3.2251050    0.0346540  
H     5.8610350    0.9226920    0.1151060  
H     1.6560740    3.8381540    0.0535270  
H     1.4088810   -1.2795890    0.2500550  
C     6.6458580   -1.5077140   -2.4588250  
C     6.9599940   -2.6693970   -1.8362410  
C     6.0224510   -2.8446810   -0.7454290  
C     5.1288130   -1.6600250   -0.7846200  
N     5.5392660   -0.9033330   -1.8539510  
C     4.1117010   -1.4427240    0.1083620  
C     3.8452310   -2.4797140    1.1162060  
O     2.9117280   -2.4135480    1.8998380  
C     4.7929520   -3.7343710    1.1616700  
O     4.5823090   -4.5806090    2.0132260  
C     5.8659830   -3.8330860    0.1747100  
H     7.7538730   -3.3502440   -2.1056490  
H     6.5083290   -4.7069390    0.2124660  
H     7.1089970   -1.0341020   -3.3138300  
H     5.2061830    0.0274660   -2.0587650  
