58


C     5.4835630   -2.5898820   -2.0327930  
C     6.5383430   -2.9172960   -1.2444180  
C     6.6399030   -1.9012570   -0.2168410  
C     5.5356780   -0.9453460   -0.4699570  
N     4.8618290   -1.4318400   -1.5725350  
C     5.3040980    0.1992920    0.2459780  
C     6.2024620    0.4478780    1.4013740  
O     6.0131280    1.3517370    2.1935390  
C     7.3962440   -0.5396160    1.6594300  
O     8.1699320   -0.2974690    2.5711420  
C     7.5243560   -1.7157870    0.7998480  
H     7.1899280   -3.7706240   -1.3628900  
H     8.3497820   -2.3947220    0.9906750  
H     5.0968510   -3.0930310   -2.9091650  
H     4.1197510   -0.9392150   -2.0452410  
C     0.8517010   -0.1315670   -0.1720030  
C     2.1934000   -0.3879290    0.0199140  
C     2.9047750    0.8467410   -0.1533480  
C     1.8789890    1.8762910   -0.4545570  
N     0.6711180    1.2127330   -0.4799360  
C     2.1324420    3.1991090   -0.6287070  
C     3.5098050    3.6570780   -0.5244260  
O     3.8392050    4.8286100   -0.6229830  
C     4.6310460    2.5824510   -0.2968550  
O     5.7947450    2.9207690   -0.4028520  
C     4.2414070    1.1640220   -0.0461860  
H     2.6232340   -1.3437210    0.2801200  
H     1.3562790    3.9341330   -0.8164920  
H    -0.2452240    1.6247340   -0.5819610  
C    -0.2895680   -1.0005370   -0.0909940  
C    -0.3700570   -2.3274420    0.2375820  
C    -1.7709800   -2.6611340    0.1689000  
C    -2.4358390   -1.3828170   -0.2339770  
N    -1.5740210   -0.4220040   -0.3844000  
C    -3.8757890   -1.2960070   -0.4125150  
C    -4.5916710   -2.4434630   -0.2229060  
O    -5.9163820   -2.5259710   -0.3866070  
C    -3.9435710   -3.7308440    0.2007940  
O    -4.6833590   -4.7054450    0.3441200  
C    -2.4892540   -3.7876920    0.3891910  
H     0.4350420   -2.9934810    0.5143780  
H    -6.1469620   -3.4588830   -0.1682040  
H    -2.0614000   -4.7383990    0.6905040  
C    -4.0138040    0.7738670   -1.7847460  
C    -4.7670410    1.8948160   -1.8781290  
C    -5.7743570    1.8323540   -0.8415880  
C    -5.5478290    0.5563960   -0.1203240  
N    -4.4634220   -0.0643850   -0.7510610  
C    -6.2626110    0.1592420    0.9602300  
C    -7.3496990    1.0200370    1.4309080  
O    -8.0418560    0.7365390    2.3955200  
C    -7.6280780    2.3583770    0.6588000  
O    -8.5399890    3.0797240    1.0297170  
C    -6.7637710    2.6887960   -0.4773090  
H    -4.6409840    2.6910610   -2.5976140  
H    -6.0863810   -0.7666560    1.4923660  
H    -6.9409650    3.6296700   -0.9894130  
H    -3.1666330    0.4608720   -2.3765270  
