60


C    -2.3579450    3.7947990   -0.9445270  
C    -3.5287630    3.0849860   -1.0067520  
C    -3.2185160    1.7259840   -0.6609640  
C    -1.8296530    1.6779380   -0.3816030  
N    -1.3348740    2.9523510   -0.5582730  
C    -1.1406220    0.4999740   -0.0059630  
C    -1.9332900   -0.6502200    0.0751300  
O    -1.3734810   -1.8394960    0.4429690  
C    -3.3222790   -0.6251260   -0.2054380  
O    -3.9068160   -1.8730860   -0.1105620  
C    -3.9951360    0.5410580   -0.5679490  
H    -4.5011500    3.4884610   -1.2503230  
H    -0.3572300    3.1948880   -0.5061610  
H    -2.0979150   -2.4899150    0.4873500  
H    -4.8742590   -1.7986310   -0.1187650  
H    -2.1655510    4.8418980   -1.1304480  
C     0.9820680    1.4821200    0.9809720  
C     0.2904510    0.5198960    0.3055340  
C     1.3403760   -0.4389130   -0.1080980  
C     2.6065100    0.1314050    0.4290710  
N     2.3794620    1.2499110    1.0579750  
C     3.9131860   -0.5084870    0.2311870  
C     3.8797190   -1.6672420   -0.5025620  
O     4.9656530   -2.4275830   -0.7633880  
C     2.6306670   -2.2383520   -1.0707410  
O     2.7178320   -3.2924050   -1.7088680  
C     1.3391070   -1.5608560   -0.8463000  
H     4.6148060   -3.1864140   -1.2842890  
H     0.4503630   -2.0235550   -1.2579960  
H     0.5791460    2.3553490    1.4806930  
C     5.1669270    0.8930430    1.9162560  
C     5.1121050    0.0844010    0.8090630  
C     6.5211850    0.0183560    0.3526230  
C     7.2625460    0.8469590    1.3514400  
N     6.4624260    1.3400470    2.2580710  
C     8.6825830    1.0588410    1.2734180  
C     9.3489210    0.5066750    0.2318900  
O    10.6688990    0.6283320    0.0227770  
C     8.6306530   -0.3022620   -0.8113230  
O     9.2991820   -0.7619340   -1.7359840  
C     7.1730830   -0.5182660   -0.6975250  
H     9.1791680    1.6574990    2.0289130  
H    10.8472070    0.1276500   -0.8040250  
H     6.7068360   -1.1281980   -1.4599020  
H     4.3302130    1.2099190    2.5208510  
C    -6.0222690    1.0511340   -2.0027260  
C    -5.4346220    0.5360670   -0.8809280  
C    -6.5226910   -0.0037900   -0.0685350  
C    -7.7765050    0.2299110   -0.8297900  
N    -7.3987620    0.8830430   -1.9871090  
C    -9.0117580   -0.1392730   -0.4094160  
C    -9.1360050   -0.8115920    0.8828380  
O   -10.2043520   -1.1921620    1.3338810  
C    -7.8280690   -1.0423080    1.7233800  
O    -7.9126600   -1.5772160    2.8165020  
C    -6.5479680   -0.6010550    1.1560800  
H    -9.9166750    0.0437340   -0.9808170  
H    -5.6578940   -0.7395770    1.7628480  
H    -5.5447800    1.5324110   -2.8458690  
H    -8.0280750    1.1665920   -2.7217900  
