60


C     1.7298330   -0.2378090    0.3714490  
C     0.7783150    0.7545730    0.4040540  
C     1.4975290    2.0145790    0.2656250  
C     2.8735450    1.7104920    0.1724370  
N     3.0001460    0.3083760    0.2140420  
C     3.8667700    2.6959500    0.1253960  
C     3.4521970    4.0207710    0.1236560  
O     4.3772460    5.0151190    0.0617290  
C     2.0733340    4.3440640    0.1889980  
O     1.8162490    5.6965840    0.1742540  
C     1.1025770    3.3634750    0.2746430  
H     4.9267360    2.4745400    0.1171780  
H     3.8961290    5.8612370    0.0556070  
H     0.8622010    5.8482800    0.0957270  
H     0.0533650    3.6334830    0.3171490  
H     1.6062640   -1.3095000    0.3448530  
C    -1.5253620   -2.1541460    2.8388350  
C    -0.5486230   -1.3823040    2.2953200  
C    -1.1786030   -0.4603980    1.3733040  
C    -2.6259630   -0.7492740    1.4416000  
N    -2.7719300   -1.7730570    2.3581410  
C    -3.6161540   -0.1158980    0.7336250  
C    -3.1690040    0.9654620   -0.1492760  
O    -3.9322080    1.6655030   -0.7957850  
C    -1.6275550    1.2777890   -0.2648650  
O    -1.2987760    2.1475800   -1.0544320  
C    -0.6565990    0.5149520    0.5504840  
H     0.5026040   -1.4264400    2.5332350  
H    -1.4474710   -2.9521930    3.5650660  
H    -3.6312960   -2.2878710    2.4794750  
C    -5.7180010   -0.5586720    2.0681280  
C    -5.0426530   -0.4224140    0.8864540  
C    -6.0308920   -0.6535540   -0.1739980  
C    -7.3173410   -0.9370330    0.5067820  
N    -7.0529880   -0.8741380    1.8627540  
C    -8.4883500   -1.2028360   -0.1254030  
C    -8.4954860   -1.2324870   -1.5844650  
O    -9.4968770   -1.4653220   -2.2436910  
C    -7.1387200   -0.9602820   -2.3294300  
O    -7.1125740   -1.0059920   -3.5479610  
C    -5.9425510   -0.6653560   -1.5269800  
H    -9.4183210   -1.4011900    0.3986290  
H    -5.0252290   -0.4442990   -2.0600480  
H    -5.3466320   -0.4235700    3.0760710  
H    -7.7517770   -0.9361330    2.5868450  
C     4.1468500   -0.4517810    0.0961550  
C     4.4112730   -1.6934950    0.6082630  
C     5.7137720   -2.0841650    0.1397320  
C     6.2051250   -0.9624060   -0.6974970  
N     5.2302520    0.0315580   -0.6428770  
C     7.3815790   -0.9610790   -1.3651330  
C     8.2540580   -2.1308160   -1.2335000  
O     9.3338970   -2.2128740   -1.7962350  
C     7.7744880   -3.3143880   -0.3168360  
O     8.4993090   -4.2911080   -0.1915970  
C     6.4737160   -3.1981710    0.3358130  
H     3.7833790   -2.2460690    1.2911450  
H     7.7216650   -0.1337450   -1.9805150  
H     6.1443270   -4.0290990    0.9520970  
H     5.1169450    0.7274250   -1.3674150  
