60


C     1.5944140   -0.0325920    0.0592840  
C     1.7997690   -1.4041840    0.0694680  
C     3.0563570   -1.6232660   -0.6313470  
C     3.5323750   -0.3560420   -1.0407550  
N     2.6218670    0.6103150   -0.5943630  
C     4.7189150   -0.1777950   -1.7590830  
C     5.4420180   -1.3142080   -2.0870010  
O     6.6087910   -1.2013270   -2.7786590  
C     4.9744690   -2.5974500   -1.7017050  
O     5.7956390   -3.6312260   -2.0998470  
C     3.8037510   -2.7626040   -0.9868870  
H     5.0935120    0.7978510   -2.0460730  
H     6.9756260   -2.0981040   -2.8728260  
H     5.5065260   -4.4558180   -1.6804850  
H     3.4905730   -3.7506150   -0.6701040  
H     0.8040620    0.5435360    0.5168830  
C    -2.6436080   -1.5003990    0.2960750  
C    -1.3402690   -1.2430540   -0.0401440  
C    -0.4994850   -2.1778740    0.6589110  
C    -1.4134220   -3.0457190    1.4280420  
N    -2.6936320   -2.5396820    1.2432480  
C    -1.0427760   -4.1341700    2.1519910  
C     0.3649050   -4.4751950    2.1839000  
O     0.8188430   -5.4507650    2.7632440  
C     1.3780880   -3.5373440    1.4226050  
O     2.5605350   -3.8284640    1.4773650  
C     0.8734650   -2.3473310    0.6796880  
H    -1.0108650   -0.4577130   -0.7028560  
H    -1.7434370   -4.7561120    2.6998040  
H    -3.5104410   -3.1286060    1.3387720  
C    -3.8494760   -0.8471310   -0.1390020  
C    -4.0900280   -0.1246400   -1.2789120  
C    -5.4605920    0.3116060   -1.2489630  
C    -6.0294680   -0.2063170    0.0183270  
N    -5.0271910   -0.9597010    0.6242160  
C    -7.2890480    0.0418850    0.4484040  
C    -8.1688550    0.8443290   -0.4037300  
O    -9.3193470    1.1132300   -0.0981090  
C    -7.6013070    1.3646920   -1.7740090  
O    -8.3269100    2.0246310   -2.5024510  
C    -6.2151080    1.0440590   -2.1155460  
H    -3.3880610    0.0327250   -2.0853390  
H    -7.6886190   -0.3351390    1.3849090  
H    -5.8262370    1.4242980   -3.0552190  
H    -4.9942020   -1.0826450    1.6279090  
C     2.9596090    2.6865040   -1.8979660  
C     2.7380480    2.0035400   -0.7387170  
C     2.6599980    2.9804070    0.3388910  
C     2.8515090    4.3018440   -0.3062660  
N     3.0343900    4.0497410   -1.6543630  
C     2.8419180    5.4845370    0.3576160  
C     2.6350760    5.4678120    1.8048030  
O     2.6051040    6.4815400    2.4836480  
C     2.4434160    4.0747790    2.5087740  
O     2.2717540    4.0382050    3.7156340  
C     2.4737180    2.8635460    1.6786010  
H     2.9828540    6.4443400   -0.1297280  
H     2.3502510    1.9068310    2.1759710  
H     3.0716130    2.2991380   -2.9012290  
H     3.2332930    4.7513940   -2.3502340  
