62


C    -1.6073370    0.3244400   -0.3412140  
C    -0.8409660    1.4718240   -0.2215900  
C     0.5263180    1.0887700   -0.3299940  
C     0.5521830   -0.3178030   -0.5340980  
N    -0.7498280   -0.7626350   -0.5036770  
C     1.7363540   -1.0618340   -0.7174990  
C     2.9209540   -0.3282180   -0.6509010  
O     4.1138250   -0.9594310   -0.8088400  
C     2.9172620    1.0782150   -0.4264930  
O     4.1776540    1.6239140   -0.3799930  
C     1.7475450    1.8156990   -0.2715410  
H    -1.2198690    2.4637390   -0.0228990  
H    -1.0406600   -1.6898460   -0.7748480  
H     4.8138330   -0.2923490   -0.6882520  
H     4.1079340    2.5551940   -0.1040610  
C     0.4581050    4.4301720    3.1744270  
C     0.7159380    3.3596370    2.3578500  
C     1.3069070    3.8788170    1.1567120  
C     1.3864840    5.2891760    1.3093540  
N     0.8604430    5.5945310    2.5472120  
C     1.9280470    6.1329760    0.3319620  
C     2.3986230    5.5427320   -0.8296100  
O     2.9232710    6.3165060   -1.8227130  
C     2.3362430    4.1352640   -1.0035280  
O     2.8360120    3.7003600   -2.2154650  
C     1.8017470    3.2836820   -0.0338530  
H     0.5105270    2.3235110    2.5843270  
H     0.7856140    6.5218560    2.9350770  
H     1.9833670    7.2106840    0.4468290  
H     3.1453720    5.7244520   -2.5623130  
H     2.5754790    2.7732990   -2.3486400  
H     0.0177350    4.4631670    4.1609190  
C    -3.0322140    0.1494500   -0.2834490  
C    -4.0409860    1.0440600   -0.5307100  
C    -5.2968630    0.3741000   -0.3323480  
C    -4.9614560   -1.0141480    0.0652880  
N    -3.5719310   -1.1222060    0.0130340  
C    -5.8740230   -1.9538370    0.4056450  
C    -7.2934580   -1.5997480    0.3416660  
O    -8.1826510   -2.3873360    0.6240580  
C    -7.6748330   -0.1485500   -0.1270520  
O    -8.8576770    0.1542150   -0.1975210  
C    -6.5938880    0.7794500   -0.4462520  
H    -3.9084710    2.0598360   -0.8749750  
H    -5.6116730   -2.9637860    0.7065470  
H    -6.8670430    1.7857790   -0.7488260  
H    -3.0873350   -1.7508880    0.6414140  
C     1.0697080   -3.1686890   -1.9627530  
C     1.7201260   -2.5167430   -0.9553210  
C     2.3700950   -3.5523740   -0.1520490  
C     2.0363510   -4.8495480   -0.7876080  
N     1.2293760   -4.5461160   -1.8687560  
C     2.4646630   -6.0583370   -0.3435480  
C     3.3049430   -6.0990260    0.8499950  
O     3.7390020   -7.1366750    1.3257530  
C     3.6551340   -4.7357010    1.5521830  
O     4.3454450   -4.7479700    2.5583830  
C     3.1348590   -3.4940100    0.9667060  
H     2.2111620   -6.9971800   -0.8263250  
H     3.3974330   -2.5586160    1.4484420  
H     0.5003340   -2.7485220   -2.7825140  
H     0.9154080   -5.2134020   -2.5561540  
