58


C    -3.7988210    1.5172700   -1.6966340  
C    -5.0335390    2.0664510   -1.7270630  
C    -5.8478140    1.3782770   -0.7492110  
C    -4.9793360    0.3473440   -0.1337720  
N    -3.7217840    0.4587770   -0.7694700  
C    -5.3696320   -0.4456260    0.8890180  
C    -6.7484540   -0.3260010    1.3826920  
O    -7.1711830   -1.0105080    2.2982320  
C    -7.6965210    0.7205530    0.7038650  
O    -8.8490140    0.8197110    1.0887280  
C    -7.1372140    1.5551810   -0.3644900  
H    -5.3598170    2.8621630   -2.3815970  
H    -4.7388650   -1.1899240    1.3570460  
H    -7.7797420    2.3116470   -0.8043540  
H    -2.9281060    1.7456060   -2.2945160  
C     0.4814050    1.6763330   -0.2480690  
C    -0.8808030    1.7216730   -0.4201880  
C    -1.3117630    0.3544740   -0.4430650  
C    -0.0665420   -0.4406170   -0.2831410  
N     0.9709180    0.3402130   -0.1625780  
C    -0.0706340   -1.9094560   -0.2358790  
C    -1.3152090   -2.4842330   -0.2879070  
O    -1.5307530   -3.8137420   -0.2393770  
C    -2.5868890   -1.7208960   -0.4496500  
O    -3.6207530   -2.3842000   -0.5656870  
C    -2.5462740   -0.2434850   -0.5118890  
H    -1.5046700    2.6022890   -0.4671050  
H    -2.5054850   -3.9229070   -0.3486340  
C     1.4221850    2.7544480   -0.1238460  
C     1.2297790    4.1172350   -0.2149160  
C     2.4993270    4.7532850   -0.0090750  
C     3.4815750    3.6608020    0.2168720  
N     2.7654860    2.4860820    0.1277170  
C     4.8020460    3.8588110    0.4566500  
C     5.3053720    5.2300250    0.4937330  
O     6.4767520    5.5043000    0.7013010  
C     4.2853330    6.4020340    0.2524400  
O     4.6864950    7.5553280    0.2771880  
C     2.8815980    6.0627730    0.0058170  
H     0.2917270    4.6154590   -0.4131410  
H     5.5071650    3.0501780    0.6215390  
H     2.1853000    6.8798980   -0.1568170  
H     3.1195550    1.5511840    0.2617120  
C     1.1573300   -2.6760760   -0.1402050  
C     2.4638520   -2.2358840   -0.1793000  
C     3.3221390   -3.3813290   -0.0692710  
C     2.4298870   -4.5604420    0.0409650  
N     1.1450810   -4.0694510   -0.0040760  
C     2.8645160   -5.8412400    0.1586020  
C     4.3034640   -6.0880460    0.1812040  
O     4.7880120   -7.2043270    0.2832970  
C     5.2694380   -4.8522160    0.0672410  
O     6.4763840   -5.0360150    0.0834270  
C     4.6785930   -3.5160130   -0.0562130  
H     2.7650670   -1.2074240   -0.2786680  
H     2.1969320   -6.6935940    0.2372600  
H     5.3551260   -2.6703960   -0.1356260  
H     0.3000420   -4.6203750    0.0130110  
