58


C     5.9972730    1.7306320    0.3901460  
C     7.3095840    1.6650360    0.0654630  
C     7.6157830    0.2830940   -0.2379850  
C     6.3532710   -0.4717660   -0.0526420  
N     5.3864060    0.4657260    0.3403980  
C     6.2207190   -1.7964700   -0.2974020  
C     7.3989760   -2.5450850   -0.7405370  
O     7.3628280   -3.7382660   -0.9942020  
C     8.7547930   -1.7705370   -0.9051680  
O     9.7487450   -2.3814510   -1.2630160  
C     8.7605150   -0.3300510   -0.6355380  
H     8.0062310    2.4909760    0.0529950  
H     5.2955220   -2.3444860   -0.1660370  
H     9.6929760    0.2071990   -0.7793600  
H     5.4047790    2.5822470    0.6957970  
C     1.7624810    2.3989330   -1.1441500  
C     3.0423650    1.9955210   -0.9588870  
C     3.0310130    0.9597230    0.0479110  
C     1.6190280    0.7866040    0.4510960  
N     0.8768460    1.6739500   -0.3273250  
C     1.1875090   -0.0805280    1.4094120  
C     2.1713780   -0.9276350    2.0700500  
O     1.8787320   -1.7736040    2.8990850  
C     3.6862720   -0.7507470    1.6915710  
O     4.5244840   -1.3809760    2.3058920  
C     4.0323490    0.2224030    0.6229220  
H     3.9066670    2.3704260   -1.4860980  
H     0.1585960   -0.1456040    1.7433600  
H     1.3667470    3.1497770   -1.8106160  
C    -2.4352500   -1.1648110   -0.5402820  
C    -3.4812640   -0.2920020   -0.4189400  
C    -2.8984480    1.0466990   -0.3202070  
C    -1.4312010    0.8549400   -0.3849450  
N    -1.2222600   -0.4990100   -0.5487980  
C    -0.5184460    1.8706230   -0.3024860  
C    -1.0332110    3.2495020   -0.2121470  
O    -0.2988330    4.2220870   -0.1843370  
C    -2.5890990    3.4611310   -0.1810850  
O    -3.0142170    4.6009400   -0.1167590  
C    -3.4562520    2.2839630   -0.2442960  
H    -4.5278130    2.4505530   -0.2464700  
H    -2.4614390   -2.2435570   -0.6154970  
H    -0.3210820   -0.9496010   -0.4699090  
C    -4.8854900   -0.6524790   -0.4142470  
C    -5.5174100   -1.6855770   -1.0512610  
C    -6.9147130   -1.6426970   -0.6990350  
C    -7.0702120   -0.4852520    0.2146690  
N    -5.8185420    0.1126600    0.3053440  
C    -8.2321850   -0.1317540    0.8138070  
C    -9.4303380   -0.9206060    0.5220810  
O   -10.5199460   -0.6745580    1.0134770  
C    -9.2979710   -2.1278160   -0.4769660  
O   -10.2909630   -2.7887130   -0.7390380  
C    -7.9797110   -2.4166090   -1.0442270  
H    -5.0595820   -2.3723820   -1.7490370  
H    -8.3270450    0.7137120    1.4884040  
H    -7.8961060   -3.2634160   -1.7185970  
H    -5.5548680    0.6989070    1.0847640  
