62


C     0.7516210    0.2013030   -1.7229080  
C     2.0797420   -0.0352840   -1.4757140  
C     2.3899840    0.5763440   -0.2174200  
C     1.1915520    1.1623150    0.2615630  
N     0.1963820    0.9277380   -0.6782340  
C     1.1005480    1.8147530    1.4947850  
C     2.2481620    1.8844840    2.2679950  
O     2.2162690    2.5248430    3.4707340  
C     3.4645340    1.3102230    1.8219800  
O     4.5098540    1.4987610    2.6969620  
C     3.5665940    0.6520720    0.5847980  
H     2.7497080   -0.5855180   -2.1194900  
H     0.1827220    2.2713100    1.8460290  
H     3.1225490    2.5160350    3.8253310  
H     5.3460500    1.2291600    2.2715060  
H     0.1419830   -0.0579350   -2.5772090  
C    -3.2801760   -1.6352380   -0.3373840  
C    -4.2582710   -0.6537820   -0.3117370  
C    -3.5539080    0.6133790   -0.4219460  
C    -2.1743610    0.3094120   -0.4937060  
N    -2.0381820   -1.0628050   -0.4478200  
C    -1.1731280    1.2934560   -0.5777710  
C    -1.5815060    2.6244140   -0.5814170  
O    -0.6633930    3.6214600   -0.6771580  
C    -2.9625840    2.9404740   -0.4877160  
O    -3.2117130    4.2983170   -0.4982020  
C    -3.9401330    1.9682080   -0.4108830  
H    -1.1613350   -1.5572590   -0.5156210  
H    -1.1571790    4.4609260   -0.6919790  
H    -4.1608330    4.4524450   -0.6190860  
H    -4.9874040    2.2462250   -0.3766560  
H    -3.3925750   -2.7095590   -0.3335560  
C    -6.5370810   -3.6198630    2.0832230  
C    -5.5667740   -2.8236390    1.5660190  
C    -6.1954420   -1.9251720    0.6166890  
C    -7.6366680   -2.2631520    0.6358610  
N    -7.7723820   -3.3137230    1.5201190  
C    -8.6059780   -1.6315090   -0.0817520  
C    -8.2061360   -0.5252190   -0.9242840  
O    -8.9837340    0.1456670   -1.5887320  
C    -6.6750610   -0.1488070   -0.9836370  
O    -6.3538120    0.7821070   -1.7035970  
C    -5.6891130   -0.9254350   -0.1836320  
H    -4.5230360   -2.8358110    1.8384330  
H    -9.6552110   -1.9065050   -0.0418300  
H    -6.4628440   -4.4005030    2.8284670  
H    -8.6528610   -3.7253860    1.7867170  
C     4.8335460    0.1044820    0.1302130  
C     5.3648710    0.0123810   -1.1275600  
C     6.6650360   -0.5982470   -1.0424640  
C     6.8855960   -0.8865710    0.3914820  
N     5.7828850   -0.3676580    1.0880840  
C     7.9660000   -1.5305170    0.8855630  
C     9.0165390   -1.9433350   -0.0510880  
O    10.0249580   -2.5284030    0.3091930  
C     8.8303190   -1.5962350   -1.5724890  
O     9.7072860   -1.9212990   -2.3600320  
C     7.6045540   -0.9136710   -1.9778160  
H     4.9093760    0.4022400   -2.0261150  
H     8.1091290   -1.7426700    1.9409790  
H     7.4732570   -0.6993040   -3.0340430  
H     5.4345830   -0.8865240    1.8886570  
