62


C    -0.2812260    1.1468380   -0.2107890  
C    -1.3891910    0.4556910    0.2477960  
C    -2.5404100    1.2637880   -0.0046240  
C    -2.0888100    2.4554180   -0.6341460  
N    -0.7179460    2.3708630   -0.7191740  
C    -2.9547820    3.4669940   -1.0632920  
C    -4.3114320    3.2802780   -0.8421550  
O    -5.2035780    4.2262070   -1.2399650  
C    -4.7963620    2.1185310   -0.1818410  
O    -6.1565230    2.1170200    0.0444370  
C    -3.9249330    1.1165140    0.2385880  
H    -1.3645870   -0.5060320    0.7372480  
H    -0.1142800    3.0092300   -1.2162260  
H    -2.6095470    4.3665240   -1.5618560  
H    -6.0885760    3.8910600   -1.0056830  
H    -6.5169870    1.2154400   -0.0448640  
C     1.8033090   -2.8045060   -0.5497780  
C     0.8548760   -1.8202140   -0.4777890  
C     1.5529340   -0.5786650   -0.2872620  
C     2.9399550   -0.8934500   -0.2403270  
N     3.0593550   -2.2602170   -0.3631990  
C     3.9626820    0.0695760   -0.0771350  
C     3.5207130    1.4035930   -0.0817280  
O     4.4189290    2.4219230   -0.0449550  
C     2.1480560    1.7309470   -0.1296820  
O     1.8919910    3.1122430   -0.1136860  
C     1.1322310    0.7748710   -0.2051660  
H    -0.2104510   -1.9576880   -0.5828920  
H     3.9215170   -2.6621840   -0.7216210  
H     3.8905720    3.2416270   -0.0183700  
H     1.2897800    3.3057400    0.6245730  
H     1.6887040   -3.8662310   -0.7185100  
C     6.7831980   -2.7029140   -2.1311440  
C     7.9637870   -2.3554540   -1.5739760  
C     7.6302160   -1.3556090   -0.5666300  
C     6.1417740   -1.1855790   -0.6842550  
N     5.6626010   -1.9994290   -1.5850350  
C     5.3938290   -0.2416240    0.1369320  
C     6.1204320    0.3517070    1.1372030  
O     5.5904360    1.1535830    2.0689050  
C     7.6019220    0.1709340    1.2995640  
O     8.1521760    0.7662770    2.2266070  
C     8.3383660   -0.7089380    0.3763200  
H     8.9501910   -2.7363860   -1.7984850  
H     6.3498770    1.4342410    2.6278030  
H     9.4082100   -0.8135220    0.5283140  
H     6.5991810   -3.4289790   -2.9138340  
C    -4.0463060   -0.4049950    2.2235090  
C    -4.7486560   -1.4805650    2.6535150  
C    -5.6557610   -1.8542330    1.5883470  
C    -5.4064350   -0.8936150    0.4825780  
N    -4.4198740   -0.0298030    0.9222110  
C    -6.0587690   -0.9180840   -0.7157530  
C    -7.0698270   -1.9499470   -0.9369620  
O    -7.6858820   -2.0653680   -1.9849870  
C    -7.3656100   -2.9579260    0.2322860  
O    -8.2283960   -3.8073730    0.0798590  
C    -6.5822160   -2.8395420    1.4675020  
H    -4.6558120   -1.9667140    3.6137710  
H    -5.8020500   -0.2656970   -1.5455410  
H    -6.7785760   -3.5591270    2.2567670  
H    -3.2846800    0.1737780    2.7278210  
