64


C     2.3789490    2.7837720   -0.2693890  
C     2.1600500    4.0264470    0.2722290  
C     0.7887340    4.0579120    0.6959580  
C     0.2276770    2.7898530    0.3988320  
N     1.2247140    2.0224340   -0.1776210  
C    -1.1147330    2.4404980    0.6570820  
C    -1.8924280    3.4433160    1.2435030  
O    -3.2052740    3.2026000    1.5479380  
C    -1.3469650    4.7147060    1.5535860  
O    -2.2579530    5.5803630    2.1364550  
C    -0.0270910    5.0351930    1.2964550  
H     2.9020280    4.8042270    0.3852870  
H     1.0648750    1.1550320   -0.6701730  
H    -3.5410250    4.0016320    1.9905320  
H    -1.8018050    6.3899270    2.4089880  
H     0.3620800    6.0207450    1.5435830  
C     4.3014880    2.9303060   -1.8188720  
C     5.3557480    2.1477490   -2.1959740  
C     5.2568690    0.9162950   -1.4621850  
C     4.1084010    1.0135310   -0.6364500  
N     3.5254340    2.2593130   -0.8740410  
C     3.7266970   -0.0041820    0.2472650  
C     4.5061000   -1.1505600    0.2784010  
O     4.1747560   -2.1765010    1.1189040  
C     5.6493440   -1.2722450   -0.5529850  
O     6.3212590   -2.4721960   -0.4076470  
C     6.0323610   -0.2580280   -1.4113740  
H     6.1113830    2.4109980   -2.9234640  
H     2.8667200    0.0777560    0.9020090  
H     4.8282140   -2.8825530    0.9748820  
H     7.0475350   -2.5145850   -1.0469410  
H     6.9201320   -0.3674910   -2.0313500  
H     3.9969720    3.9130070   -2.1480880  
C    -1.0094650   -0.0848980    0.6292770  
C    -1.6347370    1.1007470    0.3278730  
C    -2.8246550    0.7503000   -0.4216820  
C    -2.8483210   -0.6578910   -0.5525580  
N    -1.7222590   -1.1640760    0.1085460  
C    -3.8858660   -1.3345680   -1.2030110  
C    -4.9014360   -0.5698050   -1.7547160  
O    -5.9350170   -1.1803710   -2.4038690  
C    -4.8810580    0.8447540   -1.6488540  
O    -5.9606740    1.4682160   -2.2457490  
C    -3.8610730    1.5085310   -0.9945100  
H    -3.9107140   -2.4109610   -1.3148080  
H    -6.5252790   -0.4783580   -2.7272990  
H    -5.8710140    2.4273210   -2.1446820  
H    -3.8771500    2.5893560   -0.8922730  
H    -0.0968400   -0.2648730    1.1784880  
C    -0.5866610   -3.3814250    3.7103330  
C    -1.0308010   -2.4263820    2.8527180  
C    -1.0220250   -3.0052320    1.5257060  
C    -0.5336390   -4.3935990    1.6805260  
N    -0.2794920   -4.5537430    3.0276300  
C    -0.4062330   -5.3007670    0.6744900  
C    -0.7649550   -4.8852960   -0.6679220  
O    -0.7455130   -5.6260390   -1.6399840  
C    -1.2114780   -3.3903960   -0.8917360  
O    -1.3862530   -2.9970480   -2.0300800  
C    -1.3657100   -2.5093430    0.2947360  
H    -1.3466030   -1.4278740    3.1130890  
H    -0.0633490   -6.3188310    0.8286700  
H    -0.4621700   -3.3349710    4.7839050  
H     0.0560500   -5.4049460    3.4497960  
