62


C    -1.5593370    0.0426100    0.8323390  
C    -2.7829350   -0.4706790    0.4514520  
C    -3.4700330    0.6085840   -0.2399640  
C    -2.5899730    1.7193800   -0.2661080  
N    -1.4181830    1.3477460    0.3990900  
C    -2.9196170    2.9305890   -0.8798610  
C    -4.1819640    3.0475870   -1.4423690  
O    -4.5515550    4.2129420   -2.0469380  
C    -5.1001020    1.9714630   -1.3741250  
O    -6.3318910    2.2389010   -1.9440170  
C    -4.7624660    0.7645110   -0.7840770  
H    -2.2531070    3.7833500   -0.8892470  
H    -5.4895590    4.1249320   -2.2895360  
H    -6.9811280    1.5943140   -1.6254010  
H    -5.5028980   -0.0279240   -0.7145070  
H    -0.7800040   -0.4244070    1.4117740  
C     2.8163230    0.4990930   -0.4336280  
C     1.4417040    0.4645750   -0.3748720  
C     0.9884950    1.6588520    0.2726580  
C     2.2046220    2.4365680    0.6024120  
N     3.2815020    1.6570520    0.2090390  
C     2.2119670    3.6729970    1.1576970  
C     0.9318290    4.2781760    1.5017310  
O     0.8254080    5.4017760    1.9669900  
C    -0.3792110    3.4379180    1.2718910  
O    -1.4410420    3.9002380    1.6563260  
C    -0.2592790    2.1318670    0.6030380  
H     0.8210210   -0.3536220   -0.7072930  
H     3.1194430    4.2314080    1.3651670  
H     4.1895320    2.0505920    0.0067660  
C     3.4625770   -1.2824060   -2.0740000  
C     3.7486970   -0.4283430   -1.0204830  
C     5.1399860   -0.6522530   -0.6753790  
C     5.6274230   -1.6421600   -1.5624110  
N     4.5795530   -2.0009960   -2.3960540  
C     6.9380920   -2.1287140   -1.5180100  
C     7.7789520   -1.6080500   -0.5467920  
O     9.0643000   -2.0449060   -0.4578830  
C     7.3044170   -0.6297560    0.3685300  
O     8.2507430   -0.2256950    1.2849080  
C     6.0067110   -0.1526470    0.3180160  
H     4.6381480   -2.6740320   -3.1453380  
H     7.3078470   -2.8907660   -2.1960380  
H     9.4764940   -1.5910000    0.2977680  
H     7.8459910    0.3562560    1.9453970  
H     5.6637050    0.5681320    1.0560920  
H     2.5448000   -1.3950790   -2.6328770  
C    -5.0845330   -3.3165880   -2.0079070  
C    -5.1894920   -4.3439970   -1.1221190  
C    -4.4905680   -3.9493680    0.0808970  
C    -3.9823850   -2.5831310   -0.1674750  
N    -4.3754020   -2.2615450   -1.4590160  
C    -3.2429460   -1.8312760    0.7104110  
C    -2.8478850   -2.5333230    1.9581510  
O    -2.0513820   -2.0668350    2.7560470  
C    -3.4516710   -3.9563700    2.2740430  
O    -3.1958590   -4.4569450    3.3606360  
C    -4.2554420   -4.6054410    1.2545040  
H    -5.6877130   -5.2879300   -1.2889150  
H    -4.6335990   -5.6026680    1.4562730  
H    -5.4637570   -3.2411880   -3.0188880  
H    -4.1489940   -1.3935850   -1.9203110  
