62


C    -3.1009980    1.7144270    0.0877770  
C    -1.7581460    1.4915230   -0.1307380  
C    -1.0716610    2.7049610    0.2197580  
C    -2.0541980    3.6347040    0.6225520  
N    -3.2900300    3.0118170    0.5349430  
C    -1.7748710    4.9656720    0.9554090  
C    -0.4617120    5.3870120    0.8369670  
O    -0.1276540    6.6733660    1.1207810  
C     0.5618960    4.4952040    0.4155280  
O     1.7837550    5.0707050    0.3421260  
C     0.2969080    3.1287920    0.1477750  
H    -1.3323550    0.6065380   -0.5791510  
H    -4.1182070    3.3306910    1.0162040  
H    -2.5415540    5.6686600    1.2646740  
H     0.8313440    6.7515290    0.9611690  
H     2.4170000    4.3919160   -0.0425560  
C     1.3832330    2.2224770   -0.1172260  
C     1.4452580    0.8508810   -0.0230070  
C     2.7825980    0.4758560   -0.3508110  
C     3.4700620    1.7676400   -0.6517750  
N     2.6605370    2.7784700   -0.4949920  
C     4.8537390    1.8340460   -1.0300090  
C     5.5324650    0.6652820   -1.0386570  
O     6.8286720    0.5555440   -1.3438110  
C     4.8859050   -0.6543190   -0.6482550  
O     5.6696260   -1.6205980   -0.6210940  
C     3.4576180   -0.7323770   -0.3416350  
H     0.6642670    0.1846490    0.2996000  
H     5.3225760    2.7804920   -1.2734710  
H     7.0418270   -0.3987770   -1.2266470  
C    -0.4651640   -2.4913450   -1.6313290  
C     0.6953290   -1.7563180   -1.5817190  
C     1.5128990   -2.3266900   -0.5488510  
C     0.7912460   -3.4379600   -0.0337040  
N    -0.4075820   -3.5173640   -0.7135870  
C     1.2986790   -4.2800990    0.9581780  
C     2.5811410   -4.0112580    1.4168000  
O     3.1454760   -4.8077810    2.3642790  
C     3.3239210   -2.9047320    0.9320340  
O     4.5498720   -2.7538680    1.5454000  
C     2.7970560   -2.0093060   -0.0095570  
H     0.9406800   -0.9197270   -2.2192160  
H    -1.2279350   -4.0099170   -0.3765630  
H     0.7485540   -5.1304010    1.3472390  
H     4.0386430   -4.4439530    2.5156930  
H     5.1989290   -2.5233780    0.8473630  
H    -1.3281030   -2.3797650   -2.2728120  
C    -5.4632730    1.4818090   -0.5883490  
C    -6.4082230    0.5312320   -0.7561840  
C    -5.7913460   -0.7429130   -0.4554540  
C    -4.3812710   -0.4516660   -0.0840100  
N    -4.2368350    0.9312400   -0.1610700  
C    -3.4699120   -1.4106290    0.2404280  
C    -3.8938220   -2.8038120    0.1920780  
O    -3.1366620   -3.7524240    0.3740930  
C    -5.3944290   -3.1256450   -0.1386160  
O    -5.7691660   -4.2861310   -0.1184770  
C    -6.2790860   -2.0084580   -0.4748050  
H    -7.4265140    0.6877930   -1.0811280  
H    -2.4423310   -1.1907930    0.5030670  
H    -7.3093820   -2.2365280   -0.7298860  
H    -5.5224650    2.5473960   -0.7605440  
