62


C    -1.2580720    0.2043450    0.9117230  
C    -0.9328030    1.4408330    0.4068880  
C    -2.0320320    1.8274220   -0.4578540  
C    -2.9853910    0.7802880   -0.4221870  
N    -2.4828490   -0.2203570    0.4131870  
C    -4.1975390    0.8447380   -1.1238160  
C    -4.4322720    1.9715700   -1.9010490  
O    -5.5970820    2.0776920   -2.5999290  
C    -3.4714640    3.0126690   -1.9748010  
O    -3.8415400    4.0552840   -2.7979250  
C    -2.2862880    2.9557590   -1.2628240  
H    -4.9626310    0.0799930   -1.0549520  
H    -5.5844290    2.9365630   -3.0572050  
H    -3.1654520    4.7488740   -2.7724400  
H    -1.5673020    3.7687550   -1.3230430  
H    -0.7224090   -0.4106800    1.6177770  
C     3.4528390    0.3580080    0.1968100  
C     2.0524300    0.3528490    0.1475690  
C     1.5952580    1.6221190    0.5647500  
C     2.7557430    2.4044730    0.8567490  
N     3.8509260    1.6184980    0.6308920  
C     2.6824570    3.7376270    1.2757220  
C     1.4160950    4.2841000    1.4030110  
O     1.2710420    5.5666190    1.8236820  
C     0.2446570    3.5216670    1.1110750  
O    -0.9251720    4.2248650    1.3099730  
C     0.2971620    2.2010080    0.6913980  
H     1.4408810   -0.4610270   -0.2075280  
H     4.8249380    1.8868270    0.6717700  
H     3.5573540    4.3360790    1.5046380  
H     0.3152670    5.7372900    1.9031210  
H    -1.6747930    3.6059610    1.2859200  
C     3.2078750   -4.0641970   -0.5899430  
C     2.8662420   -2.8122920   -0.1815890  
C     4.0687350   -2.0080110   -0.3496510  
C     5.0583220   -2.9681370   -0.8689360  
N     4.5528130   -4.1683220   -1.0239000  
C     6.4216310   -2.5950910   -1.1525760  
C     6.7973850   -1.3225480   -0.8962900  
O     8.0518650   -0.8548110   -1.0776610  
C     5.8351120   -0.3202350   -0.3561320  
O     6.2946310    0.7996960   -0.0978720  
C     4.3852920   -0.6812560   -0.1522560  
H     1.9217030   -2.4979610    0.2363130  
H     7.1167330   -3.3344390   -1.5352810  
H     8.0267700    0.0807980   -0.7876930  
H     2.5862550   -4.9517780   -0.6012400  
C    -4.1289700   -3.3212120   -2.1675050  
C    -4.5805940   -4.1723130   -1.2119190  
C    -4.2469210   -3.5962750    0.0744610  
C    -3.5597870   -2.3160000   -0.2226650  
N    -3.4986050   -2.2177170   -1.5951690  
C    -3.0983460   -1.4504910    0.7300100  
C    -3.2468190   -1.8438020    2.1418040  
O    -2.8265580   -1.1671200    3.0650420  
C    -3.9662520   -3.2081050    2.4629730  
O    -4.0919570   -3.5282630    3.6336490  
C    -4.4381610   -4.0275920    1.3504070  
H    -5.0848180   -5.1134150   -1.3750950  
H    -4.9312250   -4.9653280    1.5857110  
H    -4.1860730   -3.4032130   -3.2447190  
H    -3.2017300   -1.3912070   -2.0929430  
