60


C    -0.6812120   -0.6493790   -1.9224660  
C    -2.0318710   -0.4400840   -1.8946570  
C    -2.5040780   -0.8611770   -0.6043510  
C    -1.3773250   -1.3217210    0.1198580  
N    -0.2603910   -1.1861700   -0.7035080  
C    -1.4554490   -1.7547870    1.4472260  
C    -2.7039570   -1.7363840    2.0462940  
O    -2.8411390   -2.1580200    3.3344700  
C    -3.8515940   -1.2973220    1.3348450  
O    -5.0139850   -1.3804540    2.0727640  
C    -3.7822870   -0.8559770    0.0144280  
H    -2.6229620   -0.0343160   -2.7036260  
H    -0.5986480   -2.1153140    2.0031700  
H    -3.7845690   -2.0915450    3.5627020  
H    -5.7684690   -1.0811070    1.5422430  
H     0.0347660   -0.5097030   -2.7202470  
C     3.1639600    1.4023510   -0.6561330  
C     4.1626490    0.5018920   -0.3787040  
C     3.5037930   -0.7974970   -0.2065220  
C     2.0624510   -0.5558840   -0.4472500  
N     1.9326110    0.7852150   -0.7338620  
C     1.0774320   -1.4987280   -0.3810230  
C     1.4673870   -2.8711670   -0.0235560  
O     0.6790470   -3.7988960    0.0264670  
C     2.9822010   -3.1278890    0.3122650  
O     3.3096150   -4.2450380    0.6788710  
C     3.9386290   -2.0273030    0.1778900  
H     4.9783800   -2.2469880    0.3778230  
H     3.2519230    2.4694090   -0.7899240  
H     1.0478220    1.2497690   -0.8771450  
C     5.9825820    4.2303310    1.0156450  
C     7.3021400    3.9423870    0.9853020  
C     7.3820150    2.5745220    0.4829870  
C     5.9545800    2.1758450    0.2659030  
N     5.1492780    3.1489780    0.5772730  
C     5.5753550    0.8507000   -0.2313860  
C     6.6220320    0.0277010   -0.5472540  
O     6.4750710   -1.1950000   -1.0938530  
C     8.0535290    0.4051250   -0.3392880  
O     8.9138810   -0.4177270   -0.6570050  
C     8.3934930    1.7326820    0.2072340  
H     8.1340080    4.5731800    1.2659400  
H     7.3912780   -1.5385970   -1.2000860  
H     9.4461140    1.9622270    0.3417030  
H     5.5042730    5.1517090    1.3248660  
C    -5.3918240   -0.8820540   -1.9443780  
C    -4.9888210   -0.4293760   -0.7197240  
C    -5.9760890    0.5717170   -0.3162210  
C    -6.9787270    0.6437020   -1.4098380  
N    -6.5561430   -0.2557320   -2.3686210  
C    -8.0643690    1.4574300   -1.4064900  
C    -8.2706920    2.3370790   -0.2586080  
O    -9.2211230    3.0979510   -0.1650390  
C    -7.2095590    2.2979800    0.9011780  
O    -7.3515340    3.0416220    1.8583000  
C    -6.0830800    1.3644220    0.7856010  
H    -8.7860890    1.4936010   -2.2168840  
H    -5.3538560    1.3535110    1.5896090  
H    -4.9232320   -1.6334300   -2.5662300  
H    -7.0466640   -0.4587720   -3.2255070  
