62


C     2.2021600   -1.2321900   -0.8013620  
C     1.0025590   -0.5921320   -0.8237540  
C     1.1855060    0.7119710   -0.2347920  
C     2.5517330    0.8162960    0.1211940  
N     3.1735840   -0.3937770   -0.2368470  
C     3.0871270    1.9516760    0.7372740  
C     2.2293940    3.0280020    0.9192540  
O     2.6925680    4.1732370    1.4801510  
C     0.8648630    2.9670740    0.5345200  
O     0.1645070    4.1159940    0.7972210  
C     0.3019400    1.8018620    0.0012810  
H     0.0883520   -0.9946010   -1.2340090  
H     4.1133370    2.0258240    1.0746220  
H     1.9394610    4.7956950    1.4734560  
H    -0.4221950    4.2768250    0.0193950  
H     2.4923460   -2.1993500   -1.1827040  
C    -2.7372890   -1.2196750    1.1485070  
C    -1.6136110   -0.4646100    1.0358940  
C    -1.9121270    0.6272110    0.1433190  
C    -3.3303400    0.4407620   -0.2619460  
N    -3.7864030   -0.6987320    0.3881230  
C    -3.9980140    1.2444730   -1.1313440  
C    -3.2883370    2.4004120   -1.6542380  
O    -3.7571690    3.1691620   -2.4781190  
C    -1.8479370    2.6980070   -1.1003390  
O    -1.3840870    3.8115340   -1.3475900  
C    -1.1450970    1.6808540   -0.3066160  
H    -0.6732690   -0.6420970    1.5333210  
H    -5.0037630    1.0445770   -1.4827660  
H    -2.9094500   -2.1164890    1.7264660  
C    -7.7598030    0.9732280    1.2579350  
C    -8.4795870   -0.1450300    0.9322760  
C    -7.5400480   -1.1473210    0.5144270  
C    -6.2491240   -0.5635100    0.6124040  
N    -6.4101200    0.7230540    1.0766310  
C    -5.0811440   -1.2755050    0.2789680  
C    -5.2271370   -2.5945240   -0.1486620  
O    -4.1224490   -3.3242270   -0.4769160  
C    -6.5124790   -3.1862260   -0.2301100  
O    -6.4810100   -4.4991420   -0.6565030  
C    -7.6597240   -2.4847650    0.0897270  
H    -9.5543540   -0.2478810    0.9859600  
H    -5.6717850    1.4018330    1.1786360  
H    -4.4361770   -4.1999810   -0.7649030  
H    -7.3844320   -4.8241620   -0.7849050  
H    -8.6342450   -2.9629750    0.0207080  
H    -8.0916800    1.9393980    1.6102700  
C     4.4997930   -0.7502490   -0.1028170  
C     5.0426140   -1.9972490    0.0555320  
C     6.4725740   -1.8478110    0.0644550  
C     6.7371240   -0.3972410   -0.1007320  
N     5.4949210    0.2319250   -0.1406180  
C     7.9695150    0.1527550   -0.1931420  
C     9.1323590   -0.7324020   -0.0912380  
O    10.2798370   -0.3217600   -0.1599090  
C     8.8784040   -2.2683360    0.1286430  
O     9.8430270   -3.0140840    0.2248340  
C     7.4979060   -2.7364770    0.1939850  
H     4.4925070   -2.9134490    0.2101890  
H     8.1438290    1.2166260   -0.3225460  
H     7.3337680   -3.8013880    0.3273940  
H     5.3494330    1.1226060   -0.5959760  
