62


C    -2.1874570    0.0103530    2.2597520  
C    -1.2135500    0.8750700    1.8461260  
C    -1.6449110    1.4317960    0.5939570  
C    -2.9094880    0.8642250    0.2981330  
N    -3.2300230   -0.0114160    1.3329970  
C    -3.6531900    1.2062400   -0.8375160  
C    -3.0951930    2.1307070   -1.7062450  
O    -3.7640190    2.4908180   -2.8375120  
C    -1.8281720    2.7102410   -1.4332270  
O    -1.4042080    3.6048190   -2.3936510  
C    -1.0865060    2.3865850   -0.2951160  
H    -0.2883840    1.0855950    2.3628550  
H    -4.6220540    0.7738650   -1.0603700  
H    -3.1840120    3.0924560   -3.3364390  
H    -0.4608380    3.7947800   -2.2508210  
H    -2.2407990   -0.6244440    3.1327280  
C     3.1311610    0.7562970    0.0039790  
C     1.7521600    0.9000670   -0.1526460  
C     1.4495720    2.2737130    0.0069380  
C     2.6862260    2.9515220    0.2583830  
N     3.6749840    2.0099460    0.2508500  
C     2.7636760    4.3368120    0.4540670  
C     1.5791900    5.0495810    0.3996740  
O     1.5842280    6.3935780    0.5940270  
C     0.3343490    4.3945480    0.1464560  
O    -0.7415560    5.2503740    0.1411320  
C     0.2377150    3.0229720   -0.0547040  
H     1.0531860    0.1009350   -0.3526500  
H     4.6677170    2.1360720    0.3941590  
H     3.6974070    4.8537190    0.6471990  
H     0.6606090    6.6985810    0.5468300  
H    -1.5595780    4.7264530    0.0786280  
C    -5.3478070   -0.6823870    2.4102800  
C    -4.3987670   -0.7856580    1.4380680  
C    -4.7857210   -1.8867080    0.5654420  
C    -6.0550070   -2.4123830    1.1224640  
N    -6.3281720   -1.6493640    2.2449370  
C    -6.7552310   -3.4440350    0.5883210  
C    -6.2243510   -4.0970910   -0.6068560  
O    -6.7840870   -5.0319750   -1.1572540  
C    -4.8667360   -3.5669020   -1.1999970  
O    -4.4002200   -4.1106140   -2.1872860  
C    -4.2117120   -2.4325420   -0.5368510  
H    -7.6873360   -3.8136530    1.0046630  
H    -3.2821550   -2.0632850   -0.9577080  
H    -5.3968130    0.0186370    3.2326890  
H    -7.1406260   -1.7580200    2.8314410  
C     3.9923890   -0.3784630   -0.0457240  
C     3.7197540   -1.7085140   -0.2718420  
C     4.9812080   -2.3792540   -0.2027630  
C     5.9738470   -1.2833700    0.0842650  
N     5.3930390   -0.1217040    0.1744140  
C     7.3781540   -1.5571250    0.2294240  
C     7.7762870   -2.8446160    0.0976680  
O     9.0423510   -3.2590230    0.2049200  
C     6.8000480   -3.9743770   -0.1917630  
O     7.2920090   -5.1037480   -0.2874890  
C     5.3872780   -3.6738660   -0.3347230  
H     2.7569020   -2.1604370   -0.4642310  
H     8.0759380   -0.7532380    0.4357200  
H     8.9956460   -4.2342530    0.0590700  
H     4.7151100   -4.5004600   -0.5418000  
