62


C     0.0052480    0.4102170   -0.1947920  
C     0.3497930   -0.9382960   -0.2232750  
C    -0.8431360   -1.6787870   -0.4396190  
C    -1.9097260   -0.7409840   -0.5447150  
N    -1.3702440    0.5103270   -0.4020150  
C    -3.2559830   -1.1150240   -0.7508350  
C    -3.4959460   -2.4870710   -0.8487920  
O    -4.7617940   -2.9391360   -1.0735880  
C    -2.4412970   -3.4375280   -0.7398480  
O    -2.8719050   -4.7451310   -0.8648300  
C    -1.1316240   -3.0574890   -0.5442150  
H     1.3510860   -1.3166590   -0.0888400  
H    -1.8802600    1.3791780   -0.3367020  
H    -4.7193220   -3.9113390   -1.1051940  
H    -2.1147470   -5.3442600   -0.7890550  
H    -0.3418490   -3.8016830   -0.4678320  
C     4.3567110    0.7749460    0.3688020  
C     4.4816280    2.1333400    0.5112770  
C     3.1476250    2.6728240    0.4081760  
C     2.2818620    1.4722460    0.1827280  
N     2.9831740    0.3831840    0.1638160  
C     0.8264180    1.5837940    0.0077670  
C     0.3384100    2.8651850    0.0632040  
O    -0.9782650    3.1732330   -0.0828610  
C     1.1755360    4.0656920    0.2975450  
O     0.5993990    5.1635160    0.3320120  
C     2.6230610    3.9169880    0.4705110  
H     5.3736150    2.6941830    0.7546700  
H    -1.0029690    4.1537900    0.0278760  
H     3.2030990    4.8203370    0.6325430  
C     8.4811140    1.0249600   -1.1345520  
C     8.8749200   -0.2477270   -0.8155910  
C     7.7516280   -0.8908460   -0.1959950  
C     6.6973740    0.0545330   -0.1549980  
N     7.1746210    1.2158010   -0.7219640  
C     5.4015270   -0.2341860    0.3485800  
C     5.2108510   -1.5464210    0.8227050  
O     4.0321930   -1.9212920    1.3788010  
C     6.2675700   -2.4943030    0.7929140  
O     5.9117490   -3.7268030    1.3100930  
C     7.5207250   -2.1883750    0.3008510  
H     9.8486680   -0.6795080   -1.0011870  
H     6.5983250    2.0136440   -0.9430930  
H     4.1380410   -2.8447730    1.6705110  
H     6.6917560   -4.2988420    1.3558460  
H     8.3080180   -2.9395470    0.2922680  
H     9.0257710    1.8264710   -1.6130400  
C    -4.3162830    0.9820710   -1.6869190  
C    -4.3295360   -0.1129000   -0.8725840  
C    -5.5893770   -0.0508680   -0.1301550  
C    -6.2951510    1.1684140   -0.5967760  
N    -5.4673180    1.7486030   -1.5354610  
C    -7.5086580    1.5797580   -0.1461840  
C    -8.1737670    0.7826980    0.8772280  
O    -9.2661320    1.0690000    1.3452550  
C    -7.4364400   -0.5043740    1.4010650  
O    -7.9714920   -1.1811490    2.2652950  
C    -6.1292680   -0.8450170    0.8285010  
H    -8.0059740    2.4756320   -0.5054600  
H    -5.6405760   -1.7441200    1.1854440  
H    -3.5592260    1.2829280   -2.3995160  
H    -5.6799630    2.5864410   -2.0533670  
