60


C     1.1112900   -1.5418100    1.1058590  
C     0.3236680   -0.4974700    0.6819980  
C     1.1982630    0.5239180    0.1671240  
C     2.5158850    0.0245470    0.2955370  
N     2.4297930   -1.2275950    0.8675190  
C     3.6635440    0.7655010   -0.0850960  
C     3.4135160    2.0601290   -0.5606110  
O     4.4496140    2.8681910   -0.9322560  
C     2.0945010    2.5648660   -0.6959960  
O     2.0542440    3.8482150   -1.1945400  
C     0.9878430    1.8167600   -0.3486190  
H     3.2249090   -1.7546640    1.1969570  
H     4.0653710    3.6958280   -1.2754460  
H     1.1422550    4.0992570   -1.4047580  
H    -0.0147580    2.2203340   -0.4607490  
H     0.8293890   -2.4866820    1.5472750  
C    -1.8141260   -0.4969930    1.9703520  
C    -3.1518730   -0.4440800    1.7420180  
C    -3.3400200   -0.3279780    0.3141240  
C    -1.9800190   -0.3360510   -0.2784820  
N    -1.0825390   -0.4289490    0.7829470  
C    -1.7112050   -0.2928300   -1.6082140  
C    -2.8335190   -0.2082050   -2.5351090  
O    -2.6979160   -0.1824110   -3.7481010  
C    -4.2822160   -0.1307700   -1.9384220  
O    -5.2154860    0.0794630   -2.6927070  
C    -4.4616900   -0.2573260   -0.4706940  
H    -3.9288910   -0.4694270    2.4906150  
H    -0.7057680   -0.3372790   -2.0120430  
H    -1.2771190   -0.5722790    2.9066160  
C    -6.8294600    2.1841620    2.4712650  
C    -5.7978900    1.7274860    1.7201580  
C    -6.3387450    0.5910320    0.9820790  
C    -7.7653930    0.5205420    1.4295410  
N    -8.0434690    1.4516250    2.2986160  
C    -8.6791770   -0.4616560    0.9078060  
C    -8.2059570   -1.3359650   -0.0094100  
O    -8.9391750   -2.3094500   -0.5709220  
C    -6.7680980   -1.3196220   -0.4566400  
O    -6.4004010   -2.2253400   -1.1966230  
C    -5.8355620   -0.2642010    0.0548450  
H    -4.7910480    2.1147670    1.6632700  
H    -9.7076290   -0.4824970    1.2505740  
H    -8.3231700   -2.7968140   -1.1608430  
H    -6.8298560    3.0228870    3.1577490  
C     5.0070570    0.2039700    0.0146160  
C     5.4036340   -1.1143300   -0.0104710  
C     6.8365580   -1.1536910    0.1270540  
C     7.2734710    0.2600670    0.2396860  
N     6.1249630    1.0221000    0.1889630  
C     8.5655970    0.6546140    0.3674550  
C     9.6043870   -0.3714620    0.4032930  
O    10.7927220   -0.1114630    0.5161680  
C     9.1632300   -1.8778660    0.2938590  
O    10.0200970   -2.7484550    0.3287050  
C     7.7374020   -2.1745030    0.1556790  
H     4.7734380   -1.9685930   -0.2098270  
H     8.8674710    1.6944070    0.4467240  
H     7.4461330   -3.2176000    0.0757090  
H     6.0890740    2.0233580    0.0645610  
