60


C     1.3698800    2.8269530    0.0416920  
C     2.6064280    2.2757830    0.1262420  
C     2.4544200    0.8436360    0.0493220  
C     1.0708160    0.5733440   -0.0822440  
N     0.3997330    1.8185190   -0.0776540  
C     0.5671580   -0.7187990   -0.2413950  
C     1.4863100   -1.7618770   -0.2313940  
O     1.0437500   -3.0444650   -0.3500380  
C     2.8685180   -1.5091380   -0.0999660  
O     3.6593510   -2.6498610   -0.1382870  
C     3.3899100   -0.2172330    0.0288960  
H     3.5274410    2.8210880    0.2650840  
H    -0.4873960   -0.9218660   -0.3591780  
H     1.8188810   -3.6255290   -0.2553530  
H     4.4692540   -2.4850290    0.3735470  
H     1.0635010    3.8593090    0.1012390  
C    -0.9429590    2.0749690   -0.1888720  
C    -1.5521750    3.2887640   -0.4271490  
C    -2.9492080    3.0173530   -0.4082540  
C    -3.0477170    1.5307590   -0.1524540  
N    -1.8542650    1.0027020   -0.0160540  
C    -4.3046640    0.8305950   -0.0618170  
C    -5.4110880    1.6398540   -0.1527970  
O    -6.6509450    1.2104930    0.0116390  
C    -5.3479650    3.1419390   -0.4260580  
O    -6.4400550    3.7129040   -0.4974590  
C    -4.0636660    3.7861950   -0.5606050  
H    -1.0874910    4.2436170   -0.6198880  
H    -7.2185530    2.0072620   -0.1400630  
H    -4.0419090    4.8537530   -0.7510950  
C    -2.2774480   -2.1603400    2.5274930  
C    -2.9857290   -3.2663800    2.1841340  
C    -3.9362850   -2.8684480    1.1692140  
C    -3.7295280   -1.4106210    0.9686460  
N    -2.7401070   -1.0290890    1.8587990  
C    -4.4334120   -0.6328760    0.0894390  
C    -5.3626860   -1.3577520   -0.8113040  
O    -5.8842870   -0.8351900   -1.7809720  
C    -5.6662790   -2.8753200   -0.5362250  
O    -6.5437830   -3.4192970   -1.1897180  
C    -4.8777710   -3.5645920    0.4770290  
H    -2.8646950   -4.2615440    2.5867660  
H    -5.0700650   -4.6202100    0.6426470  
H    -1.4615190   -2.0631240    3.2319720  
H    -2.1531700   -0.2290940    1.6327560  
C     6.6984600   -1.4944280   -2.5936900  
C     7.7468000   -0.9221390   -1.9497120  
C     7.2158960   -0.2395970   -0.7883540  
C     5.7473270   -0.4673840   -0.8100260  
N     5.5003450   -1.2160920   -1.9407200  
C     4.8524130    0.0095200    0.1162220  
C     5.4275310    0.8057890    1.2211530  
O     4.7537220    1.2737430    2.1240440  
C     6.9810180    1.0679880    1.2496860  
O     7.4370420    1.7440770    2.1576930  
C     7.8069480    0.4965860    0.1893840  
H     8.7840800   -0.9572370   -2.2487570  
H     8.8754370    0.6862770    0.2195670  
H     6.6879200   -2.0881060   -3.4982060  
H     4.6124740   -1.6496960   -2.1442670  
