62


C     1.3861120   -1.9331230   -0.1996410  
C     2.0523480   -0.7347500   -0.3887600  
C     3.4302660   -0.9492300   -0.0711850  
C     3.5635990   -2.3236450    0.2809110  
N     2.3109760   -2.8861120    0.1979370  
C     4.7837620   -2.9071740    0.6337390  
C     5.9004840   -2.0824590    0.6735230  
O     7.1110150   -2.5928430    1.0367280  
C     5.7946430   -0.7057050    0.3651050  
O     6.9809520    0.0105600    0.4425140  
C     4.5834280   -0.1334040   -0.0190460  
H     1.6058440    0.1715980   -0.7638280  
H     2.0842570   -3.8671270    0.2751100  
H     4.8807030   -3.9563290    0.8917790  
H     7.7393280   -1.8492800    1.0507910  
H     6.7901450    0.8984580    0.7869280  
C    -2.0866670    0.6665970    0.5006380  
C    -3.0922830   -0.2174380    0.1420860  
C    -2.4179230   -1.4596270   -0.2027910  
C    -1.0253400   -1.2326050   -0.0633170  
N    -0.8622290    0.0728980    0.3650020  
C    -0.0418840   -2.2210270   -0.3140430  
C    -0.5303360   -3.4850420   -0.6591620  
O     0.3406530   -4.5283930   -0.8546370  
C    -1.9140520   -3.7216450   -0.8167030  
O    -2.2148580   -5.0198050   -1.1884520  
C    -2.8557230   -2.7317550   -0.6154830  
H    -0.0078030    0.4754010    0.7245300  
H    -0.2029830   -5.3073000   -1.0713120  
H    -3.1691660   -5.1648440   -1.1034780  
H    -3.9123940   -2.9514840   -0.7131390  
H    -2.1550370    1.6714450    0.8910280  
C    -5.2488410    3.5013370   -0.9550880  
C    -4.3126930    2.5343110   -0.7837740  
C    -4.9795420    1.3684510   -0.2351250  
C    -6.4068030    1.7399700   -0.1153900  
N    -6.4999040    3.0470230   -0.5432100  
C    -7.4048270    0.9211090    0.3213250  
C    -7.0515050   -0.4304590    0.6882070  
O    -7.8567290   -1.2778290    1.0520160  
C    -5.5323250   -0.8522570    0.6052060  
O    -5.2502930   -1.9886330    0.9486090  
C    -4.5124470    0.1251080    0.1331840  
H    -3.2660080    2.6148560   -1.0312400  
H    -8.4433020    1.2292810    0.3906190  
H    -5.1404790    4.5036260   -1.3471190  
H    -7.3609980    3.5660140   -0.6106400  
C     5.3289860    1.8468570   -1.3650170  
C     4.9245730    3.1119270   -1.6331710  
C     3.7803530    3.3878620   -0.7897900  
C     3.5766010    2.1686320    0.0313610  
N     4.5508780    1.2548190   -0.3511570  
C     2.5906980    2.0315300    0.9580100  
C     1.5654770    3.0602770    1.0167690  
O     0.4930350    2.8931980    1.5899160  
C     1.8186100    4.4061060    0.2487680  
O     1.0509790    5.3400880    0.4204150  
C     2.9614400    4.4662440   -0.6670140  
H     5.3589390    3.7820700   -2.3609980  
H     2.4595950    1.1329780    1.5480670  
H     3.1071070    5.3821530   -1.2315600  
H     6.1270460    1.2674930   -1.8083950  
