60


C     0.8764250   -1.1681000   -0.3133580  
C     0.4624120    0.1576990   -0.2093770  
C     1.6795150    0.9502640   -0.2359720  
C     2.7686230    0.0496570   -0.3303800  
N     2.2317770   -1.2310650   -0.3544330  
C     4.1309110    0.4530550   -0.3347610  
C     4.3096000    1.8453680   -0.3275980  
O     5.5746020    2.3901000   -0.3713600  
C     3.2277760    2.7534700   -0.2520550  
O     3.6212490    4.0797010   -0.2396540  
C     1.9163830    2.3320810   -0.1893330  
H     2.7663150   -2.0175490   -0.7076910  
H     5.4531770    3.3517240   -0.4838700  
H     2.8450480    4.6456820   -0.3670880  
H     1.0827600    3.0226410   -0.1165240  
H     0.2823540   -2.0687770   -0.3776710  
C    -0.8902630    0.6112360   -0.1061220  
C    -2.0597020   -0.1255500   -0.0555690  
C    -3.1237220    0.8175740    0.0336100  
C    -2.4295990    2.1534630    0.0254210  
N    -1.1360490    2.0260890   -0.0525700  
C    -3.1565330    3.3910680    0.0786390  
C    -4.5057730    3.3125010    0.1365170  
O    -5.3207680    4.3688140    0.1994650  
C    -5.2443180    1.9850130    0.1729010  
O    -6.4635790    2.0594110    0.3318830  
C    -4.4952990    0.7237770    0.0820100  
H    -2.1570160   -1.2008910   -0.0868040  
H    -2.6299520    4.3387780    0.0679000  
H    -6.2262220    3.9805250    0.2602530  
C    -4.4078160   -2.9841040    2.5658790  
C    -4.1621360   -1.7554400    2.0424070  
C    -5.0572630   -1.5769600    0.9169820  
C    -5.8617320   -2.8199000    0.8339480  
N    -5.4047220   -3.6381180    1.8491460  
C    -6.8594630   -3.0489590   -0.0597930  
C    -7.1682940   -2.0042980   -1.0228950  
O    -8.0727010   -2.0871940   -1.8404570  
C    -6.2817430   -0.7072340   -1.0144220  
O    -6.4219770    0.0959030   -1.9187390  
C    -5.2594800   -0.5313570    0.0541740  
H    -3.4301630   -1.0444140    2.3930370  
H    -7.4503390   -3.9596170   -0.0756880  
H    -3.9457050   -3.4738960    3.4128590  
H    -5.8050090   -4.5314310    2.0886440  
C     7.8756110    0.4628930    2.0210350  
C     8.4359980   -0.6936880    1.5913910  
C     7.5348260   -1.2637800    0.6137990  
C     6.3796590   -0.3294990    0.5179780  
N     6.6288150    0.6735130    1.4315280  
C     5.2793820   -0.4912770   -0.2989000  
C     5.2921740   -1.7209130   -1.1067630  
O     4.3547590   -2.0870030   -1.8099860  
C     6.5408880   -2.6838950   -1.0703520  
O     6.5385370   -3.6493480   -1.8167790  
C     7.6157140   -2.3937180   -0.1345900  
H     9.3726470   -1.1218370    1.9174090  
H     8.4552680   -3.0797820   -0.0848980  
H     8.2500480    1.1810920    2.7389650  
H     6.2405070    1.5990460    1.2837860  
