60


C    -1.7804040   -0.0467000    1.0235550  
C    -3.1333160   -0.0126530    0.8012210  
C    -3.4018560    1.2237070    0.0941490  
C    -2.1695130    1.8997730   -0.0600980  
N    -1.1734810    1.1022780    0.5178950  
C    -2.0624310    3.1210950   -0.7332800  
C    -3.2274130    3.6815750   -1.2335120  
O    -3.1751630    4.8706160   -1.8955430  
C    -4.4770940    3.0289420   -1.0639990  
O    -5.5425800    3.7145160   -1.6068960  
C    -4.5764370    1.8165450   -0.4064390  
H    -1.1251860    3.6490330   -0.8557550  
H    -4.0833980    5.0966260   -2.1608320  
H    -6.3542290    3.1959630   -1.5019250  
H    -5.5417110    1.3308100   -0.2891930  
H    -1.1842040   -0.7908330    1.5314430  
C     2.1762400   -1.3931470   -0.6973480  
C     0.9489880   -0.8682890   -0.4866430  
C     1.1236650    0.4216470    0.1412010  
C     2.5800860    0.6289400    0.2855520  
N     3.1928480   -0.5362430   -0.2400160  
C     3.1422840    1.7501620    0.7989210  
C     2.2543360    2.8226360    1.2442150  
O     2.6665270    3.8880310    1.6719790  
C     0.7026070    2.6073690    1.1705190  
O    -0.0371180    3.4509040    1.6400530  
C     0.2079570    1.3517890    0.5528320  
H     0.0077860   -1.3231180   -0.7572640  
H     4.2112610    1.8823920    0.8821620  
H     2.4435720   -2.3321790   -1.1571880  
C     4.5305810   -0.8472250   -0.3360100  
C     5.0907300   -1.9868360   -0.8773060  
C     6.4987400   -1.8090010   -0.7235960  
C     6.6373370   -0.4677620   -0.0486400  
N     5.4719620    0.0803430    0.1707580  
C     7.9141580    0.0868630    0.2878110  
C     9.0070660   -0.6507140   -0.0294700  
O    10.2615600   -0.2786120    0.2144040  
C     8.9059880   -2.0119710   -0.7128100  
O     9.9779900   -2.5767610   -0.9438050  
C     7.5986790   -2.5480100   -1.0407520  
H     4.6004590   -2.8369690   -1.3265070  
H     7.9854100    1.0537620    0.7728420  
H    10.8166640   -1.0195730   -0.1298390  
H     7.5582120   -3.5177380   -1.5259180  
C    -4.1817480   -1.5455210    2.5124700  
C    -4.0943940   -1.0169790    1.2576150  
C    -5.1245950   -1.6841020    0.4638100  
C    -5.8110470   -2.6352910    1.3746060  
N    -5.1745720   -2.5179290    2.5933280  
C    -6.8464960   -3.4355040    1.0128410  
C    -7.3181510   -3.3799780   -0.3670780  
O    -8.2444060   -4.0583630   -0.7847330  
C    -6.5868880   -2.4009230   -1.3577370  
O    -6.9621410   -2.3438740   -2.5183090  
C    -5.4811780   -1.5858200   -0.8437630  
H    -7.3369530   -4.1224370    1.6958690  
H    -4.9825490   -0.9156100   -1.5364700  
H    -3.5995600   -1.2929380    3.3889300  
H    -5.4691170   -2.9756930    3.4416710  
