60


C    -4.1774020   -0.9305110   -0.7676590  
C    -4.6044900   -2.2389950   -0.6618370  
C    -3.4864070   -3.0203670   -0.2321690  
C    -2.3821810   -2.1337510   -0.1106060  
N    -2.8208900   -0.8830290   -0.4725690  
C    -1.0880840   -2.5494040    0.2915390  
C    -0.9885520   -3.8948770    0.6813210  
O     0.1701200   -4.3738030    1.2083890  
C    -2.0881620   -4.7864050    0.5688520  
O    -1.7923220   -6.0764640    0.9737980  
C    -3.3185320   -4.3791810    0.0986000  
H    -5.6154990   -2.5878290   -0.8238120  
H    -2.3022660   -0.0538660   -0.2021440  
H     0.0343720   -5.3226660    1.3779200  
H    -2.5886100   -6.6242030    0.9147000  
H    -4.1418100   -5.0856100    0.0132280  
C    -0.3485260    1.6502250    1.6244570  
C     0.9989030    1.7251510    1.5199660  
C     1.4221010    0.4450520    0.9679470  
C     0.1558650   -0.3282910    0.8154860  
N    -0.8682330    0.3930330    1.1953760  
C     0.1174230   -1.6885110    0.2848560  
C     1.3019000   -2.1187550   -0.2511980  
O     1.4375120   -3.2699160   -0.9243610  
C     2.5886500   -1.3627230   -0.1297640  
O     3.5926560   -1.8884910   -0.6116080  
C     2.6296420   -0.0389000    0.5597560  
H     1.6284020    2.5769280    1.7329620  
H     2.3935160   -3.3340150   -1.1419350  
H    -1.0457070    2.4141990    1.9505400  
C     4.1808440    1.2754250    1.9916040  
C     3.9013370    0.6264350    0.8141940  
C     5.0873630    0.8001880   -0.0364510  
C     6.0489170    1.6041580    0.7591540  
N     5.4306620    1.8492620    1.9746400  
C     7.2757550    1.9998800    0.3397570  
C     7.6982980    1.6302150   -1.0082890  
O     8.7838800    1.9355940   -1.4756750  
C     6.6896350    0.8086170   -1.8862310  
O     7.0047420    0.5074000   -3.0255400  
C     5.3943770    0.4273970   -1.3042230  
H     7.9545620    2.5865860    0.9510620  
H     4.7327360   -0.1697730   -1.9185590  
H     3.5612550    1.3443500    2.8756670  
H     5.8639200    2.3189510    2.7552870  
C    -5.9230670    0.4138600   -2.0082210  
C    -4.9168630    0.2789490   -1.0959990  
C    -4.7460670    1.5943420   -0.4808440  
C    -5.7293330    2.4972360   -1.1295050  
N    -6.4306420    1.7118220   -2.0196710  
C    -5.8614840    3.8183800   -0.8422220  
C    -4.9920060    4.3997880    0.1753330  
O    -5.0377370    5.5757860    0.5038890  
C    -3.9496590    3.4555800    0.8794120  
O    -3.1795650    3.9312600    1.7027770  
C    -3.9260780    2.0408010    0.5059260  
H    -6.5908300    4.4637790   -1.3220360  
H    -3.2289160    1.3947550    1.0289290  
H    -6.3307780   -0.3319470   -2.6772410  
H    -7.1196250    2.0557810   -2.6699960  
