62


C    -1.9892640   -0.8982550   -0.0753020  
C    -2.8918080    0.1366630   -0.1400340  
C    -2.1205130    1.3532720   -0.3206360  
C    -0.7553880    0.9911940   -0.3401940  
N    -0.6920410   -0.4166680   -0.1813840  
C     0.2628460    1.9276880   -0.5397590  
C    -0.1143630    3.2542650   -0.7120410  
O     0.8414610    4.2009290   -0.9048160  
C    -1.4808610    3.6303750   -0.7023420  
O    -1.6948500    4.9748110   -0.9013990  
C    -2.4840820    2.6947190   -0.5143020  
H     1.3073910    1.6512400   -0.5598010  
H     0.3920230    5.0566520   -1.0153530  
H    -2.6454850    5.1621420   -0.9086690  
H    -3.5280290    2.9934040   -0.5435160  
H    -2.1607370   -1.9442580    0.1258570  
C     0.4202560   -1.2331940   -0.1469140  
C     0.4553010   -2.6068150   -0.2031720  
C     1.8405490   -2.9440700   -0.0950660  
C     2.5512920   -1.6157510    0.0048880  
N     1.6919310   -0.6265370   -0.0149840  
C     3.9861710   -1.4967840    0.1160650  
C     4.6515840   -2.6919550    0.2007930  
O     5.9630310   -2.7974840    0.3822010  
C     3.9672500   -4.0476940    0.1016990  
O     4.7040640   -5.0337330    0.1829360  
C     2.5269500   -4.1156820   -0.0613260  
H    -0.3636030   -3.2994330   -0.3256670  
H     6.1403580   -3.7691030    0.3879970  
H     2.0663910   -5.0957020   -0.1276740  
C     3.4402510    2.1633440    2.6048040  
C     4.5093380    2.8687080    2.1228990  
C     5.1181540    2.0622860    1.1017910  
C     4.3692050    0.8593120    1.0220320  
N     3.3718800    0.9309590    1.9755550  
C     4.6894500   -0.1922380    0.1336190  
C     5.7643830    0.0445920   -0.7307770  
O     6.0992570   -0.8804490   -1.6752380  
C     6.5171200    1.2442730   -0.6606690  
O     7.5534100    1.3005700   -1.5773200  
C     6.2226100    2.2408890    0.2479550  
H     4.8333630    3.8453920    2.4554600  
H     2.5310980    0.3741470    1.9102840  
H     6.8791640   -0.5358810   -2.1442010  
H     8.0092670    2.1508860   -1.4949670  
H     6.8233430    3.1474980    0.2886960  
H     2.7161610    2.4275970    3.3628410  
C    -4.3224870    0.0003320   -0.0209420  
C    -5.2696170    0.9022410    0.3939630  
C    -6.5573740    0.2618910    0.3426420  
C    -6.3105340   -1.1132490   -0.1565180  
N    -4.9368860   -1.2334590   -0.3013900  
C    -7.2833040   -2.0240760   -0.4024980  
C    -8.6704730   -1.6498000   -0.1312750  
O    -9.6104370   -2.4062060   -0.3207910  
C    -8.9518500   -0.2123980    0.4414200  
O   -10.1055680    0.1101240    0.6846360  
C    -7.8160030    0.6843600    0.6483100  
H    -5.0728140    1.8948900    0.7706880  
H    -7.0864810   -3.0244560   -0.7760990  
H    -8.0233650    1.6795590    1.0300150  
H    -4.5139190   -1.9137810   -0.9168290  
