60


C    -1.1668090    1.3102200    0.3471650  
C    -2.5189600    1.2463430    0.5455740  
C    -2.9836470    0.0095910   -0.0290180  
C    -1.8456550   -0.6451270   -0.5613190  
N    -0.7370880    0.1678510   -0.3285800  
C    -1.8951220   -1.9249050   -1.1216770  
C    -3.1277280   -2.5560160   -1.1257330  
O    -3.2511720   -3.8098270   -1.6306910  
C    -4.2934110   -1.9223720   -0.6085030  
O    -5.4267820   -2.6849390   -0.7179220  
C    -4.2617310   -0.6237970   -0.0929410  
H    -3.1116260    1.9901490    1.0588740  
H    -1.0254450   -2.4281150   -1.5271380  
H    -4.1868770   -4.0576930   -1.4990660  
H    -5.9485540   -2.5523160    0.1106950  
H    -0.4574200    2.0890470    0.5899490  
C     2.7458370   -0.2611260    2.1764340  
C     3.7133470   -0.4226500    1.2232670  
C     3.0240340   -0.3912110   -0.0676610  
C     1.5898860   -0.1887190    0.2372370  
N     1.4885120   -0.1160030    1.6077820  
C     0.5981770   -0.0995430   -0.6964470  
C     0.9771170   -0.2128230   -2.1146810  
O     0.1811690   -0.0879270   -3.0282600  
C     2.4886560   -0.5021340   -2.4472390  
O     2.8036560   -0.6716150   -3.6130730  
C     3.4542030   -0.5584380   -1.3462920  
H     4.4915480   -0.7492220   -1.5995100  
H     2.8621830   -0.2208140    3.2512160  
H     0.6197810    0.0036680    2.1073640  
C     5.7070270   -1.4340870    2.4154180  
C     5.1324690   -0.6313860    1.4761060  
C     6.2791770    0.0424930    0.8320210  
C     7.4726890   -0.5132610    1.5392400  
N     7.1264070   -1.3672170    2.4618790  
C     8.8098270   -0.1026900    1.2006200  
C     8.9608640    0.8330290    0.2325930  
O    10.1464070    1.3101980   -0.1772030  
C     7.7774540    1.4348440   -0.4740090  
O     7.9918660    2.2868500   -1.3328380  
C     6.4122140    0.9866570   -0.1180660  
H     9.6564160   -0.5335090    1.7235240  
H     9.9397620    1.9683190   -0.8764060  
H     5.5881850    1.4457180   -0.6551740  
H     5.1981060   -2.1076930    3.0954180  
C    -5.6852490    3.3845550   -1.1390890  
C    -6.7988450    3.4656860   -0.3669310  
C    -6.9223290    2.2070510    0.3377150  
C    -5.7636860    1.3792670   -0.0869190  
N    -5.0637030    2.1496730   -0.9838730  
C    -5.4831550    0.0990580    0.3370520  
C    -6.5059340   -0.4990970    1.1926220  
O    -6.5325030   -1.6942960    1.4939120  
C    -7.6753590    0.3911950    1.7570080  
O    -8.4132290   -0.0941490    2.5988490  
C    -7.8352410    1.7423570    1.2312700  
H    -7.4778320    4.3029380   -0.2998490  
H    -8.6710160    2.3345480    1.5897210  
H    -5.2625560    4.1140730   -1.8171130  
H    -4.1895590    1.8686460   -1.4040490  
