58


C     0.6087290    1.4442320   -0.3731170  
C    -0.7460550    1.4106680   -0.5876380  
C    -1.2159760    0.0743540   -0.3370400  
C    -0.0176160   -0.7016650    0.0396910  
N     1.0461640    0.1772120    0.0457740  
C    -0.0122450   -2.0411720    0.3233980  
C    -1.3085150   -2.7200620    0.3777120  
O    -1.4351340   -3.8848150    0.7194050  
C    -2.6015140   -1.9008850    0.0097950  
O    -3.6611950   -2.5039880    0.0295730  
C    -2.4805660   -0.4766350   -0.3557840  
H    -1.3678470    2.2672310   -0.8013080  
H     2.0060090   -0.1310590   -0.0521250  
C     1.4276370    3.5933270   -1.3635750  
C     1.5457750    2.5358690   -0.4966940  
C     2.7890190    2.7469690    0.2476960  
C     3.3689880    4.0078530   -0.2736890  
N     2.4807440    4.4672170   -1.2371430  
C     4.5297880    4.5607560    0.1504910  
C     5.2750620    3.8793700    1.2113870  
O     6.3300980    4.2995730    1.6544900  
C     4.6671330    2.5586580    1.8034080  
O     5.2549310    1.9831390    2.7027050  
C     3.3983170    2.0627580    1.2500330  
H     4.9320030    5.4879690   -0.2456400  
H     2.9861480    1.1617630    1.6918650  
H     0.6532600    3.7760050   -2.0967080  
H     2.6331320    5.2780170   -1.8180160  
C    -3.7261140    1.0536440   -1.9143930  
C    -3.6638210    0.2606490   -0.8009330  
C    -4.9914430    0.3337970   -0.1769750  
C    -5.8023140    1.2383060   -1.0282880  
N    -4.9694920    1.6440130   -2.0564820  
C    -7.0964250    1.5734790   -0.7980340  
C    -7.7517540    1.0283600    0.3868270  
O    -8.9112200    1.2731550    0.6816590  
C    -6.9056810    0.0943230    1.3245070  
O    -7.4192690   -0.3488860    2.3382350  
C    -5.5173540   -0.2099200    0.9486240  
H    -7.6657710    2.2349200   -1.4439340  
H    -4.9664900   -0.8887850    1.5883880  
H    -2.9566430    1.2311350   -2.6540560  
H    -5.2683010    2.1798850   -2.8567200  
C     1.3196770   -3.6445470    1.7000330  
C     2.5588970   -4.1862350    1.7218170  
C     3.2782820   -3.6817210    0.5719500  
C     2.3338070   -2.7861410   -0.1428760  
N     1.1609540   -2.7712600    0.6028960  
C     2.6226200   -2.1591740   -1.3174090  
C     3.9500960   -2.3416600   -1.9010540  
O     4.2882900   -1.8155690   -2.9505380  
C     4.9757550   -3.2511350   -1.1356500  
O     6.0977200   -3.3935320   -1.5932200  
C     4.5322980   -3.9035240    0.1010850  
H     2.9409130   -4.8764940    2.4598220  
H     1.8998470   -1.5796420   -1.8813120  
H     5.2357540   -4.5625530    0.6008090  
H     0.4887080   -3.7886710    2.3733130  
