62


C     1.5974580   -0.8964630   -2.0943030  
C     0.8571590   -0.5353450   -0.9933530  
C     1.7601310    0.0371620   -0.0290050  
C     3.0468540    0.0014460   -0.6167670  
N     2.9165350   -0.5658140   -1.8702560  
C     4.2108640    0.4593110    0.0379190  
C     4.0270920    0.9548730    1.3296690  
O     5.0951470    1.4353380    2.0263940  
C     2.7403980    0.9890900    1.9328950  
O     2.7496880    1.5112830    3.2095500  
C     1.6102390    0.5448630    1.2759740  
H     3.6920760   -0.8113550   -2.4661780  
H     4.7647320    1.7368760    2.8911460  
H     1.8442390    1.5612590    3.5505410  
H     0.6347850    0.5817160    1.7540740  
H     1.2775350   -1.3492820   -3.0213840  
C    -1.1775840   -1.9544190   -0.8562810  
C    -2.5282930   -1.7713910   -0.6805660  
C    -2.7567400   -0.3656860   -0.5337530  
C    -1.4903710    0.2554540   -0.6460620  
N    -0.5318060   -0.7337550   -0.8329700  
C    -1.3050670    1.6446040   -0.6161940  
C    -2.4281900    2.4350080   -0.4607450  
O    -2.3125310    3.7915530   -0.4284500  
C    -3.7227750    1.8626020   -0.3302010  
O    -4.6976650    2.7844990   -0.1826590  
C    -3.9246010    0.4520910   -0.3427730  
H    -3.2556070   -2.5670500   -0.6873670  
H    -0.3276640    2.1023590   -0.7203000  
H    -3.2173430    4.1400960   -0.3243670  
H    -5.5765330    2.2881610   -0.1415850  
H    -0.6042640   -2.8613950   -0.9828280  
C    -5.2406930   -0.0929940   -0.1534790  
C    -5.6852300   -1.3923510    0.0131810  
C    -7.0994850   -1.3287620    0.1644860  
C    -7.4291540    0.1341430    0.0712440  
N    -6.3468780    0.8362290   -0.1063030  
C    -8.7715810    0.6241780    0.1755950  
C    -9.7451650   -0.2995210    0.3702630  
O   -11.0404300   -0.0141360    0.4893650  
C    -9.4516800   -1.7932690    0.4755560  
O   -10.4377990   -2.5178610    0.6540040  
C    -8.0863810   -2.2535180    0.3634990  
H    -5.0935900   -2.2906900    0.0664020  
H    -8.9844580    1.6847460    0.1017000  
H   -11.4741020   -0.8934500    0.6199460  
H    -7.9033780   -3.3201890    0.4421110  
C     5.8482540    0.9598760   -1.8288940  
C     5.5323830    0.4245490   -0.6139060  
C     6.7553790   -0.2075930   -0.1173910  
C     7.7954350    0.0165390   -1.1506030  
N     7.1743450    0.7137700   -2.1691570  
C     9.0809250   -0.4097800   -1.0570330  
C     9.4779560   -1.1550270    0.1330590  
O    10.6093940   -1.5812760    0.3085160  
C     8.3853780   -1.4234580    1.2325260  
O     8.6930190   -2.0563510    2.2298250  
C     7.0311270   -0.9002240    1.0158890  
H     9.8273900   -0.2306220   -1.8248650  
H     6.2919080   -1.0733040    1.7898570  
H     5.2180540    1.5326990   -2.4973520  
H     7.6460020    1.0960830   -2.9737830  
