62


C     0.8972440   -1.5472530   -0.6152830  
C     2.2393490   -1.3173390   -0.5603990  
C     2.4265560    0.0295110   -0.0943730  
C     1.1422730    0.5830960    0.1146700  
N     0.1988160   -0.4003090   -0.2236470  
C     0.9533660    1.8529950    0.6673450  
C     2.0820390    2.5948340    0.9797860  
O     1.9402380    3.8458680    1.4959420  
C     3.3816020    2.0769870    0.7609630  
O     4.3843740    2.9529320    1.0922050  
C     3.5822870    0.7946560    0.2244900  
H     3.0081220   -2.0284700   -0.8236400  
H    -0.0231690    2.2877370    0.8334320  
H     2.8323280    4.2191520    1.6057620  
H     5.2479340    2.5817020    0.8259280  
H     0.3481420   -2.4145910   -0.9489970  
C    -2.8808690   -3.1669360    1.2788000  
C    -1.6692370   -2.6175430    1.0244490  
C    -1.9610310   -1.3395110    0.3832850  
C    -3.4460210   -1.2747300    0.3506560  
N    -3.9715180   -2.3495680    0.8657920  
C    -4.1811320   -0.1371940   -0.2155790  
C    -3.3892400    0.8349520   -0.7545980  
O    -3.8939100    1.9577180   -1.3518930  
C    -1.9129120    0.8134210   -0.7551330  
O    -1.3204670    1.7513530   -1.2947710  
C    -1.1947720   -0.3414740   -0.1271230  
H    -0.6923980   -3.0187400    1.2522800  
H    -3.1019900    2.4650120   -1.6431550  
H    -3.0984030   -4.1166310    1.7519060  
C    -7.3521270   -0.7407760    2.9463440  
C    -6.1558050   -0.6154100    2.2906280  
C    -6.4477480   -0.3613980    0.9091430  
C    -7.8637370   -0.3314490    0.7934370  
N    -8.3867620   -0.5780250    2.0449880  
C    -8.5330580   -0.0658100   -0.4051750  
C    -7.7516180    0.2086170   -1.5157180  
O    -8.3365700    0.4893460   -2.7127300  
C    -6.3356450    0.2129200   -1.4341050  
O    -5.7110930    0.4756400   -2.6360350  
C    -5.6542000   -0.0995990   -0.2468040  
H    -5.1802440   -0.7179050    2.7398770  
H    -9.3685750   -0.5908600    2.2711670  
H    -9.6152800   -0.0509650   -0.4865040  
H    -7.5990230    0.6606900   -3.3288400  
H    -5.0328990    1.1671040   -2.4796470  
H    -7.5571810   -0.9423210    3.9882100  
C     4.9252780    0.2882010   -0.0174090  
C     5.4144820   -0.4900030   -1.0287640  
C     6.8272030   -0.6863650   -0.8246120  
C     7.1629860    0.0404240    0.4189530  
N     5.9924640    0.6935300    0.8412630  
C     8.3837700    0.0447440    0.9973580  
C     9.4683420   -0.6882590    0.3342160  
O    10.6005160   -0.7361370    0.7854190  
C     9.1478540   -1.4207180   -1.0186940  
O    10.0463700   -2.0202720   -1.5897570  
C     7.7777500   -1.3636910   -1.5257790  
H     4.8469040   -0.8372220   -1.8800860  
H     8.6125510    0.5761320    1.9163510  
H     7.5598870   -1.8922890   -2.4487500  
H     5.8072360    0.7420940    1.8390340  
