60


C    -1.8184220   -0.0664820    1.0892030  
C    -3.1643500   -0.0331210    0.8279830  
C    -3.4162730    1.2048590    0.1176460  
C    -2.1788390    1.8784440   -0.0080390  
N    -1.2012260    1.0837800    0.6079500  
C    -2.0529080    3.0927200   -0.6893330  
C    -3.2049060    3.6521310   -1.2248500  
O    -3.1298560    4.8357090   -1.8978530  
C    -4.4581010    3.0072320   -1.0788970  
O    -5.5116750    3.6915660   -1.6492270  
C    -4.5750430    1.7984210   -0.4144720  
H    -1.1104020    3.6107120   -0.8052950  
H    -4.0269790    5.0481060   -2.2087620  
H    -6.3126550    3.1476780   -1.6127330  
H    -5.5443260    1.3161040   -0.3181890  
H    -1.2280170   -0.8389470    1.5554180  
C     2.1107840   -1.5105320   -0.2942210  
C     3.1982050   -0.6979260   -0.0685380  
C     2.6010240    0.5805640    0.3704360  
C     1.1404810    0.3268360    0.3392710  
N     0.8753720   -0.8990520   -0.0482610  
C     0.1752730    1.3493410    0.6982440  
C     0.6803250    2.5539580    1.1093590  
O    -0.0815050    3.5799170    1.5212730  
C     2.1457680    2.8287250    1.1364520  
O     2.5095980    3.9390750    1.5274740  
C     3.1035250    1.7723520    0.7391610  
H     0.5550620    4.2971740    1.7422480  
H     4.1652040    1.9872030    0.7691480  
H     2.1199580   -2.5404670   -0.6310110  
C     4.5899360   -0.9928450   -0.2222190  
C     5.1931960   -2.1577650   -0.6419040  
C     6.6040440   -1.9050590   -0.6078580  
C     6.7158660   -0.4839190   -0.1275690  
N     5.5460560    0.0393500    0.0938660  
C     7.9925070    0.1567760    0.0438840  
C     9.0982960   -0.5694120   -0.2448010  
O    10.3498040   -0.1132270   -0.1352150  
C     9.0194590   -2.0055770   -0.7317390  
O    10.0912470   -2.5679430   -0.9626930  
C     7.7129440   -2.6346740   -0.8981330  
H     4.7135110   -3.0792490   -0.9411390  
H     8.0485800    1.1823220    0.3913010  
H    10.9217130   -0.8658470   -0.4136570  
H     7.6924240   -3.6618670   -1.2482780  
C    -4.2274760   -1.6237350    2.4726910  
C    -4.1297070   -1.0519990    1.2377130  
C    -5.1499450   -1.6964060    0.4117290  
C    -5.8434400   -2.6785580    1.2839460  
N    -5.2203020   -2.5995340    2.5116360  
C    -6.8732090   -3.4695220    0.8862170  
C    -7.3321090   -3.3703240   -0.4947740  
O    -8.2540790   -4.0353470   -0.9431500  
C    -6.5934520   -2.3581020   -1.4456420  
O    -6.9614700   -2.2599370   -2.6059040  
C    -5.4922610   -1.5601030   -0.8961270  
H    -7.3673520   -4.1800050    1.5419970  
H    -4.9842020   -0.8723890   -1.5640840  
H    -3.6525330   -1.4019800    3.3620770  
H    -5.5129600   -3.0966210    3.3380520  
