60


C     1.4480600   -2.1561300   -0.1781150  
C     2.7006190   -1.6083090   -0.3949120  
C     3.6797430   -2.6372640   -0.1780910  
C     2.9165060   -3.8552940    0.1935210  
N     1.5875020   -3.4935470    0.1842920  
C     3.4833910   -5.0559550    0.4755710  
C     4.9377720   -5.1696180    0.4121130  
O     5.5353570   -6.2086800    0.6502550  
C     5.7666320   -3.8913970    0.0185640  
O     6.9857250   -3.9715220   -0.0365400  
C     5.0405270   -2.6551610   -0.2627660  
H     2.9141340   -0.6284650   -0.7947520  
H     2.9092430   -5.9370280    0.7445940  
H     5.6233360   -1.7800380   -0.5350350  
H     0.7798730   -4.0972130    0.2835230  
C     0.1913830    2.0452590    0.1116590  
C    -1.1542370    1.8723380   -0.1082160  
C    -1.3982280    0.4775030   -0.3291920  
C    -0.0932950   -0.1922480   -0.2373680  
N     0.8352200    0.7977820   -0.0319090  
C     0.1311040   -1.5584590   -0.2793740  
C    -1.0748400   -2.3836540   -0.3517270  
O    -1.0976040   -3.5971600   -0.1752850  
C    -2.4496280   -1.7036760   -0.6836830  
O    -3.3668100   -2.4193550   -1.0388280  
C    -2.5587620   -0.2326730   -0.5686910  
H    -1.8935900    2.6582300   -0.1269200  
H     1.7339670    0.5876440    0.3850770  
C     0.4504560    4.3795140    1.0241690  
C     0.9281550    3.2321230    0.4383780  
C     2.3626680    3.5104880    0.2244220  
C     2.5451390    4.8897680    0.7678740  
N     1.4158310    5.3782140    1.2215840  
C     3.8159810    5.5512860    0.7467070  
C     4.8662130    4.8921260    0.1938480  
O     6.1042170    5.3918060    0.1099590  
C     4.7109720    3.5157360   -0.3933800  
O     5.6998060    2.9831530   -0.8878390  
C     3.3853110    2.8562990   -0.3576460  
H     3.9136740    6.5499670    1.1571890  
H     6.6461680    4.7050520   -0.3371290  
H     3.3195740    1.8790020   -0.8250380  
H    -0.5646770    4.5618810    1.3573650  
C    -3.9213400    1.5282490   -1.6364200  
C    -5.2253370    1.9176290   -1.6633940  
C    -5.9631210    1.0186500   -0.8143040  
C    -5.0450950    0.0708340   -0.3035480  
N    -3.7766720    0.3944150   -0.8201930  
C    -5.4248020   -0.9142520    0.6127960  
C    -6.7598020   -0.9624000    0.9892210  
O    -7.1748830   -1.9135000    1.8716130  
C    -7.6954950   -0.0328040    0.4682070  
O    -8.9799410   -0.2083060    0.9357970  
C    -7.3107050    0.9548930   -0.4224110  
H    -5.6272710    2.7393240   -2.2406830  
H    -4.7404140   -1.6499840    1.0141870  
H    -8.1337590   -1.8028700    1.9917940  
H    -9.5744450    0.4248820    0.5067330  
H    -8.0359890    1.6733920   -0.7983770  
H    -3.0656020    1.9062830   -2.1748850  
