62


C     2.3202070   -0.7652780   -1.4490180  
C     1.3961390    0.2295860   -1.3186950  
C     1.7233170    0.9594090   -0.1241840  
C     2.8683420    0.3473800    0.4428560  
N     3.2286180   -0.7191620   -0.3866200  
C     3.4981750    0.8436060    1.5892480  
C     2.9410690    1.9607690    2.1906540  
O     3.5025990    2.4729680    3.3221200  
C     1.7873730    2.5806720    1.6462780  
O     1.3445010    3.6738960    2.3617970  
C     1.1619850    2.1064070    0.4912910  
H     0.5622390    0.4137160   -1.9806590  
H     4.3665050    0.3770670    2.0366570  
H     2.9287780    3.1976270    3.6262320  
H     0.4462930    3.8996610    2.0643310  
H     2.4036620   -1.5517310   -2.1845600  
C    -3.1284710    0.7840980   -0.1064700  
C    -1.7721560    0.8479710    0.2159230  
C    -1.3133970    2.1379840   -0.1427600  
C    -2.4328840    2.8491580   -0.6841920  
N    -3.5061130    2.0057590   -0.6487740  
C    -2.3422530    4.1736310   -1.1326200  
C    -1.1067710    4.7891690   -1.0378160  
O    -0.9489600    6.0680710   -1.4666510  
C     0.0228840    4.0994730   -0.4981900  
O     1.1718640    4.8540820   -0.4929420  
C    -0.0477450    2.7880990   -0.0449000  
H    -1.1888150    0.0510100    0.6540830  
H    -4.4551070    2.1787710   -0.9509700  
H    -3.1863480    4.7156950   -1.5449650  
H    -0.0126870    6.3041050   -1.3400570  
H     1.9150330    4.2920610   -0.2108560  
C     6.3329330   -1.9893320   -3.2028080  
C     5.2912870   -1.3484690   -2.6109270  
C     5.1737640   -1.8730620   -1.2668730  
C     6.2453650   -2.8846810   -1.1202910  
N     6.9023900   -2.9138160   -2.3346120  
C     6.5066750   -3.5960520    0.0086370  
C     5.6697540   -3.3614570    1.1716580  
O     5.8407750   -3.9019820    2.2535700  
C     4.4707790   -2.3475980    1.0368070  
O     3.6962720   -2.2306920    1.9681650  
C     4.3169040   -1.5947560   -0.2343190  
H     4.6758880   -0.5806330   -3.0538490  
H     7.3130910   -4.3180090    0.0872370  
H     6.7388650   -1.8638520   -4.1977270  
H     7.7061970   -3.4871060   -2.5371300  
C    -4.0999140   -0.2501400    0.0238340  
C    -3.9938960   -1.5294770    0.5214650  
C    -5.2980780   -2.1021400    0.3972080  
C    -6.1312180   -1.0088950   -0.2191220  
N    -5.4291350    0.0661380   -0.4341200  
C    -7.5272350   -1.1973230   -0.5086880  
C    -8.0669760   -2.4012910   -0.2044350  
O    -9.3454970   -2.7310210   -0.4119800  
C    -7.2538600   -3.5258940    0.4180480  
O    -7.8670250   -4.5747120    0.6452120  
C    -5.8471570   -3.3127100    0.7015050  
H    -3.1129350   -2.0080630    0.9254500  
H    -8.1088970   -0.3969550   -0.9523120  
H    -9.4149940   -3.6608140   -0.0873480  
H    -5.2929600   -4.1329900    1.1463880  
