60


C     1.8673950   -1.4019010   -1.0168670  
C     2.9388340   -1.1695600   -0.1857740  
C     2.6670710    0.0400410    0.5470850  
C     1.4002520    0.4950490    0.1102890  
N     0.9415850   -0.4000470   -0.8365100  
C     0.8063710    1.6891680    0.5810470  
C     1.5326890    2.3956910    1.5438340  
O     1.0035600    3.5172860    2.0961050  
C     2.8008440    1.9400920    1.9949540  
O     3.3667100    2.7561100    2.9513050  
C     3.3762360    0.7821390    1.5114050  
H     0.0349400   -0.3547310   -1.2768320  
H     1.6812270    3.9023280    2.6796740  
H     4.2820710    2.4847810    3.1165440  
H     4.3500190    0.4544260    1.8659600  
H     1.7010950   -2.2026210   -1.7228520  
C    -3.3382740   -0.0209750    0.1931210  
C    -1.9980920    0.1355630    0.4916330  
C    -1.6433650    1.4491530    0.0417690  
C    -2.9161930    1.9967910   -0.5311970  
N    -3.8932990    1.1389500   -0.4440830  
C    -2.9956800    3.3215120   -1.0822360  
C    -1.8652690    4.0642460   -1.0696990  
O    -1.7795160    5.3093300   -1.5477160  
C    -0.5478960    3.5338790   -0.5327960  
O     0.4253480    4.2701260   -0.6750940  
C    -0.4852530    2.1832240    0.0706100  
H    -1.3535810   -0.5638040    1.0047350  
H    -3.9310660    3.6944390   -1.4839130  
H    -0.8333970    5.5612940   -1.4364270  
C    -3.9001500   -2.3461620    1.0322090  
C    -4.1958010   -1.1367900    0.4400310  
C    -5.6321350   -1.2503650    0.1089350  
C    -6.0072690   -2.6082470    0.5850340  
N    -4.9794430   -3.2312390    1.1208980  
C    -7.3380230   -3.1219110    0.4509190  
C    -8.2644000   -2.3194190   -0.1327510  
O    -9.5436020   -2.6632840   -0.3251930  
C    -7.9161470   -0.9372450   -0.6256150  
O    -8.8140080   -0.2772530   -1.1425590  
C    -6.5324960   -0.4356920   -0.4724470  
H    -7.5778920   -4.1167900    0.8090440  
H    -9.9622670   -1.8883460   -0.7625190  
H    -6.2927740    0.5593970   -0.8286130  
H    -2.9391590   -2.6611280    1.4230090  
C     4.0784880   -3.3080770    0.4249940  
C     5.3249580   -3.8441480    0.4293250  
C     6.2277960   -2.8324090   -0.0753350  
C     5.3861640   -1.6490790   -0.3857440  
N     4.0779500   -1.9953050   -0.0586510  
C     5.8598780   -0.4837150   -0.8960140  
C     7.2947470   -0.3695920   -1.1449950  
O     7.8144100    0.6423650   -1.5912160  
C     8.2073080   -1.6088610   -0.8167460  
O     9.4095610   -1.5274990   -1.0171440  
C     7.5718140   -2.8143350   -0.2807730  
H     5.5952740   -4.8382240    0.7548580  
H     5.2244370    0.3648000   -1.1253460  
H     8.2094020   -3.6662600   -0.0641690  
H     3.1380060   -3.7419210    0.7381180  
