62


C    -0.8769290   -1.5433270   -0.9418930  
C     0.4995310   -1.6558290   -0.9690350  
C     1.0409020   -0.3524200   -0.7285090  
C    -0.0540230    0.5328190   -0.5548320  
N    -1.2030680   -0.2183490   -0.6798790  
C     0.0715160    1.9110190   -0.2863200  
C     1.3808450    2.3854540   -0.1723990  
O     1.6102340    3.6864630    0.1312150  
C     2.5019800    1.5313090   -0.3616580  
O     3.7203440    2.1734690   -0.2921350  
C     2.3471240    0.1766150   -0.6419450  
H     1.0498840   -2.5799950   -1.0774240  
H    -2.1334830    0.1717160   -0.7149330  
H     2.5780700    3.7995940    0.1614330  
H     4.3904590    1.5934620    0.1131970  
C    -3.3437450    1.6838380    2.5308230  
C    -4.0514400    2.7518700    2.0500150  
C    -3.2924230    3.3131000    0.9669930  
C    -2.1189590    2.5277860    0.8300120  
N    -2.1838640    1.5273960    1.7845430  
C    -1.1201220    2.7816950   -0.1356510  
C    -1.3451210    3.8732470   -0.9777920  
O    -0.4556280    4.1634500   -1.9678510  
C    -2.5112270    4.6717520   -0.8472800  
O    -2.5779990    5.7048030   -1.7653630  
C    -3.4811890    4.4063320    0.0999620  
H    -5.0103010    3.0929480    2.4151450  
H    -1.4128340    0.9251010    2.0303200  
H    -0.7717580    4.9729130   -2.4055190  
H    -3.3574230    6.2494060   -1.5815100  
H    -4.3693060    5.0311720    0.1709470  
H    -3.5820420    0.9899230    3.3243810  
C    -1.8756590   -3.6289220   -1.9463360  
C    -1.9064170   -2.5576830   -1.0996010  
C    -3.1533800   -2.6683920   -0.3420150  
C    -3.8336090   -3.8931140   -0.8320830  
N    -2.9973130   -4.4327980   -1.7896090  
C    -5.0339550   -4.3381730   -0.3812740  
C    -5.7049830   -3.5825990    0.6733230  
O    -6.7916800   -3.8982220    1.1324910  
C    -4.9781180   -2.3109220    1.2436590  
O    -5.4914340   -1.6934120    2.1630830  
C    -3.6952460   -1.9164300    0.6508590  
H    -5.5187880   -5.2333520   -0.7585360  
H    -3.2163090   -1.0287830    1.0508840  
H    -1.1195700   -3.8892190   -2.6748760  
H    -3.2079770   -5.2476350   -2.3443320  
C     3.7502470   -1.3256080   -2.0706310  
C     4.9484410   -1.9569910   -2.0331250  
C     5.5337780   -1.6890220   -0.7357560  
C     4.5510490   -0.8432690   -0.0104100  
N     3.4827480   -0.6514040   -0.8680780  
C     4.7289990   -0.3787730    1.2598770  
C     5.9594750   -0.7329700    1.9645140  
O     6.1937400   -0.3859430    3.1115600  
C     7.0206030   -1.6086790    1.2042710  
O     8.0673080   -1.8919000    1.7638800  
C     6.7050010   -2.0585810   -0.1565900  
H     5.3919190   -2.5427480   -2.8251770  
H     3.9662600    0.1709030    1.8039260  
H     7.4374860   -2.6816490   -0.6611200  
H     3.0194410   -1.2681510   -2.8657230  
