62


C     1.3415740    0.8908560   -0.8629710  
C     2.6045810    0.7135300   -0.3556370  
C     2.4477480    0.3590390    1.0432440  
C     1.0638770    0.3438890    1.3279410  
N     0.4064180    0.6820560    0.1470850  
C     0.5403530    0.0498110    2.5896730  
C     1.4477970   -0.2402750    3.5976730  
O     0.9989440   -0.5451630    4.8455840  
C     2.8457450   -0.2196420    3.3405020  
O     3.6144910   -0.5167540    4.4452220  
C     3.3510550    0.0820650    2.0891360  
H    -0.5230180    0.0542240    2.8020010  
H     1.7789420   -0.7085010    5.4042160  
H     4.5511200   -0.5425890    4.1985320  
H     4.4244190    0.1007940    1.9194390  
H     1.0099510    1.1309180   -1.8626240  
C    -1.7377520   -0.4147150   -0.3331100  
C    -3.0548190   -0.0827950   -0.4092770  
C    -3.1368340    1.3543400   -0.1239140  
C    -1.7567210    1.8273570    0.1235940  
N    -0.9484040    0.7059670   -0.0243960  
C    -1.4067090    3.1002840    0.4285170  
C    -2.4697590    4.0971190    0.5242510  
O    -2.2625750    5.2725290    0.7832880  
C    -3.9489050    3.6213430    0.2798540  
O    -4.8539600    4.4353020    0.3648540  
C    -4.1870370    2.2079990   -0.0439330  
H    -0.3820100    3.4076540    0.6072940  
H    -5.2083430    1.8952870   -0.2276470  
H    -1.2502350   -1.3663440   -0.4981930  
C    -4.1459630   -3.9029260    1.5143020  
C    -5.2385790   -4.1968670    0.7423880  
C    -5.3867850   -3.1278400   -0.2047380  
C    -4.3365580   -2.2061970    0.0419150  
N    -3.5882470   -2.7109200    1.0861550  
C    -4.1686980   -1.0078500   -0.6862940  
C    -5.1080300   -0.7637900   -1.6901290  
O    -5.0046040    0.3620700   -2.4572850  
C    -6.1632760   -1.6759160   -1.9480910  
O    -6.9938500   -1.2774460   -2.9792170  
C    -6.3114400   -2.8462670   -1.2292270  
H    -5.8653350   -5.0731570    0.8344130  
H    -2.8396560   -2.2172430    1.5467900  
H    -5.7461610    0.3471970   -3.0876760  
H    -7.6922540   -1.9361100   -3.1068590  
H    -7.1293320   -3.5293020   -1.4494120  
H    -3.7038350   -4.4486550    2.3358210  
C     4.1707360    1.9527360   -1.9016860  
C     3.8514030    0.8952590   -1.1005040  
C     4.9839200   -0.0252130   -1.1714130  
C     5.9806590    0.6004040   -2.0772680  
N     5.4150120    1.7859980   -2.5005090  
C     7.1852390    0.0570370   -2.3880790  
C     7.5339400   -1.2368310   -1.8093280  
O     8.5956240   -1.8011070   -2.0252380  
C     6.4829640   -1.9307770   -0.8670070  
O     6.7543860   -3.0139870   -0.3730090  
C     5.2144300   -1.2412240   -0.6101590  
H     7.9010840    0.5322240   -3.0518770  
H     4.4942760   -1.7332840    0.0353690  
H     3.5930070    2.8470550   -2.0952280  
H     5.8773440    2.4709250   -3.0776440  
