60


C    -3.3080230   -0.0046680   -0.0420230  
C    -2.0511090    0.5658770    0.1085900  
C    -2.1455110    1.9475820   -0.2017890  
C    -3.4990530    2.2029740   -0.5265470  
N    -4.2041350    1.0150650   -0.3937510  
C    -3.9767550    3.4770120   -0.8508570  
C    -3.0712370    4.5276070   -0.8176090  
O    -3.4825750    5.7883940   -1.1059590  
C    -1.7031830    4.3203310   -0.4829830  
O    -0.9622600    5.4478350   -0.4912450  
C    -1.1972230    3.0258420   -0.2074350  
H    -1.1953230    0.0179690    0.4552910  
H    -5.0522720    0.8299440   -0.9129670  
H    -5.0144380    3.6728970   -1.1013970  
H    -2.6994330    6.3638320   -1.0201480  
H    -0.0273620    5.1979640   -0.2079860  
C     0.2077490    2.8186630   -0.0049390  
C     0.9447670    1.6439930    0.0160450  
C     2.2915550    2.0092950    0.2561850  
C     2.2641410    3.5053450    0.3450110  
N     1.0484280    3.9619010    0.1823410  
C     3.4434810    4.2823490    0.5571330  
C     4.6086410    3.5984910    0.6732100  
O     5.7894900    4.1733090    0.8812300  
C     4.6926250    2.0728990    0.6112410  
O     5.8106230    1.6145100    0.8321420  
C     3.4720210    1.2851480    0.3573340  
H     0.5838140    0.6536530   -0.1933060  
H     3.3973340    5.3636950    0.6205580  
H     6.4245120    3.4184820    0.9561210  
C     3.5339640   -0.1556330    0.2327760  
C     2.5388720   -1.0701690    0.4880310  
C     3.0833020   -2.3581210    0.1387710  
C     4.4730800   -2.0528800   -0.3253060  
N     4.7358140   -0.7815070   -0.2680490  
C     5.3553580   -3.0964000   -0.7847710  
C     4.8829260   -4.3646500   -0.7752220  
O     5.5878950   -5.4370250   -1.1651590  
C     3.4810190   -4.6995460   -0.3145860  
O     3.1519180   -5.8857720   -0.3485270  
C     2.5938420   -3.6215200    0.1382300  
H     1.5620720   -0.8951470    0.9119930  
H     6.3587070   -2.8546570   -1.1171500  
H     4.9769520   -6.1993260   -1.0447590  
H     1.5820270   -3.8855990    0.4324140  
C    -7.2663900   -1.8038000    0.6744010  
C    -6.9153160   -3.1131960    0.6270560  
C    -5.4844050   -3.1744310    0.4163850  
C    -5.0270440   -1.7786460    0.3192640  
N    -6.1647250   -0.9799140    0.4331560  
C    -3.7235080   -1.3749010    0.1423760  
C    -2.7119820   -2.4679970    0.1645550  
O    -1.5087870   -2.2704200    0.1642180  
C    -3.2011800   -3.9671500    0.1944650  
O    -2.3493340   -4.8406100    0.1209460  
C    -4.6231420   -4.2295700    0.3253570  
H    -7.5776950   -3.9604310    0.7315560  
H    -4.9518090   -5.2627350    0.3718720  
H    -8.2386280   -1.3585890    0.8405150  
H    -6.1055740   -0.0333250    0.7862510  
