58


C    -3.7574300    3.9627810   -0.1329620  
C    -3.0346250    5.0989340   -0.2294750  
C    -1.6519220    4.7259910   -0.4380170  
C    -1.6166870    3.2433880   -0.4664990  
N    -2.9485800    2.8166020   -0.2595930  
C    -0.4876660    2.5270090   -0.6830480  
C     0.7739340    3.2543120   -0.8478280  
O     1.8390570    2.6812060   -1.0230080  
C     0.7596870    4.8193610   -0.7854670  
O     1.8096140    5.4310930   -0.8954510  
C    -0.5337200    5.4789060   -0.5912000  
H    -3.4186040    6.1065010   -0.1562690  
H    -0.4759460    1.4474950   -0.7290630  
H    -0.5521630    6.5642080   -0.5712960  
H    -4.8166170    3.8411450    0.0370920  
C    -3.4460610    1.5357460   -0.1604640  
C    -4.7633120    1.1490470   -0.0647320  
C    -4.7157120   -0.2750410    0.0327880  
C    -3.2465520   -0.6182640   -0.0153480  
N    -2.5243880    0.4634530   -0.1322760  
C    -2.7513150   -1.9833800    0.0468810  
C    -3.7327060   -2.9451430    0.1657140  
O    -3.5107910   -4.2437590    0.2879010  
C    -5.2213630   -2.6182380    0.2117430  
O    -5.9801420   -3.5848670    0.3229550  
C    -5.6644550   -1.2410670    0.1369540  
H    -5.6554590    1.7564020   -0.0820310  
H    -4.4131950   -4.6457070    0.3536240  
H    -6.7312810   -1.0468180    0.1722100  
C    -1.3288360   -2.2799700   -0.0319090  
C    -0.2684520   -1.4517600    0.2170940  
C     0.9174220   -2.2385770   -0.0371620  
C     0.3854850   -3.5737300   -0.4486920  
N    -0.9129450   -3.5973680   -0.4503490  
C     1.2551800   -4.6592810   -0.8237670  
C     2.5861800   -4.4291690   -0.7882690  
O     3.5202880   -5.3436540   -1.0938090  
C     3.1595820   -3.0957560   -0.3743120  
O     4.3845840   -3.0166880   -0.3180020  
C     2.2512100   -1.9657450   -0.0351490  
H    -0.2989750   -0.4365880    0.5722950  
H     0.8379480   -5.6164910   -1.1154640  
H     4.3796160   -4.8867380   -0.9521860  
C     1.9669200    0.5767980    3.5599390  
C     2.7902440    1.6043200    3.2497340  
C     3.2837050    1.3045260    1.9094580  
C     2.6222160    0.0042670    1.5615610  
N     1.8571450   -0.4110840    2.5289110  
C     2.8601690   -0.6618680    0.2911940  
C     3.6947280   -0.0210290   -0.5755820  
O     3.9813430   -0.4721530   -1.7998030  
C     4.3817490    1.2808810   -0.2412050  
O     5.1579840    1.7344800   -1.0760030  
C     4.1230130    1.9234210    1.0582640  
H     3.0453430    2.4665500    3.8500970  
H     4.6136720    0.1824040   -2.1753920  
H     4.6242030    2.8655070    1.2565460  
H     1.4036850    0.4256260    4.4733240  
