62


C    -2.1167510   -2.0783250    0.0324870  
C    -0.8644890   -1.5387810    0.3001480  
C     0.0900100   -2.5998050    0.2758070  
C    -0.6303470   -3.7866730   -0.0168210  
N    -1.9522930   -3.4420420   -0.1655280  
C    -0.0132050   -5.0388440   -0.1271270  
C     1.3567850   -5.0867280    0.0686780  
O     2.0106400   -6.2796900   -0.0101430  
C     2.0992130   -3.9095740    0.3622560  
O     3.4446220   -4.1532030    0.5506470  
C     1.5004560   -2.6563890    0.4599700  
H    -0.6589700   -0.5132110    0.5610160  
H    -2.7261960   -4.0748420   -0.3016070  
H    -0.5580980   -5.9495160   -0.3520590  
H     2.9527790   -6.1038570    0.1588400  
H     3.9048760   -3.3294710    0.7752230  
C    -3.2003100    2.1947010   -0.4863170  
C    -4.5739210    2.0167920   -0.4324640  
C    -4.8285350    0.6291560   -0.2529910  
C    -3.5682110   -0.0262980   -0.1930280  
N    -2.5919320    0.9510320   -0.2970290  
C    -3.4225960   -1.4284900   -0.0499730  
C    -4.6338750   -2.1373780    0.0075510  
O    -4.6299550   -3.5022740    0.1211280  
C    -5.8973400   -1.4907250   -0.0323580  
O    -6.9582380   -2.3681380    0.0608670  
C    -6.0165090   -0.1234590   -0.1480260  
H    -5.3064620    2.8115840   -0.4634250  
H    -1.6585670    0.7413940   -0.6235140  
H    -5.5592880   -3.7919110    0.1609400  
H    -7.7940520   -1.8794840    0.0322330  
H    -6.9921030    0.3550880   -0.1790300  
C    -2.8517960    4.5531540   -1.3053890  
C    -2.4560630    3.4117590   -0.6626400  
C    -1.1208110    3.7621280   -0.1000390  
C    -0.9040890    5.1619980   -0.5332530  
N    -1.9193900    5.6088210   -1.2293310  
C     0.2798810    5.8873100   -0.1701920  
C     1.1974190    5.2696290    0.6181720  
O     2.3405150    5.8537080    1.0295450  
C     0.9962420    3.8752250    1.0882910  
O     1.8758040    3.3695620    1.8031110  
C    -0.2280340    3.1414640    0.6952120  
H     0.4149470    6.9080580   -0.5105050  
H     2.8010550    5.1859360    1.5783140  
H    -0.3495080    2.1352670    1.0850300  
H    -3.7712150    4.7061330   -1.8565040  
C     1.9311240   -0.4440950    1.6160040  
C     2.2721380   -1.4313120    0.7314460  
C     3.4818530   -0.9594690    0.0578300  
C     3.7886000    0.3730900    0.6399620  
N     2.8292150    0.6107400    1.6069130  
C     4.8172510    1.1648380    0.2446150  
C     5.7034740    0.6837230   -0.8111850  
O     6.6599160    1.3226070   -1.2225780  
C     5.4016880   -0.7246870   -1.4408100  
O     6.1238400   -1.1412950   -2.3327310  
C     4.2534290   -1.4845200   -0.9348550  
H     5.0130570    2.1405400    0.6781500  
H     4.0445370   -2.4417650   -1.4015110  
H     1.0919600   -0.4271690    2.2993850  
H     2.5988140    1.5406620    1.9493240  
