58


C    -2.1196410   -3.6746210   -1.7827420  
C    -3.4069600   -4.0949500   -1.7817540  
C    -4.0882070   -3.4180220   -0.7003280  
C    -3.0719470   -2.5510440   -0.0533330  
N    -1.8899530   -2.7183880   -0.7774910  
C    -3.3088960   -1.7962480    1.0502900  
C    -4.6511100   -1.8104770    1.6316140  
O    -4.9407170   -1.1812820    2.6373040  
C    -5.7532230   -2.6828880    0.9312570  
O    -6.8859180   -2.6851420    1.3867400  
C    -5.3640620   -3.4764430   -0.2372570  
H    -3.8437850   -4.8135720   -2.4599570  
H    -2.5504770   -1.2027470    1.5472240  
H    -6.1214300   -4.1087770   -0.6906160  
H    -1.2991420   -3.9652930   -2.4211740  
C    -0.7786590    1.4674690   -0.2580820  
C     0.5449350    1.2591700    0.0920300  
C     0.8133880   -0.1455930    0.0503080  
C    -0.4608830   -0.7820330   -0.3401960  
N    -1.3725560    0.2248260   -0.4992230  
C    -0.6395800   -2.1330000   -0.4963200  
C     0.5414000   -2.9857560   -0.3788550  
O     0.5253240   -4.1866570   -0.5999460  
C     1.9105110   -2.3238640    0.0341050  
O     2.8719470   -3.0660240    0.1499230  
C     1.9725620   -0.8692350    0.2706130  
H     1.2573830    2.0173140    0.3672130  
H    -2.3669670    0.1400040   -0.6799090  
C     3.2409100    0.6385420    1.8223390  
C     3.1957030   -0.2635860    0.7919290  
C     4.5873830   -0.4502370    0.3580010  
C     5.4144350    0.4273370    1.2225120  
N     4.5321180    1.0619610    2.0790500  
C     6.7630080    0.5529870    1.1455150  
C     7.4711700   -0.2088800    0.1218790  
O     8.6816720   -0.1585950   -0.0315840  
C     6.6167970   -1.1201780   -0.8301910  
O     7.1792310   -1.7407930   -1.7168820  
C     5.1623800   -1.1887150   -0.6235130  
H     7.3401840    1.2006190    1.7984740  
H     4.5996570   -1.8586890   -1.2618680  
H     2.4219870    1.0038430    2.4278120  
H     4.8077160    1.6348170    2.8620580  
C     0.3738310    5.7764520   -0.5807070  
C     0.3924000    4.4097960   -0.5518190  
C    -0.9668050    3.9564030   -0.4409990  
C    -1.7955210    5.1826390   -0.4213210  
N    -0.9153450    6.2503730   -0.4765000  
C    -3.1507480    5.2196870   -0.3601110  
C    -3.8641580    3.9521890   -0.3585890  
O    -5.0786620    3.8633100   -0.3075160  
C    -3.0234390    2.6295720   -0.4477610  
O    -3.6496300    1.5881080   -0.5951770  
C    -1.5420110    2.6921100   -0.3721590  
H     1.2752840    3.8016700   -0.6581880  
H    -3.7263500    6.1390180   -0.3230050  
H     1.2014790    6.4667750   -0.6764990  
H    -1.1911570    7.2187160   -0.5334240  
