62


C     0.8386550   -1.7921780    0.0763480  
C     1.7548570   -0.7687700   -0.0991130  
C     3.0541770   -1.2747600    0.2352400  
C     2.8755550   -2.6374720    0.6002630  
N     1.5299450   -2.9320690    0.4743320  
C     3.9306050   -3.4769570    0.9610780  
C     5.2044300   -2.9312660    0.9140510  
O     6.2847110   -3.6902780    1.2276230  
C     5.4226040   -1.5754800    0.5382290  
O     6.7435820   -1.2093790    0.5666760  
C     4.3681950   -0.7106230    0.2281150  
H     1.5180250    0.1993410   -0.5162850  
H     1.0870980   -3.7373400    0.8921800  
H     3.7940340   -4.5180350    1.2344870  
H     7.0608780   -3.1149190    1.0790780  
H     6.9026400   -0.6373400   -0.2242600  
C    -0.5869870   -1.8119870   -0.1286650  
C    -1.5099240   -0.7833460   -0.0768260  
C    -2.7987940   -1.3289830   -0.3579710  
C    -2.6117840   -2.7243010   -0.5590130  
N    -1.2656190   -3.0029810   -0.3816550  
C    -3.6563780   -3.6031570   -0.8366660  
C    -4.9339090   -3.0604400   -0.8708180  
O    -6.0064340   -3.8554500   -1.1130840  
C    -5.1642390   -1.6757890   -0.6446610  
O    -6.4903880   -1.3263470   -0.7170330  
C    -4.1154150   -0.7768040   -0.4179630  
H    -1.2755490    0.2397860    0.1718160  
H    -0.8165350   -3.8192580   -0.7718680  
H    -3.5127510   -4.6676500   -0.9904780  
H    -6.7821330   -3.2627430   -1.0504030  
H    -6.6826670   -0.7426930    0.0664720  
C     2.3284250    2.8310200    1.8274530  
C     2.9303690    3.8117280    1.1082010  
C     3.9128340    3.1744020    0.2566330  
C     3.8237340    1.7187040    0.5378570  
N     2.8629120    1.5850260    1.5124940  
C     4.5744440    0.7295830   -0.0602440  
C     5.6144110    1.2172920   -0.9657920  
O     6.5014490    0.5033840   -1.4387770  
C     5.6628360    2.7403310   -1.3625270  
O     6.4487670    3.0835730   -2.2304250  
C     4.7870350    3.6693860   -0.6588740  
H     2.7300530    4.8714500    1.1668800  
H     4.8521010    4.7232700   -0.9093890  
H     1.5484720    2.9045170    2.5737520  
H     2.4874400    0.6939470    1.8046840  
C    -7.1094000    1.4610000    1.9532080  
C    -6.6761720    2.7355760    1.8268490  
C    -5.5313540    2.6662150    0.9281910  
C    -5.3842010    1.2094910    0.6168740  
N    -6.3254330    0.5241550    1.2141560  
C    -4.3367920    0.6780680   -0.2420570  
C    -3.5650090    1.6346990   -0.8524910  
O    -2.5969440    1.3577670   -1.7405790  
C    -3.7044330    3.1035090   -0.5855220  
O    -2.9432940    3.8675610   -1.1848670  
C    -4.7285330    3.5836630    0.3555570  
H    -7.0874950    3.6288700    2.2754290  
H    -2.2380740    2.2348510   -2.0073410  
H    -4.7986150    4.6547070    0.5182430  
H    -7.9502060    1.0895430    2.5257860  
