58


C     4.8409940   -1.7158220   -2.3200670  
C     6.1500180   -2.0629740   -2.2956490  
C     6.7074280   -1.5669560   -1.0549160  
C     5.5932410   -0.8952250   -0.3416070  
N     4.4738300   -0.9969840   -1.1712730  
C     5.6999870   -0.3422390    0.8922500  
C     7.0034860   -0.3712420    1.5568530  
O     7.1895990    0.1017080    2.6666600  
C     8.2060940   -1.0452500    0.8026840  
O     9.3034270   -1.0658800    1.3361680  
C     7.9523490   -1.6348900   -0.5154310  
H     6.6839950   -2.6002630   -3.0660000  
H     4.8691960    0.1140010    1.4190970  
H     8.7823010   -2.1232170   -1.0170410  
H     4.0907860   -1.8924560   -3.0792260  
C     2.0189070   -1.2702410   -0.9436990  
C     3.1725940   -0.5580800   -0.8863870  
C     2.7578050    0.8246190   -0.6068350  
C     1.2688020    0.7389520   -0.4980330  
N     0.8635190   -0.4845260   -0.7033260  
C     0.4346990    1.9074280   -0.2099310  
C     1.1207300    3.1008930   -0.0863920  
O     0.5692240    4.2784450    0.1968430  
C     2.6150310    3.1986170   -0.2432220  
O     3.1289920    4.3094190   -0.1215930  
C     3.4152660    1.9910740   -0.5121520  
H     1.3193570    4.9178840    0.2112500  
H     4.4908810    2.1078140   -0.5971170  
H     1.9032390   -2.3267880   -1.1540550  
C    -1.0077920    1.7840600   -0.0962660  
C    -1.7613270    0.6357590   -0.0469650  
C    -3.1337850    1.0695330    0.0573370  
C    -3.0479080    2.5610650    0.0419840  
N    -1.8186660    2.9728900   -0.0439130  
C    -4.2220440    3.3931310    0.0899480  
C    -5.4233450    2.7751250    0.1542460  
O    -6.5985770    3.4176280    0.2157440  
C    -5.5497230    1.2731720    0.2080660  
O    -6.6753850    0.8165630    0.3843430  
C    -4.3311510    0.4181270    0.1132670  
H    -1.3982640   -0.3765620   -0.1030830  
H    -4.1254240    4.4728550    0.0736690  
H    -7.2781640    2.7108310    0.2885030  
C    -2.7913270   -2.8837050    2.6892640  
C    -3.0455110   -1.6714260    2.1299250  
C    -3.9215330   -1.8919860    1.0005120  
C    -4.1659200   -3.3556680    0.9523780  
N    -3.4374140   -3.8979040    1.9938110  
C    -4.9722440   -3.9832090    0.0585660  
C    -5.6549170   -3.1716850   -0.9401200  
O    -6.4236350   -3.6341960   -1.7681210  
C    -5.3751010   -1.6270770   -0.9540510  
O    -5.8297910   -0.9604650   -1.8662540  
C    -4.5172040   -1.0393070    0.1070540  
H    -2.6571030   -0.7210770    2.4618610  
H    -5.1491300   -5.0543460    0.0618740  
H    -2.1825130   -3.1253550    3.5505050  
H    -3.4484610   -4.8708660    2.2566890  
