60


C    -2.2234580    0.1419840    0.6954180  
C    -1.6579780    1.3579960    0.3521420  
C    -2.7400210    2.1728240   -0.1695550  
C    -3.9146960    1.3867140   -0.1242920  
N    -3.5802660    0.1456370    0.4232690  
C    -5.1529810    1.8356610   -0.5982390  
C    -5.2081050    3.1183470   -1.1188540  
O    -6.3875170    3.6127480   -1.5837830  
C    -4.0408270    3.9276660   -1.1657490  
O    -4.2563540    5.1795220   -1.7009020  
C    -2.8200230    3.4715120   -0.7100290  
H    -6.0479540    1.2244190   -0.5785400  
H    -6.2210860    4.5233310   -1.8848860  
H    -3.4585610    5.7202130   -1.5987300  
H    -1.9487430    4.1166110   -0.7337590  
H    -1.7834020   -0.7010950    1.2092660  
C     1.8921700   -1.0544300   -0.4266490  
C     2.8807690   -0.2019370    0.0014630  
C     2.2124910    1.0179620    0.4482630  
C     0.7677020    0.7904640    0.2478010  
N     0.6490620   -0.5005190   -0.2549660  
C    -0.2391540    1.6826950    0.5074220  
C     0.2049420    3.0039510    1.0153410  
O    -0.5654900    3.9186580    1.2510600  
C     1.7383990    3.2497320    1.2835550  
O     2.0752330    4.3375850    1.7245170  
C     2.6817060    2.1827590    0.9787050  
H     3.7287160    2.3586840    1.1994470  
H     1.9971960   -2.0374360   -0.8665870  
H    -0.2119260   -0.8632330   -0.6394010  
C     4.2972960   -0.4939620   -0.0205250  
C     4.9408770   -1.7022850    0.0578010  
C     6.3552610   -1.4682650   -0.0647240  
C     6.5141060   -0.0019680   -0.2269050  
N     5.2401690    0.5395620   -0.1383650  
C     7.6995650    0.6242150   -0.4229670  
C     8.9163280   -0.1872280   -0.4487530  
O    10.0272140    0.2910440   -0.6175280  
C     8.7768560   -1.7399520   -0.2396710  
O     9.7873710   -2.4279820   -0.2496940  
C     7.4381500   -2.2952810   -0.0538000  
H     4.4695610   -2.6571830    0.2426970  
H     7.7964970    1.6983440   -0.5490590  
H     7.3521390   -3.3703470    0.0719690  
H     5.0065750    1.4554580   -0.4932180  
C    -5.6144920   -0.8434220    1.4340150  
C    -4.4600340   -0.9113760    0.7098580  
C    -4.3016180   -2.2873820    0.2683870  
C    -5.4705030   -3.0211160    0.8106090  
N    -6.2290430   -2.0848600    1.4909640  
C    -5.6879370   -4.3472120    0.6284750  
C    -4.7169130   -5.1113680   -0.1554890  
O    -4.8281710   -6.3078780   -0.3660500  
C    -3.4777280   -4.3468180   -0.7499410  
O    -2.6533210   -4.9641940   -1.4047020  
C    -3.3588600   -2.9106160   -0.4841440  
H    -6.5478550   -4.8731540    1.0314580  
H    -2.5102000   -2.3863090   -0.9111790  
H    -6.0565060    0.0142540    1.9222810  
H    -7.1033610   -2.2765100    1.9547690  
