58


C     5.0415500   -1.2716400   -1.9738440  
C     5.0053280   -0.3807200   -0.9374450  
C     6.2540280   -0.5732590   -0.1914060  
C     6.9944480   -1.6525540   -0.8879180  
N     6.1954570   -2.0411670   -1.9488870  
C     8.2084330   -2.1280210   -0.5121550  
C     8.8372060   -1.5575470    0.6751710  
O     9.9242770   -1.9218450    1.0959030  
C     8.0599760   -0.4299120    1.4464290  
O     8.5516740    0.0423160    2.4576380  
C     6.7588820    0.0117140    0.9226990  
H     8.7325320   -2.9157180   -1.0447480  
H     6.2554700    0.8166680    1.4456160  
H     4.3222580   -1.4059370   -2.7719780  
H     6.4822560   -2.6759490   -2.6779370  
C     0.7090690   -1.0430510   -0.5111890  
C     0.2594110    0.2436670   -0.3293460  
C     1.4542920    1.0982190   -0.3510830  
C     2.6043790    0.1967400   -0.5774980  
N     2.0729790   -1.0792180   -0.6849280  
C     3.9193680    0.5648040   -0.6502740  
C     4.1993580    2.0041610   -0.4708750  
O     5.3267580    2.4677300   -0.5095240  
C     2.9903960    2.9820450   -0.2339780  
O     3.2296490    4.1685370   -0.0843010  
C     1.6312940    2.4351890   -0.1951960  
H     0.7972170    3.1054200   -0.0288270  
H     0.1378790   -1.9615310   -0.5328160  
H     2.6373060   -1.9158900   -0.7155900  
C    -1.1124950    0.6410460   -0.1479500  
C    -2.2472580   -0.1343930   -0.1590830  
C    -3.3394160    0.7588620    0.0887170  
C    -2.6862630    2.1067750    0.2262790  
N    -1.3957360    2.0309540    0.0826940  
C    -3.4442520    3.3029160    0.4683690  
C    -4.7861360    3.1719780    0.5712640  
O    -5.6259690    4.1856890    0.8057400  
C    -5.4829840    1.8303380    0.4454230  
O    -6.7012450    1.8366570    0.6157320  
C    -4.6971920    0.6120280    0.1609730  
H    -2.3206600   -1.2032310   -0.2922340  
H    -2.9437290    4.2597720    0.5641640  
H    -6.5194930    3.7730470    0.8456200  
C    -4.3827860   -3.2185020    2.3334410  
C    -5.3567000   -3.9570770    1.7555650  
C    -5.9363150   -3.0888280    0.7354500  
C    -5.1496710   -1.8152170    0.8493250  
N    -4.2471570   -1.9015080    1.7813870  
C    -5.4258110   -0.6618570    0.0047230  
C    -6.4259790   -0.8145330   -0.9104690  
O    -6.7730980    0.1308910   -1.7920940  
C    -7.2233150   -2.0845090   -1.0457980  
O    -8.0977230   -2.1144370   -1.9094150  
C    -6.9303000   -3.2263090   -0.1618970  
H    -5.6621010   -4.9676020    1.9886210  
H    -7.5214460   -0.2488750   -2.3047500  
H    -7.5340110   -4.1202730   -0.2851710  
H    -3.7201480   -3.5029250    3.1421640  
