60


C    -0.7320730    0.4737690   -0.7048430  
C    -2.0640710    0.6408590   -0.3694200  
C    -2.7420180   -0.5753750   -0.6616650  
C    -1.7701890   -1.4753290   -1.1791570  
N    -0.5468420   -0.8357810   -1.1557850  
C    -2.0796240   -2.7717420   -1.6000650  
C    -3.3993820   -3.1735000   -1.4793810  
O    -3.7672190   -4.4160590   -1.8878810  
C    -4.3834360   -2.3056680   -0.9264440  
O    -5.6356840   -2.8775490   -0.8797810  
C    -4.0899480   -1.0113710   -0.5024930  
H    -2.4863900    1.5371030    0.0593950  
H     0.2354910   -1.1173160   -1.7294870  
H    -1.3433380   -3.4541540   -2.0111140  
H    -4.7293930   -4.4920100   -1.7606740  
H    -6.2887430   -2.2019250   -0.6354950  
C     0.3623660    1.3940280   -0.5942820  
C     0.3698210    2.7639670   -0.5249350  
C     1.7320560    3.1968040   -0.3929900  
C     2.5581030    1.9718310   -0.3960510  
N     1.6908130    0.9160940   -0.5790990  
C     3.9171070    1.9278050   -0.1845060  
C     4.6061520    3.2415480   -0.0788560  
O     5.8160970    3.3577880   -0.0801160  
C     3.7353490    4.5476720   -0.0477720  
O     4.2956950    5.6167650    0.1461130  
C     2.2972340    4.4317680   -0.2522660  
H    -0.4973140    3.4039890   -0.6012820  
H     1.7088060    5.3441280   -0.2390580  
H     1.9404760   -0.0158370   -0.2671340  
C     4.6521230    0.6836830   -0.0910370  
C     4.3965570   -0.5157930   -0.7184520  
C     5.4051090   -1.4315990   -0.2456360  
C     6.2068720   -0.6172780    0.7260520  
N     5.7739750    0.6049320    0.8102480  
C     7.3134350   -1.1878470    1.4519360  
C     7.6251470   -2.4814740    1.2052990  
O     8.6309210   -3.1434160    1.7950990  
C     6.8469830   -3.3212520    0.2164980  
O     7.2094960   -4.4899240    0.0679570  
C     5.7147720   -2.7268780   -0.4967090  
H     3.6829590   -0.7076430   -1.5082380  
H     7.8720150   -0.5799940    2.1547510  
H     8.6009930   -4.0483950    1.4096120  
H     5.1742070   -3.3642480   -1.1899060  
C    -6.8713800   -1.5247670    2.9317370  
C    -5.9038520   -1.6891750    1.9908770  
C    -5.9088440   -0.5066890    1.1540700  
C    -6.9736680    0.3733010    1.6998780  
N    -7.5274920   -0.3128850    2.7640860  
C    -7.2889160    1.6033570    1.2215270  
C    -6.5265480    2.1096940    0.0897990  
O    -6.7075990    3.2120140   -0.4021880  
C    -5.4059280    1.1917240   -0.5297130  
O    -4.7973060    1.6104590   -1.4984990  
C    -5.1396230   -0.1410320    0.0737980  
H    -5.2452470   -2.5382050    1.8929280  
H    -8.0660690    2.2314680    1.6456440  
H    -7.1614450   -2.1867810    3.7369950  
H    -8.2435120    0.0524300    3.3725010  
