58


C    -2.9992610   -2.6383290    3.0399800  
C    -3.2433470   -1.5177710    2.3085280  
C    -3.8043260   -1.9412800    1.0452490  
C    -3.8742180   -3.4237770    1.1053270  
N    -3.3544920   -3.7798930    2.3355400  
C    -4.3775280   -4.2204190    0.1286420  
C    -4.8894010   -3.5872660   -1.0805290  
O    -5.3873700   -4.2111070   -2.0036880  
C    -4.7771280   -2.0263540   -1.2020290  
O    -5.0667240   -1.5007240   -2.2623340  
C    -4.2594740   -1.2493010   -0.0482750  
H    -3.0549840   -0.5011410    2.6179420  
H    -4.4359190   -5.3014700    0.2089940  
H    -2.5872880   -2.7271280    4.0366000  
H    -3.3164910   -4.7217880    2.6929630  
C    -1.1001510    1.9571080    0.1960090  
C    -1.7188410    0.7292570    0.1867320  
C    -3.1207110    0.9991350   -0.0413330  
C    -3.1805840    2.4854880   -0.1884100  
N    -2.0100440    3.0379980   -0.0405920  
C    -4.4099530    3.1699190   -0.4890130  
C    -5.5287280    2.4197200   -0.6162200  
O    -6.7425380    2.9200070   -0.8813520  
C    -5.5165300    0.9226890   -0.4257370  
O    -6.6002300    0.3485620   -0.4521340  
C    -4.2291970    0.2156630   -0.1625830  
H    -1.2812140   -0.2329050    0.4141430  
H    -4.4189340    4.2484220   -0.5982170  
H    -7.3522870    2.1489410   -0.8789290  
C     2.3952880   -0.1376540   -1.3721180  
C     3.3841870    0.6502850   -0.8606900  
C     2.7467540    1.7041630   -0.0842640  
C     1.2975130    1.4504910   -0.1837800  
N     1.1558900    0.3046280   -0.9433880  
C     0.3160210    2.2421300    0.3576050  
C     0.7778390    3.4070600    1.1559420  
O     0.0260860    4.1065130    1.8055220  
C     2.3205530    3.7065630    1.2309550  
O     2.6947050    4.7110100    1.8124290  
C     3.2489070    2.7634170    0.6040820  
H     4.3127190    2.9624720    0.6886180  
H     2.4809540   -1.0093640   -2.0067150  
H     0.2637150   -0.0207190   -1.2896250  
C     5.6367140    1.3848880   -1.6433110  
C     6.9209000    0.9556030   -1.6064120  
C     6.9326910   -0.3207500   -0.9216820  
C     5.5243010   -0.6037880   -0.5514620  
N     4.7695580    0.4708150   -1.0227780  
C     5.1158050   -1.7098950    0.1183860  
C     6.1194420   -2.6997470    0.5031360  
O     5.8428530   -3.7234190    1.1093250  
C     7.6173400   -2.4266100    0.1113000  
O     8.4681350   -3.2469470    0.4159060  
C     7.9305920   -1.1879520   -0.6082910  
H     7.7789730    1.4679180   -2.0168520  
H     4.0817250   -1.8965190    0.3874430  
H     8.9690890   -1.0048800   -0.8669180  
H     5.2214240    2.2860520   -2.0747340  
