58


C     1.2006670    1.8864040   -0.0905820  
C     1.7683840    3.1227320   -0.2380180  
C     3.1940500    2.9479670   -0.2898940  
C     3.4424480    1.4868980   -0.1452750  
N     2.2038450    0.9161730    0.0181950  
C     4.6851500    0.8763860   -0.1318400  
C     5.8129760    1.8006260   -0.3364400  
O     6.9890530    1.4446870   -0.3614640  
C     5.5655370    3.3474600   -0.5129970  
O     6.5420060    4.0642240   -0.6669770  
C     4.2037650    3.8436720   -0.4575910  
H     1.2424020    4.0593120   -0.3541220  
H     4.0376070    4.9108730   -0.5634470  
H     2.0740360   -0.0652800   -0.1996240  
C    -1.1698120    2.3345800    0.5328970  
C    -0.2033780    1.5330900   -0.0062140  
C    -0.8819960    0.3131610   -0.4607130  
C    -2.3153600    0.5052550   -0.1452230  
N    -2.4196230    1.7511400    0.4265530  
C    -3.3247560   -0.4042160   -0.3779440  
C    -2.8895960   -1.7172490   -0.8888430  
O    -3.6224830   -2.6952340   -0.9567740  
C    -1.4093590   -1.8817310   -1.3757280  
O    -1.1096870   -2.8977910   -1.9739830  
C    -0.4449020   -0.8132870   -1.0848210  
H     0.5801530   -0.9889180   -1.3977200  
H    -1.0590450    3.2989820    1.0096710  
H    -3.2486520    2.0651720    0.9130710  
C    -4.7257810   -0.1307770   -0.1078450  
C    -5.3889680    1.0770820    0.0095120  
C    -6.7787130    0.7969160    0.2515120  
C    -6.9005880   -0.6819890    0.2715490  
N    -5.6295810   -1.1752360    0.0650140  
C    -8.0659720   -1.3501930    0.4627390  
C    -9.2865450   -0.5735010    0.6667300  
O   -10.3796560   -1.0869710    0.8489390  
C    -9.1798620    0.9960090    0.6511850  
O   -10.1906590    1.6607910    0.8230760  
C    -7.8649920    1.5994240    0.4323180  
H    -4.9817640    2.0594240   -0.1801920  
H    -8.1375630   -2.4331970    0.4722250  
H    -7.8042580    2.6836360    0.4197930  
H    -5.3661640   -2.1345090   -0.1262090  
C     7.7798760   -1.4240330    2.0996790  
C     7.3283030   -2.6847140    1.8988210  
C     6.1500410   -2.5829460    1.0659610  
C     5.9427880   -1.1277820    0.8074670  
N     6.9416720   -0.4855240    1.4950580  
C     4.9074230   -0.5806480    0.0621930  
C     4.0072050   -1.5717620   -0.5373670  
O     3.0320920   -1.2796080   -1.2317410  
C     4.2248410   -3.1131550   -0.2906640  
O     3.4368070   -3.8874980   -0.8065510  
C     5.3305800   -3.5351530    0.5543420  
H     7.7578100   -3.5991700    2.2808050  
H     5.4672890   -4.5966980    0.7338010  
H     8.6467060   -1.0815320    2.6492840  
H     7.2567430    0.4280970    1.1792940  
