60


C     0.5938830   -1.3179340    0.2651150  
C     1.9388230   -1.4842820    0.3641510  
C     2.5239240   -0.1744110    0.4949160  
C     1.4725040    0.7728750    0.4632420  
N     0.2688120    0.0442160    0.3225780  
C     1.7035950    2.1485430    0.5328460  
C     3.0241860    2.5707050    0.6421140  
O     3.2980600    3.8997050    0.7106390  
C     4.0948660    1.6459390    0.7030650  
O     5.3359730    2.2095440    0.8857180  
C     3.8503200    0.2735760    0.6360010  
H     2.4616350   -2.4300360    0.3365450  
H     0.8972770    2.8662550    0.4960230  
H     4.2671030    3.9890590    0.7605340  
H     6.0220680    1.6820760    0.4377400  
H    -0.1878170   -2.0525100    0.1562990  
C    -1.0209660    0.5164940    0.2409700  
C    -2.1765320   -0.2144440    0.0654670  
C    -3.2271060    0.7474580    0.0673990  
C    -2.5229680    2.0684130    0.2517730  
N    -1.2311700    1.9152160    0.3480150  
C    -3.2272020    3.3146590    0.2947920  
C    -4.5730830    3.2584490    0.1617040  
O    -5.3759990    4.3216800    0.1889730  
C    -5.3256240    1.9458460   -0.0220420  
O    -6.5520890    2.0451490   -0.0787340  
C    -4.5879760    0.6802800   -0.0946620  
H    -2.2910120   -1.2826670   -0.0174010  
H    -2.6917120    4.2475230    0.4289730  
H    -6.2854950    3.9518110    0.0842230  
C    -4.9014240   -3.0216900    2.2903470  
C    -5.7906330   -3.7489660    1.5773700  
C    -6.1245340   -2.9165730    0.4258410  
C    -5.3036190   -1.6749190    0.6216810  
N    -4.5953860   -1.7461100    1.7101710  
C    -5.3530340   -0.5626420   -0.3162050  
C    -6.1783570   -0.7215370   -1.3907500  
O    -6.3076950    0.1872760   -2.3656900  
C    -7.0090430   -1.9577020   -1.6079300  
O    -7.7140080   -1.9972250   -2.6145450  
C    -6.9450420   -3.0596500   -0.6315810  
H    -6.1872790   -4.7301890    1.7978830  
H    -6.9687750   -0.1886140   -2.9890580  
H    -7.5651930   -3.9304890   -0.8210420  
H    -4.4147390   -3.2883800    3.2209750  
C     5.0558260   -1.6125820    1.7610920  
C     6.2234540   -2.2915320    1.6591130  
C     6.9302940   -1.7614270    0.5114570  
C     6.0533510   -0.7064980   -0.0583950  
N     4.9222520   -0.6571220    0.7393470  
C     6.3618970    0.0355440   -1.1600310  
C     7.6343680   -0.2178590   -1.8349820  
O     7.9844520    0.3798740   -2.8400700  
C     8.5839230   -1.3169780   -1.2345220  
O     9.6618460   -1.5252520   -1.7667610  
C     8.1303280   -2.0569230   -0.0509230  
H     6.5700470   -3.0756800    2.3164450  
H     5.6761940    0.7480010   -1.6095030  
H     8.7872060   -2.8278160    0.3408050  
H     4.2642150   -1.6991470    2.4929450  
