62


C    -2.4590440   -0.4889130   -0.6209020  
C    -3.7506200   -0.0614880   -0.3879230  
C    -3.6621370    1.3592800   -0.0798740  
C    -2.2964350    1.7207000   -0.1234460  
N    -1.5851890    0.5718700   -0.4673770  
C    -1.8199130    3.0054960    0.1491150  
C    -2.7630740    3.9661070    0.4797480  
O    -2.3715540    5.2421880    0.7481780  
C    -4.1423190    3.6304490    0.5352550  
O    -4.9585800    4.6910510    0.8740340  
C    -4.5970590    2.3538070    0.2675350  
H    -0.7674280    3.2622110    0.1077590  
H    -3.1770670    5.7574370    0.9295200  
H    -5.8859260    4.4328890    0.7626930  
H    -5.6587670    2.1339150    0.2877400  
H    -2.0837710   -1.4520890   -0.9326260  
C     0.4286150    0.7911030   -1.8397310  
C     1.7739800    0.6143620   -1.6440660  
C     1.9736880    0.1940670   -0.2847220  
C     0.6964070    0.1434550    0.3136020  
N    -0.2306960    0.5000650   -0.6573810  
C     0.4654070   -0.1930280    1.6529190  
C     1.5724040   -0.4848060    2.4257070  
O     1.4265770   -0.8130340    3.7364970  
C     2.8869490   -0.4530720    1.8777270  
O     3.8399130   -0.7668030    2.7795310  
C     3.1254870   -0.1338900    0.5113290  
H     2.5230040    0.8015040   -2.3962520  
H    -0.5283410   -0.2112780    2.0866130  
H     2.3254670   -0.9610830    4.0849210  
H     4.7335180   -0.6785950    2.3172680  
H    -0.1326210    1.1028500   -2.7080970  
C    -4.4140560   -4.2377450    0.9632650  
C    -3.9039800   -2.9995040    0.7410610  
C    -4.9074430   -2.2331720    0.0277170  
C    -6.0660320   -3.1409910   -0.1374630  
N    -5.6932760   -4.3442930    0.4253540  
C    -7.2497870   -2.8108920   -0.7224670  
C    -7.4040600   -1.4582590   -1.2145160  
O    -8.4297940   -1.0290500   -1.7241410  
C    -6.1813020   -0.4709840   -1.0777240  
O    -6.3198120    0.6590310   -1.5157240  
C    -4.9207820   -0.9390640   -0.4414170  
H    -2.9379850   -2.6440020    1.0638610  
H    -8.0804610   -3.5022140   -0.8236690  
H    -3.9721050   -5.0820860    1.4751720  
H    -6.2979100   -5.1458480    0.5127200  
C     4.4632750   -0.1663550   -0.0188380  
C     4.9482860   -0.0360410   -1.3056580  
C     6.3666670   -0.1597790   -1.2268680  
C     6.6516410   -0.3769560    0.2321150  
N     5.5445470   -0.3841170    0.9166640  
C     7.9823250   -0.5495150    0.7354490  
C     8.9884360   -0.5133680   -0.1727970  
O    10.2778010   -0.6573360    0.1269470  
C     8.7406020   -0.2999820   -1.6630500  
O     9.7489120   -0.2907100   -2.3764250  
C     7.3834380   -0.1266540   -2.1370400  
H     4.3866000    0.0934150   -2.2153240  
H     8.1616190   -0.7013260    1.7938860  
H    10.7446520   -0.5827810   -0.7410810  
H     7.2347180    0.0235080   -3.2013570  
