62


C     0.1405350    2.1383790   -0.0990230  
C    -1.1081920    1.5684220   -0.3335440  
C    -0.9197240    0.1636980   -0.4806630  
C     0.4727360   -0.0865300   -0.3361560  
N     1.0832380    1.1205910   -0.1206290  
C     1.0408530   -1.3867630   -0.3795810  
C     0.1095160   -2.4282360   -0.5248540  
O     0.5269440   -3.7302550   -0.5801140  
C    -1.2782410   -2.1892290   -0.6633590  
O    -2.0114010   -3.3461490   -0.8368920  
C    -1.8296540   -0.9117940   -0.6604240  
H    -2.0655620    2.0655380   -0.2839210  
H     2.0301310    1.2859370    0.2023640  
H    -0.2650100   -4.2760420   -0.7403410  
H    -2.9342920   -3.1135900   -1.0374090  
C    -1.9196700    5.9446640   -0.8807360  
C    -1.0328370    6.8001540   -0.3127210  
C     0.0701520    6.0081250    0.1898900  
C    -0.2605900    4.6027470   -0.1194390  
N    -1.4971040    4.6243410   -0.7347010  
C     0.5317600    3.5120620    0.1597040  
C     1.8570110    3.8305980    0.7312010  
O     2.7385050    2.9948090    0.8936050  
C     2.1857530    5.3129510    1.1532200  
O     3.2428390    5.5195720    1.7280440  
C     1.2263330    6.3546840    0.8229720  
H    -1.1251670    7.8744800   -0.2476070  
H     1.4725300    7.3785860    1.0847050  
H    -2.8574230    6.1548720   -1.3778110  
H    -1.8485980    3.8458050   -1.2728750  
C     2.4770790   -1.6135100   -0.2861280  
C     3.5222710   -0.7454190   -0.5131950  
C     4.7529440   -1.4567060   -0.2978280  
C     4.3659120   -2.8383610    0.0805140  
N     2.9904280   -2.8604630    0.0929820  
C     5.2482530   -3.8358020    0.3480110  
C     6.6742030   -3.5416550    0.2651360  
O     7.5413260   -4.3754650    0.4852980  
C     7.1083140   -2.0803000   -0.1272470  
O     8.3013100   -1.8207520   -0.2012390  
C     6.0633200   -1.0935750   -0.3908680  
H     3.4520600    0.2740980   -0.8589400  
H     4.9454220   -4.8418680    0.6219310  
H     6.3745390   -0.0886760   -0.6599140  
H     2.4144740   -3.6864150    0.1595960  
C    -3.8641940    0.1439260   -1.7581170  
C    -3.2753610   -0.7102480   -0.8475500  
C    -4.3649300   -1.3726320   -0.1545360  
C    -5.5748440   -0.8741890   -0.7017460  
N    -5.2351490    0.0486170   -1.6716100  
C    -6.8362690   -1.2830840   -0.2522360  
C    -6.8788230   -2.2122590    0.7750640  
O    -8.0795470   -2.6466210    1.2474690  
C    -5.6775180   -2.7128930    1.3486230  
O    -5.8874200   -3.6189240    2.3667830  
C    -4.4336290   -2.3066000    0.9035690  
H    -5.8901980    0.5448580   -2.2557980  
H    -7.7628440   -0.9010440   -0.6681810  
H    -7.8995060   -3.2727180    1.9702720  
H    -5.0384710   -3.8857900    2.7498970  
H    -3.5299550   -2.6927530    1.3685040  
H    -3.3972620    0.7896220   -2.4881220  
