60


C     1.0699520   -0.6137960   -0.8029170  
C     0.5620620    0.6095910   -0.3960210  
C     1.7058130    1.3780070    0.0665910  
C     2.8438290    0.5464820   -0.0574410  
N     2.4216510   -0.6562780   -0.5901160  
C     4.1563360    0.9460160    0.2983180  
C     4.2779610    2.2682520    0.7493360  
O     5.5015520    2.7790580    1.0772390  
C     3.1456540    3.1047930    0.8952580  
O     3.4533630    4.3588700    1.3790710  
C     1.8716240    2.6779060    0.5801000  
H     3.0473780   -1.3627800   -0.9495440  
H     5.3626330    3.7050180    1.3497330  
H     2.6835270    4.9422820    1.2997810  
H     1.0277240    3.3509700    0.6748350  
H     0.5612370   -1.4407000   -1.2768280  
C    -3.0890370   -1.7258690    0.4615570  
C    -1.8210690   -1.2713790    0.3680310  
C    -1.8618830    0.0752960   -0.1678600  
C    -3.2901230    0.3878800   -0.3808290  
N    -4.0070580   -0.7493680    0.0232070  
C    -3.7596780    1.5503000   -0.9082390  
C    -2.7943400    2.5936670   -1.2115260  
O    -3.1044710    3.6861190   -1.6600820  
C    -1.2728100    2.3133390   -0.9338110  
O    -0.4863840    3.2230290   -1.1305850  
C    -0.8536500    0.9641690   -0.4618010  
H    -0.9360450   -1.8015320    0.6847530  
H    -4.8012150    1.7379020   -1.1374710  
H    -3.4685800   -2.6593030    0.8512140  
C    -5.3775660   -0.9492760    0.0231930  
C    -6.0648070   -2.1223520   -0.1195140  
C    -7.4650900   -1.8210940    0.0359670  
C    -7.5488230   -0.3614410    0.2820560  
N    -6.2455420    0.1304350    0.2089990  
C    -8.6954550    0.3118410    0.5283740  
C    -9.9537020   -0.4402590    0.5248280  
O   -11.0343350    0.0848370    0.7359810  
C    -9.8949020   -1.9819610    0.2242470  
O   -10.9375340   -2.6185050    0.2089080  
C    -8.5867020   -2.5912830   -0.0104990  
H    -5.6409820   -3.0840390   -0.3685460  
H    -8.7370590    1.3807540    0.7140790  
H    -8.5560010   -3.6599310   -0.1993710  
H    -5.9585070    0.9799840    0.6753320  
C     5.2923680    0.0368670    0.1947340  
C     5.3168460   -1.3404150    0.2334860  
C     6.6833000   -1.7692270    0.0916630  
C     7.4873580   -0.5286510   -0.0391720  
N     6.5899500    0.5169730    0.0084830  
C     8.8372050   -0.5020300   -0.1771520  
C     9.5576710   -1.7721070   -0.2028590  
O    10.7714710   -1.8461750   -0.3215760  
C     8.7246360   -3.1006270   -0.0719640  
O     9.3134100   -4.1716520   -0.0965630  
C     7.2736040   -2.9967690    0.0731310  
H     4.4805140   -1.9892580    0.4476050  
H     9.4097670    0.4156160   -0.2704650  
H     6.7102550   -3.9205450    0.1663090  
H     6.8262810    1.4933670    0.1098510  
