60


C    -1.1122530   -2.8752820    0.1176820  
C    -2.1889060   -3.7185950    0.3279630  
C    -3.3703210   -2.9287480    0.2172650  
C    -2.9589980   -1.5905070   -0.0423940  
N    -1.5815570   -1.5742300   -0.0578750  
C    -3.8581810   -0.5022420   -0.2077550  
C    -5.2080690   -0.8742630   -0.1692610  
O    -6.1966750    0.0608440   -0.3611350  
C    -5.6344820   -2.2058100    0.0924820  
O    -7.0092240   -2.3386900    0.1163830  
C    -4.7434740   -3.2326360    0.3059520  
H    -2.1344830   -4.7730950    0.5613610  
H    -1.1277530   -0.9128600   -0.6857800  
H    -7.0398540   -0.4288190   -0.4036990  
H    -7.2508100   -3.2769000    0.1055500  
H    -5.0891610   -4.2406920    0.5205470  
C     0.2985710   -3.1296920    0.0755050  
C     1.0199290   -4.2961820    0.0300720  
C     2.4146910   -3.9565690    0.0053880  
C     2.4810930   -2.4784860    0.0213690  
N     1.1856220   -2.0344280    0.0260930  
C     3.6351990   -1.7255650    0.0495930  
C     4.8901410   -2.4922610    0.1683570  
O     5.9805890   -1.9749790    0.3812020  
C     4.8472790   -4.0567990    0.0249790  
O     5.9106150   -4.6577130   -0.0141310  
C     3.5506160   -4.7133360   -0.0278410  
H     0.6099000   -5.2948380   -0.0088140  
H     3.5329180   -5.7975010   -0.0750410  
H     0.9415160   -1.1022750    0.3357840  
C     3.6330890   -0.2724250    0.0212710  
C     2.6607900    0.6157370   -0.4011620  
C     3.1728670    1.9486870   -0.2231100  
C     4.5367450    1.7928510    0.3425300  
N     4.7447970    0.4391220    0.4745320  
C     5.3610420    2.8283410    0.6483990  
C     4.8813920    4.1863590    0.4199770  
O     5.5477540    5.1813120    0.6684480  
C     3.4332370    4.3734220   -0.1690080  
O     3.0116960    5.5085230   -0.3433190  
C     2.6453290    3.1802510   -0.4758150  
H     1.7280800    0.3810880   -0.8934330  
H     6.3578950    2.6948800    1.0568890  
H     1.6550670    3.3187940   -0.9004760  
H     5.6140440   -0.0349060    0.6894470  
C    -5.3140390    3.2760810    1.6142160  
C    -4.3896590    4.1431210    1.1386690  
C    -3.4874470    3.3834630    0.3000970  
C    -3.9745880    1.9741140    0.3313580  
N    -5.0548290    1.9724320    1.1805110  
C    -3.4004670    0.9082770   -0.3368900  
C    -2.2284920    1.2576550   -1.1463450  
O    -1.5939290    0.4507500   -1.8248770  
C    -1.6697330    2.7305050   -1.1454520  
O    -0.6291510    2.9374640   -1.7491200  
C    -2.3860860    3.7537850   -0.4004030  
H    -4.3196830    5.2000360    1.3500710  
H    -2.0001130    4.7680450   -0.4127210  
H    -6.1581810    3.4593800    2.2659430  
H    -5.7718990    1.2597950    1.0977850  
