60


C     1.8768360   -0.4194700    0.3163270  
C     1.2759250    0.8001910    0.0743710  
C     2.2999190    1.6637660   -0.4826620  
C     3.4889060    0.9005410   -0.5469970  
N     3.2096600   -0.3726310   -0.0273330  
C     4.6709970    1.3932720   -1.1141100  
C     4.6578270    2.6948090   -1.5994350  
O     5.7842070    3.2164170   -2.1543760  
C     3.4757140    3.4762150   -1.5373280  
O     3.6157800    4.7389600   -2.0670470  
C     2.3030720    2.9729640   -0.9989210  
H     5.5644800    0.7923570   -1.2362850  
H     5.5626360    4.1023630   -2.4914580  
H     2.7488440    5.1635510   -2.1526850  
H     1.3964240    3.5725280   -1.0148970  
H     1.4568420   -1.3171950    0.7408010  
C    -0.1018530    1.1096970    0.3552510  
C    -1.2063460    0.2879670    0.3983070  
C    -2.3425930    1.0840160    0.7521660  
C    -1.8428980    2.4653220    0.9347270  
N    -0.4908070    2.4297620    0.6268600  
C    -2.6000610    3.5243990    1.3109060  
C    -4.0256220    3.3086420    1.5341210  
O    -4.7967260    4.2048620    1.8363610  
C    -4.5963070    1.8528460    1.3667660  
O    -5.7687830    1.6473700    1.6327360  
C    -3.6744450    0.7920080    0.9250700  
H    -1.2171680   -0.7565610    0.1235170  
H    -2.2067210    4.5287350    1.4333380  
H     0.1610380    3.1271940    0.9563600  
C    -3.6845590   -1.6173950    1.5677510  
C    -4.3513850   -2.7600700    1.2729840  
C    -5.3357070   -2.4359510    0.2632980  
C    -5.1871720   -0.9847290   -0.0071580  
N    -4.1571730   -0.5308630    0.8206720  
C    -5.9124980   -0.3061320   -0.9289170  
C    -6.9219220   -1.0357870   -1.6943550  
O    -7.6123400   -0.5080170   -2.5528780  
C    -7.1136750   -2.5687320   -1.4034410  
O    -7.9588720   -3.1902840   -2.0291490  
C    -6.2536970   -3.1911490   -0.3955530  
H    -4.1869620   -3.7311500    1.7173410  
H    -5.7959950    0.7541470   -1.1200030  
H    -6.3758540   -4.2547700   -0.2142670  
H    -2.8895760   -1.4486310    2.2817270  
C     7.2011090   -0.5453940    1.7462070  
C     7.4786200   -1.8497640    1.5017230  
C     6.3232450   -2.4228080    0.8414040  
C     5.3405380   -1.3182790    0.7137340  
N     5.9194110   -0.2168180    1.3007670  
C     4.1148690   -1.4481080    0.1190040  
C     3.7192630   -2.7848970   -0.3551370  
O     2.6173960   -3.0226120   -0.8203190  
C     4.7614900   -3.9575900   -0.2269020  
O     4.4416830   -5.0568700   -0.6461470  
C     6.0523550   -3.6793150    0.3983910  
H     8.3865210   -2.3743160    1.7606180  
H     6.7580370   -4.4988690    0.4882820  
H     7.8090900    0.2110740    2.2239900  
H     5.5422680    0.7182620    1.2538580  
