58


C    -3.4954260   -0.1217490    0.0567090  
C    -3.8685500    1.2075100    0.2273370  
C    -5.2950170    1.2769710    0.2196160  
C    -5.7755290   -0.1144660    0.0338050  
N    -4.6498250   -0.8964960   -0.0648180  
C    -7.0854840   -0.4681970   -0.0194220  
C    -8.0960670    0.5773940    0.1107870  
O    -9.2966860    0.3522110    0.0737700  
C    -7.6101450    2.0597360    0.3088160  
O    -8.4444810    2.9478560    0.4189800  
C    -6.1732640    2.3167310    0.3530630  
H    -3.2108220    2.0393480    0.4179500  
H    -7.4197950   -1.4922580   -0.1528420  
H    -5.8483000    3.3434870    0.4930290  
H    -4.5945260   -1.9086440   -0.0944270  
C     0.6656400    1.5036530   -0.4526730  
C    -0.7173050    1.3246820   -0.3967140  
C    -0.9878190   -0.0339830   -0.1270050  
C     0.3349970   -0.7047840   -0.0942410  
N     1.2804870    0.2780680   -0.2923720  
C     0.5482220   -2.0549740    0.0433220  
C    -0.6639810   -2.8043680    0.4646070  
O    -0.6132080   -3.8725640    1.0437670  
C    -2.0699340   -2.1873420    0.2101960  
O    -3.0107530   -2.9788990    0.1839980  
C    -2.1911450   -0.7376100    0.0463500  
H    -1.4357340    2.1152620   -0.5316130  
H     2.2611340    0.0870120   -0.0695590  
C     0.9459610    3.9002560   -1.1870190  
C     1.3962330    2.7193220   -0.6349640  
C     2.7967640    3.0089930   -0.2741210  
C     2.9996740    4.4157440   -0.7123520  
N     1.9025570    4.9165030   -1.2392570  
C     4.2473970    5.0923970   -0.5251010  
C     5.2511450    4.4147010    0.0923000  
O     6.4658810    4.9269900    0.3259550  
C     5.0654330    3.0054930    0.5781940  
O     6.0170600    2.4510670    1.1296060  
C     3.7643480    2.3380930    0.3800110  
H     4.3671390    6.1158080   -0.8624050  
H     6.9728430    4.2229490    0.7862430  
H     3.6604050    1.3375170    0.7842750  
H    -0.0402070    4.0908030   -1.5946430  
C     4.8676760   -1.1845410    1.0534200  
C     5.4071300   -2.4097260    0.8846490  
C     4.3259060   -3.2440840    0.3803920  
C     3.1284280   -2.3356190    0.3427230  
N     3.4741640   -1.1328120    0.7187540  
C     1.8119750   -2.8001900   -0.0812700  
C     1.8058260   -4.0611940   -0.6348950  
O     0.7401100   -4.5950430   -1.2283570  
C     2.9990040   -4.9770370   -0.6386690  
O     2.8552790   -6.0923780   -1.1349680  
C     4.2731170   -4.5091490   -0.0746000  
H     6.4287430   -2.7188810    1.0544450  
H     1.0008610   -5.5100110   -1.4819810  
H     5.1145750   -5.1946260   -0.0897130  
H     5.3551230   -0.2745090    1.3835820  
