62


C    -0.8418710   -0.2332800    1.7078260  
C    -2.1918520   -0.3952700    1.5558720  
C    -2.4972560   -0.2050860    0.1601080  
C    -1.2662600    0.0588780   -0.4908050  
N    -0.2610470    0.0516660    0.4758910  
C    -1.1509830    0.2180890   -1.8753770  
C    -2.3156070    0.0925520   -2.6149390  
O    -2.2821200    0.2102980   -3.9670110  
C    -3.5703930   -0.1624460   -1.9932130  
O    -4.6150440   -0.2301470   -2.8785350  
C    -3.7005140   -0.2796620   -0.6057660  
H    -2.8823210   -0.6548340    2.3455200  
H    -0.2056280    0.3999490   -2.3737290  
H    -3.1977310    0.0492340   -4.2679170  
H    -5.1986910   -0.9708350   -2.5827260  
H    -0.2215520   -0.2857460    2.5911720  
C     2.1029740   -0.6600370    0.4702140  
C     1.1124990    0.2456060    0.2489320  
C     1.7446190    1.4793540   -0.1960220  
C     3.1988240    1.1941280   -0.2230330  
N     3.3618620   -0.1133220    0.2036370  
C     4.1455090    2.0976050   -0.6070700  
C     3.7106740    3.4367740   -1.0025830  
O     4.4834480    4.3026470   -1.3806380  
C     2.1753180    3.7661270   -0.9337130  
O     1.7956520    4.8918840   -1.2083180  
C     1.2502510    2.6948970   -0.5381510  
H     5.1973270    1.8467730   -0.7111300  
H     0.1878840    2.9165410   -0.5341700  
H     2.0297100   -1.6808360    0.8189760  
C     4.9648370   -3.9179970   -1.4185670  
C     4.1765960   -2.8223790   -1.1796720  
C     4.8723430   -2.0111840   -0.2207350  
C     6.0929540   -2.6717090    0.0845040  
N     6.1162820   -3.8327150   -0.6588280  
C     7.0437370   -2.1505400    0.9695060  
C     6.7578940   -0.9330670    1.5690030  
O     7.6450830   -0.3747390    2.4357770  
C     5.5361420   -0.2566470    1.3092540  
O     5.3512490    0.8991000    2.0407590  
C     4.5975150   -0.7875350    0.4272230  
H     3.2226630   -2.6155020   -1.6435070  
H     6.8697710   -4.5023610   -0.6660970  
H     7.9813270   -2.6504420    1.1889090  
H     7.2584260    0.4724400    2.7237780  
H     4.9190730    1.5815360    1.4950680  
H     4.8027410   -4.7597760   -2.0766160  
C    -5.4450960    1.8781270    2.7912030  
C    -6.6116240    1.2019320    2.9451630  
C    -6.6560610    0.1869140    1.9136180  
C    -5.3942800    0.3250340    1.1409630  
N    -4.7186160    1.3748100    1.7161870  
C    -5.0142330   -0.4450090    0.0637210  
C    -6.0243950   -1.4000110   -0.3899270  
O    -5.9473960   -2.0277370   -1.4481130  
C    -7.3161390   -1.6487770    0.4752220  
O    -8.0578360   -2.5619260    0.1520170  
C    -7.5767440   -0.7637910    1.6047290  
H    -7.3746820    1.3914670    3.6856710  
H    -8.4904500   -0.9129030    2.1709450  
H    -5.0510510    2.7098470    3.3600550  
H    -3.7767380    1.6377910    1.4651400  
