62


C    -1.2282370    1.1127630    1.3575550  
C    -2.5732960    0.9022340    1.2189870  
C    -2.7636700    0.0774160    0.0572020  
C    -1.4735470   -0.1912430   -0.4667920  
N    -0.5408040    0.4621180    0.3354470  
C    -1.2548280   -1.0355330   -1.5582150  
C    -2.3718850   -1.6330320   -2.1196100  
O    -2.2357530   -2.4796310   -3.1746620  
C    -3.6791540   -1.3889560   -1.6184030  
O    -4.6659260   -2.0483750   -2.3114360  
C    -3.9124350   -0.5079560   -0.5565070  
H    -3.3395470    1.3025000    1.8664980  
H    -0.2679120   -1.2399560   -1.9550970  
H    -3.1371730   -2.8022600   -3.3684630  
H    -5.2982440   -2.3996910   -1.6420590  
H    -0.6822550    1.7109100    2.0735870  
C     2.3634390   -0.9371500    3.2367820  
C     3.4926240   -0.6914250    2.4986530  
C     3.0706990   -0.1627030    1.2312830  
C     1.6530850   -0.0990960    1.2796280  
N     1.2494890   -0.5816380    2.5037820  
C     0.8684990    0.3993490    0.2273270  
C     1.5503750    0.8693260   -0.8952830  
O     0.8627040    1.3917690   -1.9408410  
C     2.9661450    0.8230070   -0.9645980  
O     3.4634780    1.3094620   -2.1541640  
C     3.7548840    0.2880790    0.0615870  
H     4.5061410   -0.8762710    2.8214910  
H     0.2875930   -0.6772230    2.7926290  
H     1.5422000    1.6664460   -2.5875260  
H     4.2067900    1.9091140   -1.9300720  
H     2.2593870   -1.3407210    4.2338530  
C     6.6977330   -2.9995430    0.8085710  
C     5.5341700   -2.3356190    0.6208170  
C     5.9211910   -0.9674280    0.2766390  
C     7.4094150   -1.0030130    0.3082010  
N     7.8617380   -2.1819910    0.6273940  
C     8.2072670    0.1603840    0.0122640  
C     7.5558090    1.2886070   -0.3459260  
O     8.1728050    2.4372470   -0.6835330  
C     6.0619900    1.3320290   -0.4488530  
O     5.5790580    2.3842730   -0.8913730  
C     5.2240750    0.1634000   -0.0355290  
H     4.5269220   -2.7180190    0.6884380  
H     9.2891430    0.1063100    0.0581780  
H     7.4599010    3.0606160   -0.9359320  
H     6.8380680   -4.0430670    1.0629730  
C    -5.9156680    3.3755100    0.2029940  
C    -5.0621490    2.3921370   -0.1841510  
C    -5.6877140    1.1256820    0.1252430  
C    -7.0011330    1.4593780    0.7313190  
N    -7.0657490    2.8370130    0.7722810  
C    -7.9154560    0.5523710    1.1647450  
C    -7.5974720   -0.8511240    0.9870010  
O    -8.3085850   -1.7668690    1.3707560  
C    -6.2693870   -1.2179500    0.2230980  
O    -6.1457330   -2.3930290   -0.1184010  
C    -5.2713420   -0.1740120   -0.0724360  
H    -4.0967300    2.5260330   -0.6456810  
H    -8.8482380    0.8197940    1.6505060  
H    -5.8076730    4.4489840    0.1219220  
H    -7.8716350    3.3638770    1.0701190  
