58


C     0.2642360    1.2384920   -0.4900110  
C     0.2382700    2.6043430   -0.5420970  
C     1.5906370    3.0772200   -0.3970030  
C     2.4384700    1.8746030   -0.2654130  
N     1.5976870    0.7882360   -0.3845200  
C     3.7977450    1.8801940   -0.0397660  
C     4.4074320    3.2150330    0.1460680  
O     5.5625640    3.3824820    0.5134880  
C     3.5456310    4.4981240   -0.1305020  
O     4.1029520    5.5826410   -0.1118160  
C     2.1159860    4.3342820   -0.3688160  
H    -0.6361560    3.2171180   -0.7070850  
H     1.5146370    5.2284570   -0.4974420  
H     1.8386760   -0.1052820    0.0297740  
C    -0.8177670    0.2911520   -0.5746630  
C    -2.1403880    0.4685910   -0.2687680  
C    -2.8260900   -0.7732750   -0.5044680  
C    -1.7908740   -1.7216180   -0.9772980  
N    -0.5769340   -1.0415820   -0.9461920  
C    -2.0210220   -3.0007970   -1.3560160  
C    -3.3827310   -3.5088140   -1.2502210  
O    -3.7015690   -4.6411280   -1.5688040  
C    -4.4927790   -2.5566780   -0.6694980  
O    -5.6160960   -3.0064680   -0.5400590  
C    -4.1373800   -1.1504770   -0.3254200  
H    -2.5721120    1.3748500    0.1251530  
H    -1.2449400   -3.6721550   -1.7098650  
H     0.1809010   -1.2945940   -1.5666710  
C     4.5981940    0.6715690    0.0532060  
C     4.3194160   -0.6132610   -0.3780910  
C     5.4543650   -1.4403000   -0.0708720  
C     6.4429060   -0.5502060    0.5866130  
N     5.8597050    0.6978450    0.6401740  
C     7.6622370   -0.9536440    1.0242250  
C     8.0367950   -2.3544070    0.8434730  
O     9.1107730   -2.8084480    1.2064890  
C     7.0034780   -3.3161170    0.1492290  
O     7.2995850   -4.4908700   -0.0091700  
C     5.7197700   -2.7604620   -0.2807260  
H     3.4639660   -0.9280260   -0.9560980  
H     8.3744380   -0.2882070    1.5017860  
H     5.0161460   -3.4337030   -0.7614590  
H     6.2969330    1.5711670    0.9086680  
C    -7.3030030   -1.2653710    2.8445760  
C    -6.2564510   -1.6192630    2.0644350  
C    -6.0972880   -0.5246620    1.1130540  
C    -7.1828050    0.4374430    1.4939810  
N    -7.8782210    0.0039870    2.5030650  
C    -7.3749680    1.6834390    0.8006250  
C    -6.5208760    1.9785370   -0.2046670  
O    -6.5839150    3.1025800   -0.9392540  
C    -5.3967060    1.0579700   -0.5913840  
O    -4.6683030    1.4299680   -1.5107380  
C    -5.2029940   -0.2434490    0.1244620  
H    -5.6732060   -2.5260340    2.1079490  
H    -8.1814720    2.3479660    1.0896940  
H    -5.8530110    3.0333290   -1.5905960  
H    -7.7370650   -1.8194820    3.6679250  
