62


C    -0.5952040   -0.0428880   -0.4310390  
C    -0.4527180   -1.3203030   -0.9457230  
C    -1.7495830   -1.9188410   -0.9799240  
C    -2.6671940   -0.9588470   -0.4734740  
N    -1.9361420    0.1443490   -0.1196690  
C    -4.0635500   -1.1705270   -0.3974070  
C    -4.5046740   -2.4235860   -0.8443200  
O    -5.8371350   -2.7221500   -0.8581750  
C    -3.5962240   -3.4010590   -1.3295330  
O    -4.2129280   -4.5780880   -1.7217470  
C    -2.2381670   -3.1694140   -1.4069890  
H     0.4645320   -1.7507430   -1.3198070  
H    -2.3112500    1.0071740    0.2401170  
H    -5.9233980   -3.5896980   -1.2926740  
H    -3.5886800   -5.1135820   -2.2333160  
H    -1.5670070   -3.9338410   -1.7928020  
C     3.8305560   -0.0205040    0.4042760  
C     2.5059370   -0.3873350    0.2041970  
C     1.7504220    0.7939830   -0.0383010  
C     2.6610070    1.8876300    0.0400290  
N     3.9182620    1.3648890    0.2616840  
C     2.2674580    3.2200770   -0.0797900  
C     0.9156690    3.4545810   -0.2988100  
O     0.4655940    4.7271150   -0.4349140  
C    -0.0128530    2.3848450   -0.4053900  
O    -1.3224800    2.8202600   -0.5915700  
C     0.3682150    1.0449890   -0.2836510  
H     2.1401590   -1.4028600    0.2137850  
H     4.7028190    1.9093950    0.5868870  
H     2.9592600    4.0531410   -0.0163990  
H    -0.4934660    4.6597380   -0.6055170  
H    -1.7834740    2.3138430   -1.2851890  
C     5.0241120   -2.0794420    1.2669190  
C     4.9761300   -0.8337670    0.6980540  
C     6.4013550   -0.5145650    0.4158250  
C     7.1426510   -1.6984090    0.9132280  
N     6.3254330   -2.6028960    1.3953950  
C     8.5727860   -1.7839630    0.8193300  
C     9.2396250   -0.7569300    0.2330220  
O    10.5786310   -0.7129540    0.0846040  
C     8.5207540    0.4306680   -0.3117840  
O     9.1829240    1.3300400   -0.8354030  
C     7.0453090    0.4947010   -0.2019720  
H     9.0884770   -2.6579710    1.2020920  
H    10.7577810    0.1366860   -0.3734690  
H     6.5647030    1.3611460   -0.6462890  
H     4.1874100   -2.6630810    1.6307610  
C    -7.3616710   -1.1455940    2.5887380  
C    -6.2988550   -1.4780090    1.8122840  
C    -5.9871650   -0.3331120    0.9874660  
C    -6.9708130    0.7155850    1.3596500  
N    -7.7834470    0.1540050    2.3220630  
C    -7.0172320    1.9662000    0.8320000  
C    -6.0193500    2.3140320   -0.1621120  
O    -5.9556630    3.4060970   -0.7060920  
C    -4.9392070    1.2315390   -0.5525640  
O    -4.0685150    1.5777320   -1.3413060  
C    -5.0078100   -0.1221940    0.0455470  
H    -5.7876090   -2.4268560    1.7988910  
H    -7.7546990    2.7112530    1.1132990  
H    -7.8794200   -1.7359320    3.3331130  
H    -8.5266090    0.6380960    2.8003300  
