60


C    -1.0919890    1.5450930    0.3676930  
C    -1.9381950    0.5897120   -0.1364300  
C    -3.2576430    0.9244140    0.3187240  
C    -3.1471830    2.1155990    1.0821820  
N    -1.8129440    2.4803340    1.0937770  
C    -4.2465960    2.7566040    1.6619630  
C    -5.4893170    2.1749480    1.4685010  
O    -6.5941400    2.7392970    2.0259120  
C    -5.6271100    0.9898410    0.6983470  
O    -6.9275410    0.5419970    0.5982810  
C    -4.5383410    0.3451010    0.1143290  
H    -1.6515060   -0.2283170   -0.7806640  
H    -1.4053540    3.1995900    1.6722900  
H    -4.1613230    3.6650650    2.2485750  
H    -7.3514200    2.1654700    1.8145090  
H    -6.9127030   -0.3813930    0.2928660  
C     1.1866700    0.6002880    0.4885600  
C     2.4811250    0.9478110    0.2105170  
C     2.4510530    2.3394480   -0.2355200  
C     1.0272570    2.7484890   -0.2129270  
N     0.3040320    1.6463150    0.2618600  
C     0.5679330    3.9642410   -0.5949300  
C     1.5400450    4.9654000   -1.0402940  
O     1.2154370    6.0799930   -1.4142890  
C     3.0594090    4.5757100   -1.0199340  
O     3.8906690    5.4019390   -1.3566100  
C     3.4231120    3.2166700   -0.5984320  
H    -0.4824080    4.2339750   -0.5924820  
H     4.4795030    2.9705250   -0.5803950  
H     0.7981890   -0.3477810    0.8356110  
C     3.6312540    0.0802150    0.3558740  
C     3.8235140   -0.9797470    1.2020920  
C     5.1198520   -1.5441730    0.9286230  
C     5.6981560   -0.7282260   -0.1666720  
N     4.7765360    0.2747240   -0.4346310  
C     6.8964270   -0.9678470   -0.7515760  
C     7.6981230   -2.0867380   -0.2559590  
O     8.7897180   -2.3756430   -0.7203900  
C     7.1240040   -2.9404240    0.9337680  
O     7.7893220   -3.8695570    1.3665640  
C     5.8074830   -2.5899250    1.4656240  
H     3.1445630   -1.2993370    1.9799650  
H     7.3005420   -0.3656040   -1.5596520  
H     5.4119160   -3.1984870    2.2730880  
H     4.7539280    0.7721470   -1.3132240  
C    -5.5655530   -1.0795040   -1.7314460  
C    -4.7264580   -0.8932220   -0.6662780  
C    -4.0420230   -2.1712110   -0.4638210  
C    -4.5526230   -3.0953270   -1.5054300  
N    -5.4784860   -2.3701130   -2.2329500  
C    -4.1546490   -4.3838900   -1.6529480  
C    -3.1546150   -4.9115380   -0.7264900  
O    -2.7345640   -6.0561860   -0.7806530  
C    -2.6024790   -3.9506330    0.3889290  
O    -1.7536090   -4.3631550    1.1626420  
C    -3.1258070   -2.5807540    0.4509810  
H    -4.5434810   -5.0465200   -2.4199960  
H    -2.7474950   -1.9283820    1.2308600  
H    -6.2219890   -0.3595490   -2.2037390  
H    -5.9862910   -2.7182540   -3.0313820  
