58


C     3.0179170   -2.1417280   -1.6006300  
C     3.2636390   -1.2231540   -0.6016250  
C     4.5848190   -1.5710230   -0.0512560  
C     5.0452830   -2.7583450   -0.8125140  
N     4.0450460   -3.0367250   -1.7342640  
C     6.2132580   -3.4159810   -0.6180140  
C     7.1034330   -2.9435850    0.4411220  
O     8.1764190   -3.4664660    0.6924880  
C     6.6293080   -1.7127840    1.2892100  
O     7.3330760   -1.3146250    2.2012460  
C     5.3437330   -1.0752600    0.9575960  
H     6.5149990   -4.2822360   -1.1987120  
H     5.0616440   -0.2015620    1.5299590  
H     2.1664260   -2.1835620   -2.2663840  
H     4.1107200   -3.7397330   -2.4557180  
C    -1.1864430   -1.0576760   -0.2634140  
C     0.1077350   -1.5126380   -0.3966510  
C     0.9514380   -0.3526850   -0.3038060  
C     0.0103890    0.7823820   -0.1353940  
N    -1.2219660    0.3553170   -0.1139670  
C     0.4469140    2.1684740    0.0045140  
C     1.7976990    2.3054610    0.2307580  
O     2.3648890    3.4636630    0.5877880  
C     2.7760310    1.1910290    0.1013860  
O     3.9658980    1.4620610    0.2892110  
C     2.3155790   -0.1811800   -0.2625620  
H     0.4306520   -2.5423360   -0.4558700  
H     3.3323050    3.2938060    0.6090610  
C    -2.4125310   -1.8000030   -0.2082310  
C    -2.6180160   -3.1400720   -0.4438680  
C    -4.0221600   -3.3640120   -0.2375030  
C    -4.5596430   -2.0123230    0.1352540  
N    -3.6251820   -1.1077880    0.1504310  
C    -5.9552980   -1.8152070    0.4304930  
C    -6.7715310   -2.8928150    0.3564040  
O    -8.0869530   -2.8603120    0.6006170  
C    -6.2588180   -4.2678020   -0.0191360  
O    -7.0865480   -5.1795850   -0.0563430  
C    -4.8369570   -4.4473100   -0.3125020  
H    -1.8860800   -3.8795730   -0.7378080  
H    -6.3236510   -0.8309530    0.6970870  
H    -8.3967490   -3.7851570    0.4664100  
H    -4.5034450   -5.4466060   -0.5744990  
C    -3.8234040    3.0567990    1.1309570  
C    -3.8228120    4.3946330    0.8866870  
C    -2.5235260    4.7229940    0.3505550  
C    -1.7489470    3.4480740    0.3364090  
N    -2.5923180    2.4907480    0.8422630  
C    -0.4331310    3.3402560   -0.0755010  
C     0.0873240    4.5445810   -0.7858240  
O     1.0375370    4.5001310   -1.5460030  
C    -0.6499790    5.9163710   -0.6253410  
O    -0.0786900    6.9325570   -0.9905460  
C    -1.9957290    5.9045460   -0.0716560  
H    -4.6391090    5.0845880    1.0432180  
H    -2.5360020    6.8444930   -0.0118660  
H    -4.6191710    2.4248880    1.5025670  
H    -2.4100730    1.4935570    0.6581280  
