58


C    -1.2356870    0.9356940    1.3702260  
C    -2.5785670    0.8291170    1.2242710  
C    -2.8266990    0.0023850    0.0617590  
C    -1.4955710   -0.3713010   -0.4672290  
N    -0.5512170    0.2347600    0.3681550  
C    -1.2884490   -1.2086280   -1.5124520  
C    -2.4532920   -1.7684650   -2.1886650  
O    -2.3694040   -2.5625880   -3.1121210  
C    -3.8774440   -1.3265840   -1.7021530  
O    -4.8513860   -1.6779140   -2.3422360  
C    -3.9854770   -0.4530800   -0.5042980  
H    -3.3271060    1.2825820    1.8562240  
H    -0.3048740   -1.4905980   -1.8695710  
H    -0.6630600    1.4793970    2.1094740  
C     2.5732930   -0.9728780    3.1826360  
C     1.3778300   -0.7516690    2.5719930  
C     1.6615720   -0.2354580    1.2523350  
C     3.1336060   -0.1747510    1.1364870  
N     3.6270220   -0.6556800    2.3376970  
C     3.8353000    0.2659650    0.0488430  
C     3.0341610    0.6826910   -1.1200210  
O     3.5261270    0.9425550   -2.2019800  
C     1.4684600    0.7320320   -0.9930400  
O     0.8215600    1.2341980   -1.8931080  
C     0.8482380    0.1800320    0.2302770  
H     0.4010420   -0.9466460    2.9883940  
H     2.7742780   -1.3576380    4.1737140  
H     4.6004740   -0.6225040    2.5997610  
C     6.9455130   -2.8538250    0.3885720  
C     8.0509320   -2.0867500    0.2211810  
C     7.6071470   -0.7176150    0.0492630  
C     6.1277710   -0.7525770    0.1378710  
N     5.7880900   -2.0715020    0.3927250  
C     5.3040640    0.3261090   -0.0208930  
C     5.9594580    1.6335600   -0.2544630  
O     5.3344530    2.6771470   -0.3070620  
C     7.5258650    1.6830590   -0.3706740  
O     8.0611660    2.7540880   -0.6047570  
C     8.2777820    0.4417860   -0.1833110  
H     9.0754670   -2.4292470    0.2127540  
H     9.3594700    0.4892420   -0.2625720  
H     6.8664920   -3.9238080    0.5292210  
H     4.8564230   -2.4367060    0.2572530  
C    -6.2199170    3.3768230   -0.0389170  
C    -5.2705510    2.4397630   -0.2933550  
C    -5.8281990    1.1513590    0.0648330  
C    -7.2044580    1.4214180    0.5502710  
N    -7.3687990    2.7920130    0.4838250  
C    -8.0913620    0.4724890    0.9466240  
C    -7.6704570   -0.9208240    0.9066950  
O    -8.3969240   -1.8508670    1.2215050  
C    -6.1996710   -1.2362210    0.4527860  
O    -5.7933130   -2.3805270    0.5447050  
C    -5.3316450   -0.1219400   -0.0091450  
H    -4.2862000    2.6198740   -0.6978480  
H    -9.1010680    0.6978100    1.2758450  
H    -6.1814310    4.4482460   -0.1851630  
H    -8.2351140    3.2738220    0.6662710  
