58


C    -3.8106670    0.2125030   -1.3588740  
C    -3.3163680   -0.8049730   -0.5765560  
C    -4.4927170   -1.5538250   -0.1029970  
C    -5.6777770   -0.8680840   -0.6739670  
N    -5.1844370    0.1839340   -1.4269310  
C    -6.9689960   -1.2286860   -0.4713130  
C    -7.2384320   -2.3735330    0.3934630  
O    -8.3647810   -2.7758580    0.6383380  
C    -6.0066780   -3.0999490    1.0402090  
O    -6.2021600   -4.0372930    1.7950970  
C    -4.6525540   -2.6212450    0.7181110  
H    -7.8113840   -0.7021870   -0.9094680  
H    -3.8209790   -3.1687660    1.1434570  
H    -3.2587760    0.9569990   -1.9157500  
H    -5.7497500    0.8036630   -1.9872940  
C     0.0707220    2.0166820   -0.0061990  
C    -1.1720240    1.4302960   -0.1159580  
C    -0.9937530    0.0088040   -0.1532090  
C     0.4542980   -0.2275690   -0.0224800  
N     1.0378790    1.0065830    0.0505810  
C     1.0797650   -1.4603530   -0.0002080  
C     0.1806320   -2.6280560   -0.0326850  
O     0.5327420   -3.7688410    0.1989410  
C    -1.3495600   -2.4008200   -0.3101480  
O    -2.0342320   -3.3832670   -0.5368380  
C    -1.9052270   -1.0242800   -0.3048700  
H    -2.0977340    1.9790480   -0.1360060  
H     2.0345650    1.1734160    0.0577260  
C    -2.4411990    5.6328320   -0.1829850  
C    -1.5216610    6.6124750   -0.0422920  
C    -0.2432070    5.9222240    0.0763370  
C    -0.5969190    4.4697890   -0.0140630  
N    -1.8776490    4.3146540   -0.1706340  
C     0.4252130    3.4190750    0.0670920  
C     1.7144790    3.8686670    0.2143820  
O     2.7877550    3.0572060    0.3025850  
C     2.0829570    5.3132150    0.2980630  
O     3.2793760    5.5826620    0.4296240  
C     1.0299000    6.3359380    0.2231510  
H    -1.6773450    7.6819070   -0.0202600  
H     3.5596680    3.6656050    0.3940150  
H     1.3366350    7.3753600    0.2880810  
H    -3.5135620    5.7299550   -0.2986050  
C     2.5130360   -1.6218930    0.0969520  
C     3.4361020   -0.8119920    0.7221770  
C     4.7205870   -1.4164560    0.4770540  
C     4.4036720   -2.6164040   -0.3647620  
N     3.1274610   -2.7380530   -0.5771240  
C     5.4422550   -3.4890720   -0.8509480  
C     6.7172740   -3.2033440   -0.4982770  
O     7.7843970   -3.9267140   -0.8660400  
C     7.0651700   -2.0106410    0.3652710  
O     8.2581210   -1.8382240    0.6250500  
C     5.9965890   -1.1283490    0.8346870  
H     3.2495940    0.0348220    1.3686610  
H     5.1880330   -4.3462890   -1.4641450  
H     8.5540210   -3.4709530   -0.4551950  
H     6.2850230   -0.2776110    1.4445420  
