60


C    -1.5602580   -2.0515470    0.0893480  
C    -2.6103660   -1.2404210    0.4549330  
C    -3.8071570   -2.0338490    0.4506030  
C    -3.3954430   -3.4024070    0.0470170  
N    -2.0367840   -3.3453970   -0.1619860  
C    -4.2472240   -4.4536580   -0.0701190  
C    -5.6627290   -4.2363950    0.2107150  
O    -6.5021040   -5.1213500    0.1311630  
C    -6.1233630   -2.7921930    0.6340920  
O    -7.3077510   -2.5928180    0.8651500  
C    -5.1100450   -1.7442850    0.7315080  
H    -2.5235560   -0.1980610    0.7113060  
H    -3.9292090   -5.4492190   -0.3640670  
H    -5.4374250   -0.7548160    1.0381940  
H    -1.4366000   -4.1291640   -0.3701240  
C     0.5015590    1.8291530    0.0138850  
C     1.8229230    1.4153640    0.0077640  
C     1.7968260   -0.0092090   -0.0243280  
C     0.3357510   -0.3524110    0.0004620  
N    -0.4030130    0.7161410    0.0172230  
C    -0.1469380   -1.7328060   -0.0249370  
C     0.8374910   -2.6739280   -0.1664080  
O     0.6131120   -3.9917770   -0.2406910  
C     2.3182100   -2.3597370   -0.1738150  
O     3.0565530   -3.3478950   -0.1625920  
C     2.7771110   -0.9707330   -0.1228850  
H     2.6995130    2.0401460   -0.0884650  
H     1.5220100   -4.3903280   -0.2751480  
C     5.3641810    1.3807830    2.5717010  
C     6.5665510    1.1512190    1.9855770  
C     6.3282770    0.3092360    0.8311520  
C     4.8657990    0.0658110    0.7936520  
N     4.3434610    0.7302110    1.8835880  
C     4.2206310   -0.7095030   -0.1338480  
C     5.0569100   -1.2716060   -1.2190540  
O     4.5823150   -1.8390940   -2.1867720  
C     6.6142160   -1.0767630   -1.1533590  
O     7.3079610   -1.6245170   -1.9950180  
C     7.1656920   -0.2384710   -0.0902210  
H     7.5263470    1.5163690    2.3205250  
H     8.2414460   -0.0940900   -0.0655320  
H     5.1292430    1.9593350    3.4553980  
H     3.3552220    0.8400230    2.0577010  
C     0.6805920    4.3267280    0.1679430  
C    -0.0477280    3.1462330   -0.0023190  
C    -1.4314690    3.5510130   -0.1969130  
C    -1.4623060    4.9617220   -0.1267980  
N    -0.1581410    5.3927870    0.0987020  
C    -2.6297730    5.7144980   -0.2808620  
C    -3.8045190    5.0160410   -0.5201730  
O    -4.9734430    5.6912390   -0.6790650  
C    -3.7937540    3.5975990   -0.6081360  
O    -5.0318010    3.0528690   -0.8602010  
C    -2.6312200    2.8629110   -0.4536730  
H     0.1224800    6.3570370    0.2029600  
H    -2.6484550    6.7979450   -0.2273410  
H    -5.6713260    5.0329530   -0.8442380  
H    -4.9615120    2.0892400   -0.9384480  
H    -2.6331660    1.7814590   -0.5372700  
H     1.7370250    4.4614090    0.3510280  
