64


C     0.7931150    0.2123060   -1.7255420  
C     2.1241090   -0.0142290   -1.4832530  
C     2.4231270    0.5599050   -0.2049740  
C     1.2152520    1.1132580    0.2895880  
N     0.2257950    0.8964350   -0.6599720  
C     1.1125910    1.7232090    1.5433850  
C     2.2570610    1.7827700    2.3222170  
O     2.2132430    2.3828860    3.5456090  
C     3.4821120    1.2402810    1.8613760  
O     4.5228360    1.4138360    2.7453350  
C     3.5964940    0.6250470    0.6030600  
H     2.8023500   -0.5354240   -2.1423450  
H     0.1875660    2.1552800    1.9064260  
H     3.1186010    2.3736130    3.9024870  
H     5.3637240    1.1719310    2.3126180  
H     0.1877280   -0.0308960   -2.5874720  
C    -3.2551430   -1.7045650   -0.4355060  
C    -4.2254930   -0.7240650   -0.3819710  
C    -3.5208420    0.5389590   -0.4278860  
C    -2.1394280    0.2424020   -0.5089890  
N    -2.0025810   -1.1274390   -0.5146870  
C    -1.1493500    1.2410920   -0.5526400  
C    -1.5715970    2.5673070   -0.5067940  
O    -0.6600110    3.5760900   -0.5575520  
C    -2.9554990    2.8703420   -0.4053600  
O    -3.2129520    4.2275460   -0.3620890  
C    -3.9241570    1.8869740   -0.3691250  
H    -1.1252430   -1.6205980   -0.5764060  
H    -1.1589170    4.4114860   -0.5235520  
H    -4.1701680    4.3746920   -0.3818170  
H    -4.9769220    2.1467110   -0.3167320  
H    -3.3680150   -2.7792520   -0.4697100  
C    -6.4251340   -3.3719320    2.3566100  
C    -7.6918240   -3.1238790    1.8955840  
C    -7.5736040   -2.1701500    0.8284550  
C    -6.1925920   -1.8802960    0.6822240  
N    -5.5160450   -2.6383410    1.6171790  
C    -5.6751850   -0.9627590   -0.2592700  
C    -6.6251120   -0.3259850   -1.0606280  
O    -6.2282860    0.5759930   -2.0127220  
C    -8.0104700   -0.6013240   -0.9265450  
O    -8.8045720    0.1204290   -1.8040510  
C    -8.4960510   -1.5110680   -0.0075850  
H    -8.6035720   -3.5688340    2.2701550  
H    -4.5308000   -2.5447510    1.8108040  
H    -7.0302250    0.8369190   -2.4988270  
H    -9.7116350   -0.2165590   -1.7655740  
H    -9.5647130   -1.6999040    0.0727910  
H    -6.0868120   -4.0237030    3.1499190  
C     4.8719170    0.1111430    0.1341580  
C     5.4066160    0.0669240   -1.1250250  
C     6.7156860   -0.5258320   -1.0569000  
C     6.9385820   -0.8562260    0.3676090  
N     5.8272010   -0.3767340    1.0782680  
C     8.0282320   -1.4987880    0.8429660  
C     9.0865980   -1.8647170   -0.1041810  
O    10.1038310   -2.4447170    0.2393890  
C     8.8972250   -1.4723600   -1.6141610  
O     9.7807840   -1.7582400   -2.4097240  
C     7.6617430   -0.7966550   -1.9998710  
H     4.9462060    0.4778640   -2.0115740  
H     8.1730900   -1.7421040    1.8914100  
H     7.5285820   -0.5508560   -3.0490060  
H     5.4857130   -0.9261580    1.8611940  
