60


C    -4.0852860   -0.0736500    0.0540550  
C    -2.7050640    0.1586540   -0.0004300  
C    -2.4975600    1.5491440   -0.1318490  
C    -3.7923770    2.1546420   -0.1312170  
N    -4.7209540    1.1544010   -0.0293780  
C    -3.9876770    3.5336800   -0.2055200  
C    -2.8498340    4.3269150   -0.2498480  
O    -2.9653970    5.6747710   -0.3151730  
C    -1.5429020    3.7617830   -0.2229860  
O    -0.5414880    4.7018370   -0.3087970  
C    -1.3300730    2.3787430   -0.1954450  
H    -1.9408920   -0.5954550    0.0808540  
H    -5.7216000    1.2401250    0.1021730  
H    -4.9709660    3.9914870   -0.2125900  
H    -2.0515340    6.0205850   -0.3195100  
H     0.1283730    4.5005650    0.3803150  
C     0.4844880   -0.7035930   -2.7636620  
C     1.7534230   -0.7660050   -2.2861210  
C     1.7989000    0.1889830   -1.1921640  
C     0.4184330    0.7545970   -1.1479240  
N    -0.3414050    0.2150170   -2.0598510  
C     0.0299670    1.8152050   -0.2142440  
C     1.0541410    2.2878180    0.5590410  
O     0.8934420    3.3175940    1.4450400  
C     2.4255270    1.7567940    0.5467510  
O     3.2497370    2.3099500    1.2971550  
C     2.7749880    0.5928010   -0.3209760  
H     2.5772590   -1.3398150   -2.6824710  
H     1.7786580    3.4343530    1.8598900  
H     0.0593340   -1.2441660   -3.6007110  
C     4.0839290   -0.0276250   -0.1951780  
C     4.4747620   -1.2933170   -0.5802450  
C     5.8496970   -1.4666580   -0.2021240  
C     6.2592900   -0.2002860    0.4542570  
N     5.1594060    0.6275710    0.4089960  
C     7.4930710    0.0249830    0.9740450  
C     8.4917830   -1.0359280    0.8812220  
O     9.6266860   -0.9254700    1.3189300  
C     8.0808930   -2.3836370    0.1812720  
O     8.9020040   -3.2831000    0.0918090  
C     6.7158800   -2.5099130   -0.3379360  
H     3.8449780   -2.0442850   -1.0304960  
H     7.7768090    0.9564420    1.4535890  
H     6.4412010   -3.4454660   -0.8158560  
H     5.0337320    1.4968740    0.9107980  
C    -3.0341140   -4.3618680   -0.6046520  
C    -3.0372320   -3.0003450   -0.6116520  
C    -4.2868960   -2.5639620   -0.0343510  
C    -5.0313770   -3.7928820    0.2966170  
N    -4.2060860   -4.8464120   -0.0412130  
C    -6.2850750   -3.8470860    0.8323530  
C    -6.9721020   -2.5985920    1.0653160  
O    -8.0922930   -2.5037810    1.5473150  
C    -6.2385750   -1.2664070    0.6559790  
O    -6.8926990   -0.2330310    0.7130500  
C    -4.8179390   -1.3063340    0.2108140  
H    -2.2652660   -2.3719780   -1.0265080  
H    -6.7861840   -4.7752560    1.0873000  
H    -2.2830360   -5.0501610   -0.9681050  
H    -4.4680550   -5.8179690    0.0176090  
