60


C     0.7167460   -1.1422040    0.1217000  
C     0.8215950   -2.4931320    0.4040340  
C     2.1960450   -2.8531990    0.2777490  
C     2.9082370   -1.6758180   -0.0826130  
N     1.9876450   -0.6540290   -0.1621070  
C     4.3062890   -1.6399410   -0.2969420  
C     4.9581700   -2.8704980   -0.1734030  
O     6.3020170   -2.9513260   -0.3951780  
C     4.2609170   -4.0560800    0.1889270  
O     5.0822750   -5.1608520    0.2798990  
C     2.9027460   -4.0652880    0.4258270  
H     0.0077890   -3.1345090    0.7126820  
H     2.1643060    0.2411630   -0.5923670  
H     6.5708550   -3.8660340   -0.1952240  
H     4.5741320   -5.9253550    0.5894180  
H     2.3912760   -4.9847950    0.7001400  
C    -0.4159260   -0.2545810    0.1555250  
C    -1.7529810   -0.5314160    0.0110320  
C    -2.4805000    0.7057950    0.1027470  
C    -1.4646750    1.7612970    0.3194140  
N    -0.2252720    1.1299260    0.2995890  
C    -1.7354990    3.0787450    0.4816460  
C    -3.1290680    3.5071850    0.4035360  
O    -3.4727560    4.6741750    0.5028690  
C    -4.2332410    2.4119710    0.1839410  
O    -5.4034980    2.7486730    0.2376570  
C    -3.8182820    1.0021020   -0.0045710  
H    -2.1687650   -1.4991680   -0.2273190  
H    -0.9685490    3.8318840    0.6342930  
H     0.5810560    1.5355030    0.7600070  
C    -5.0405490   -2.5591230    2.2887720  
C    -6.0655870   -2.9920700    1.5096310  
C    -6.1671790   -2.0831860    0.3863950  
C    -5.0973750   -1.0746500    0.5760250  
N    -4.4390720   -1.4335000    1.7393210  
C    -4.8648480   -0.0057670   -0.2410740  
C    -5.7294470    0.1082220   -1.4382020  
O    -5.5454920    0.9458290   -2.3027550  
C    -6.8897740   -0.9351480   -1.6377990  
O    -7.6334850   -0.8057190   -2.5979080  
C    -7.0220360   -2.0219490   -0.6704200  
H    -6.6953880   -3.8499990    1.6947160  
H    -7.8224510   -2.7399060   -0.8209710  
H    -4.6658270   -2.9673600    3.2183670  
H    -3.7156220   -0.8805040    2.1716990  
C     6.0766020   -0.2819100   -1.5124050  
C     5.0317600   -0.4052020   -0.6349950  
C     4.7816320    0.9373600   -0.1208580  
C     5.7295250    1.8443470   -0.8179540  
N     6.4995290    1.0310420   -1.6269740  
C     5.7883800    3.1868740   -0.6336240  
C     4.8484470    3.8059500    0.3015420  
O     4.8396600    5.0010660    0.5470870  
C     3.8057560    2.8719460    1.0097060  
O     2.8926250    3.3674500    1.6575470  
C     3.9270750    1.4289540    0.8200270  
H     6.5078480    3.8274490   -1.1342460  
H     3.2694200    0.7947460    1.4019210  
H     6.5647290   -1.0606310   -2.0802850  
H     7.2368810    1.3515520   -2.2352870  
