58


C     1.5002030    0.0653880   -0.3323390  
C     2.7744310    0.3864850    0.0544310  
C     2.7536390    1.8030600    0.4116870  
C     1.3645880    2.2630560    0.1855720  
N     0.6416060    1.1480770   -0.2628880  
C     0.9219110    3.5164140    0.4353550  
C     1.8767860    4.5033530    0.9457530  
O     1.5650900    5.6554280    1.1964230  
C     3.3543990    4.0395460    1.1950310  
O     4.1661320    4.8401600    1.6284270  
C     3.7005000    2.6426360    0.9061820  
H    -0.1017430    3.8334730    0.2734680  
H     4.7129530    2.3262040    1.1339700  
H     1.1293910   -0.8803890   -0.7043350  
C    -2.7595340   -1.1818880    1.1845690  
C    -1.5347910   -0.6150730    1.0234990  
C    -1.6253260    0.2938280   -0.0878670  
C    -3.0194710    0.2145310   -0.5828170  
N    -3.6655830   -0.7330250    0.2212860  
C    -3.5221220    0.9855190   -1.5763840  
C    -2.6271050    1.9297240   -2.2450820  
O    -3.0011610    2.6891720   -3.1220160  
C    -1.1179350    1.9678620   -1.8167530  
O    -0.3360880    2.6668640   -2.4361650  
C    -0.7133900    1.1318950   -0.6712950  
H    -0.6674240   -0.7954420    1.6407410  
H    -4.5491890    0.9395850   -1.9127840  
H    -3.0947010   -1.8857240    1.9310200  
C     3.8944020   -0.5279520    0.0686560  
C     3.9072390   -1.8891300    0.2377410  
C     5.2666980   -2.3445560    0.1215040  
C     6.0825140   -1.1324910   -0.1368890  
N     5.2050220   -0.0581310   -0.1044250  
C     7.4194060   -1.1410710   -0.3562240  
C     8.1218720   -2.4236640   -0.3078990  
O     9.3247530   -2.5264790   -0.4904890  
C     7.2837130   -3.7176670    0.0032040  
O     7.8602090   -4.7944810    0.0557750  
C     5.8436170   -3.5762300    0.2054290  
H     3.0509460   -2.5032470    0.4781040  
H     8.0003760   -0.2452330   -0.5533650  
H     5.2719930   -4.4781840    0.4023090  
H     5.4142440    0.8354540   -0.5258950  
C    -6.5598510   -1.0685870    3.4158360  
C    -7.6731900   -1.4324280    2.7416010  
C    -7.2656340   -1.5232260    1.3418430  
C    -5.8161670   -1.1604050    1.3685140  
N    -5.4081000   -0.9016990    2.5730540  
C    -5.0172710   -1.1254020    0.1518850  
C    -5.6349220   -1.4833220   -1.0097200  
O    -5.0180350   -1.5426050   -2.1985760  
C    -7.0928970   -1.8375980   -1.0531250  
O    -7.5619470   -2.1419230   -2.1474120  
C    -7.8882830   -1.8397410    0.1911760  
H    -8.6633430   -1.6169730    3.1339440  
H    -5.7133110   -1.8168780   -2.8396400  
H    -8.9363710   -2.1100200    0.1087340  
H    -6.4442450   -0.8954460    4.4783750  
