58


C     1.8707500   -0.7889270   -0.5270050  
C     3.1424090   -0.3036320   -0.5687370  
C     3.0670140    1.0850410   -0.1185390  
C     1.6431250    1.3481850    0.1950140  
N     0.9466780    0.1734710   -0.1025300  
C     1.1770650    2.5163970    0.7019940  
C     2.1214680    3.6170360    0.9002290  
O     1.7869960    4.7011960    1.3492940  
C     3.6223010    3.3815470    0.5066060  
O     4.4185920    4.2975960    0.6218800  
C     4.0096520    2.0521130    0.0159650  
H     0.1399290    2.6819190    0.9710180  
H     5.0565490    1.8880360   -0.2172740  
H     1.5121850   -1.7770170   -0.7830070  
C    -0.9778250   -1.1531370    0.7226930  
C    -0.4156330   -0.0789920    0.1084420  
C    -1.5469160    0.6886690   -0.4453440  
C    -2.7400870   -0.0978610   -0.0147680  
N    -2.3946330   -1.1637460    0.6528340  
C    -4.0903060    0.3160410   -0.3482720  
C    -4.2093800    1.4392440   -1.1141980  
O    -5.3856820    1.9607880   -1.4791710  
C    -3.0204400    2.2175770   -1.5990000  
O    -3.2283030    3.2112050   -2.2900180  
C    -1.6590740    1.7803460   -1.2219870  
H    -5.1733670    2.7470790   -2.0292520  
H    -0.8267500    2.3793410   -1.5770630  
H    -0.4699020   -1.9642300    1.2305190  
C    -5.8413040   -1.0229490    3.5595140  
C    -5.0085380   -0.4596090    2.6545000  
C    -5.5878700   -0.7772130    1.3538940  
C    -6.8169960   -1.5677090    1.6910250  
N    -6.9603860   -1.7046260    2.9766670  
C    -7.7010900   -2.0693340    0.6716420  
C    -7.3869500   -1.8050040   -0.6166640  
O    -8.1109840   -2.2182460   -1.6694870  
C    -6.1557540   -1.0240180   -0.9936390  
O    -5.9213680   -0.8895470   -2.1911350  
C    -5.2643650   -0.4756970    0.0726760  
H    -4.1000240    0.0945130    2.8365700  
H    -8.5814930   -2.6386130    0.9480090  
H    -7.6284330   -1.8960690   -2.4619390  
H    -5.7552300   -1.0123680    4.6395580  
C     4.4431200   -1.7021780   -2.2151660  
C     4.3267800   -1.0226020   -1.0365260  
C     5.5959810   -1.2014910   -0.3317180  
C     6.4472640   -2.0381700   -1.2130870  
N     5.6800840   -2.3162280   -2.3302140  
C     7.7137600   -2.4250540   -0.9201570  
C     8.2880230   -2.0101470    0.3579670  
O     9.4192380   -2.3071960    0.7073050  
C     7.3931920   -1.1510550    1.3235310  
O     7.8421090   -0.8154300    2.4067440  
C     6.0402980   -0.7862090    0.8825260  
H     8.3206190   -3.0353090   -1.5820010  
H     5.4372700   -0.1889210    1.5586750  
H     3.7181390   -1.7913770   -3.0138170  
H     6.0054700   -2.8192460   -3.1410600  
