58


C     5.0827010    0.3764590   -2.0413100  
C     4.2943440   -0.0197540   -0.9999910  
C     4.8682460   -1.2373210   -0.4488740  
C     6.0659620   -1.5192480   -1.2742080  
N     6.1397180   -0.4967370   -2.2091340  
C     6.8850970   -2.5831980   -1.0921110  
C     6.5761220   -3.5192270   -0.0090460  
O     7.2532140   -4.5059580    0.2257590  
C     5.3145110   -3.2302080    0.8846220  
O     5.0421220   -3.9965910    1.7930890  
C     4.5078720   -2.0411630    0.5840270  
H     7.7597960   -2.7781320   -1.7047880  
H     3.6454340   -1.8434290    1.2131570  
H     4.9685230    1.2369410   -2.6869690  
H     6.8653920   -0.4005280   -2.9027170  
C     1.8585380    0.0921580   -0.5496220  
C     0.9218920    0.9527200   -0.0452560  
C     1.6504800    2.1634380    0.3509280  
C     3.0757550    1.9091300    0.0363010  
N     3.1380420    0.6310330   -0.5278040  
C     4.0908730    2.7750490    0.2721240  
C     3.7772410    4.0606360    0.8921050  
O     4.6243260    4.9041480    1.1390630  
C     2.2787890    4.3487370    1.2547040  
O     1.9890990    5.4064280    1.7884950  
C     1.2718280    3.3257930    0.9383430  
H     5.1264880    2.5553720    0.0364640  
H     0.2407220    3.5567710    1.1752190  
H     1.7051250   -0.8899820   -0.9762990  
C    -1.3824180   -2.6804350    1.1068100  
C    -0.3623170   -1.8052710    0.9365280  
C    -0.9831520   -0.5861800    0.4297250  
C    -2.4351330   -0.9225090    0.3670970  
N    -2.6574060   -2.1479000    0.7547680  
C    -3.4373950    0.0290630   -0.0879600  
C    -2.9738550    1.2675110   -0.4184280  
O    -3.7744830    2.2767830   -0.7887840  
C    -1.5217890    1.6354420   -0.3744720  
O    -1.2236640    2.7776190   -0.7190940  
C    -0.4991660    0.6298610    0.0517910  
H     0.6840390   -1.9578830    1.1585060  
H    -3.1789140    3.0236450   -1.0149630  
H    -1.3323250   -3.6976090    1.4766040  
C    -6.5504920   -1.5851440    2.6792260  
C    -5.3938920   -1.1198500    2.1427700  
C    -5.6441000   -0.8436660    0.7453110  
C    -7.0703550   -1.1873090    0.5104920  
N    -7.5578720   -1.6373220    1.7203480  
C    -7.7229680   -1.0471910   -0.6718110  
C    -6.9777810   -0.5271770   -1.8073150  
O    -7.4730850   -0.3423240   -2.9085760  
C    -5.4549950   -0.1908240   -1.6054910  
O    -4.8074230    0.1521250   -2.5785380  
C    -4.8554870   -0.3385390   -0.2534750  
H    -4.4519860   -1.0055220    2.6546260  
H    -8.7725790   -1.2887850   -0.8082430  
H    -6.7573170   -1.9021730    3.6928300  
H    -8.5103450   -1.9207400    1.8868080  
