60


C     2.1648670   -1.5493230   -1.3654520  
C     3.2745660   -0.7947210   -1.0534490  
C     2.7855710    0.3786710   -0.3620420  
C     1.3761600    0.2640890   -0.2872970  
N     1.0279870   -0.9223270   -0.9013210  
C     0.5446770    1.2448070    0.2968410  
C     1.1939190    2.3704150    0.8079190  
O     0.4692510    3.3529340    1.4138360  
C     2.6048940    2.5059390    0.7285660  
O     3.0730710    3.6826000    1.2770290  
C     3.4026320    1.5353330    0.1548110  
H     0.0812160   -1.2310760   -1.0575300  
H     1.1000290    4.0287960    1.7199940  
H     4.0409080    3.6649430    1.3174940  
H     4.4800360    1.6677890    0.1015870  
H     2.1051560   -2.5096230   -1.8579990  
C    -1.5759670   -0.0048910    0.8791300  
C    -0.9168040    1.0766610    0.3783090  
C    -1.9487880    1.9968520   -0.0980440  
C    -3.2530330    1.3551760    0.1855910  
N    -2.9685870    0.1152170    0.7617590  
C    -4.4570990    1.9313930   -0.0592320  
C    -4.4820510    3.2471040   -0.6968570  
O    -5.5187010    3.8366340   -0.9590510  
C    -3.1094400    3.9173510   -1.0595190  
O    -3.1074920    5.0009390   -1.6203850  
C    -1.8748730    3.2103190   -0.6982830  
H    -5.4049030    1.4719490    0.1972470  
H    -0.9310250    3.7023550   -0.9029510  
H    -1.1703230   -0.8980540    1.3361630  
C    -3.8417360   -1.4511490    2.4717750  
C    -3.8843420   -0.8154690    1.2698890  
C    -5.0047510   -1.4400500    0.5400400  
C    -5.5376320   -2.4344550    1.5171510  
N    -4.8529750   -2.4340330    2.6288710  
C    -6.6691950   -3.2636740    1.2009680  
C    -7.2118840   -3.1553530   -0.0364450  
O    -8.2572420   -3.8791240   -0.4654320  
C    -6.6652170   -2.1969900   -1.0562660  
O    -7.1995570   -2.1610330   -2.1618790  
C    -5.5201840   -1.3276200   -0.6977260  
H    -7.0493880   -3.9621270    1.9381160  
H    -8.4239640   -3.5863560   -1.3878400  
H    -5.1745540   -0.6292600   -1.4532130  
H    -3.1378220   -1.2852610    3.2786010  
C     5.1227010   -1.5334780   -2.6111570  
C     4.6584660   -1.1249220   -1.3950840  
C     5.8147810   -1.1228260   -0.5007520  
C     6.9796970   -1.5595280   -1.3116410  
N     6.4860200   -1.8154880   -2.5740740  
C     8.2481330   -1.6683240   -0.8394570  
C     8.4970950   -1.3507740    0.5628940  
O     9.6038700   -1.4136920    1.0764650  
C     7.2732690   -0.9113250    1.4482280  
O     7.4596320   -0.6417790    2.6245680  
C     5.9504190   -0.8333190    0.8199450  
H     9.0871410   -1.9874700   -1.4503130  
H     5.1122230   -0.5361350    1.4417230  
H     4.5733430   -1.6460380   -3.5366260  
H     7.0490370   -2.0633450   -3.3724000  
