60


C    -1.2270520    1.1055140    1.2884480  
C    -2.5787680    0.9531710    1.1643320  
C    -2.8119760   -0.0536650    0.1588140  
C    -1.5393950   -0.4795650   -0.2937660  
N    -0.5716370    0.2490640    0.4033760  
C    -1.3703670   -1.5303590   -1.1994310  
C    -2.5189470   -2.1617990   -1.6473330  
O    -2.4304530   -3.2064360   -2.5113570  
C    -3.8123300   -1.7467850   -1.2253720  
O    -4.8331510   -2.4668660   -1.7892630  
C    -3.9930920   -0.6674280   -0.3545670  
H    -3.3231330    1.4843910    1.7401800  
H    -0.4001730   -1.8656520   -1.5446970  
H    -3.3485010   -3.5061320   -2.6576150  
H    -5.5150050   -2.6043170   -1.0875650  
H    -0.6505980    1.7768680    1.9078480  
C     2.6052950   -0.2768000    3.3601340  
C     1.4000410   -0.2062410    2.7361620  
C     1.6595940   -0.0012080    1.3278490  
C     3.1291120    0.0377440    1.1756900  
N     3.6415430   -0.1305270    2.4474660  
C     3.8103430    0.2157940    0.0013820  
C     2.9876410    0.3353730   -1.2151570  
O     3.4556500    0.3315930   -2.3394260  
C     1.4232040    0.4073440   -1.0757870  
O     0.7625060    0.6779270   -2.0612600  
C     0.8224410    0.1631440    0.2548270  
H     0.4294820   -0.2981060    3.1990450  
H     2.8277990   -0.4296070    4.4077880  
H     4.6259750   -0.1463650    2.6636090  
C     7.1086700   -2.5704670    1.1541040  
C     5.8939250   -1.9964250    0.9459220  
C     6.1257330   -0.7043450    0.3295370  
C     7.5964910   -0.5772590    0.1906190  
N     8.1319690   -1.7319550    0.7335980  
C     8.2392780    0.4701510   -0.3869580  
C     7.4342330    1.5664920   -0.9072260  
O     7.9091730    2.5366030   -1.4766490  
C     5.8778820    1.5010890   -0.7047270  
O     5.2130090    2.4813300   -0.9837330  
C     5.2740300    0.2751760   -0.1120110  
H     4.9342710   -2.4395600    1.1654380  
H     9.3178420    0.5221230   -0.4989490  
H     7.3452050   -3.5380330    1.5769850  
H     9.1100140   -1.9751370    0.7090250  
C    -5.5198240    3.4353790   -0.4316150  
C    -6.7651480    3.2506560    0.0770950  
C    -6.9168170    1.8335840    0.3303040  
C    -5.6325980    1.2020230   -0.0686610  
N    -4.8395490    2.2264090   -0.5277190  
C    -5.3319330   -0.1402390    0.0037670  
C    -6.4473710   -0.9945380    0.4072410  
O    -6.4313740   -2.2247020    0.3270190  
C    -7.7759680   -0.3468150    0.9508290  
O    -8.6202910   -1.0847550    1.4323760  
C    -7.9438010    1.0964730    0.8309070  
H    -7.5119750    4.0121590    0.2470880  
H    -8.8797000    1.5319610    1.1658540  
H    -5.0362770    4.3477210   -0.7548030  
H    -3.8771970    2.1081890   -0.8100630  
