60


C    -0.7190730    2.4879640    0.3540160  
C    -1.4569210    2.9384130    1.4331440  
C    -2.4670340    1.9709790    1.7095780  
C    -2.3280720    0.9277240    0.7564920  
N    -1.2207210    1.2261000   -0.0244650  
C    -3.2080040   -0.1744360    0.6870680  
C    -4.2185870   -0.2093610    1.6578470  
O    -5.0586180   -1.2728080    1.7112730  
C    -4.3554500    0.8203670    2.6263020  
O    -5.3985430    0.6121040    3.5055790  
C    -3.5000790    1.9020270    2.6650930  
H    -1.2803900    3.8650220    1.9551310  
H    -1.1010050    0.8660580   -0.9622860  
H    -5.7413290   -1.0737320    2.3761570  
H    -5.5273830    1.4022030    4.0510770  
H    -3.6241620    2.6838690    3.4108710  
C     0.1669190   -2.7202130   -0.5524870  
C    -0.4815550   -3.5166730   -1.4686040  
C    -1.8454540   -3.0657530   -1.5492360  
C    -1.9701530   -1.9443060   -0.5875140  
N    -0.7202190   -1.7887570   -0.0237810  
C    -3.1141350   -1.2452750   -0.3257420  
C    -4.2863340   -1.5862040   -1.1690460  
O    -5.3093270   -0.9272960   -1.1794310  
C    -4.1934080   -2.8216080   -2.1394320  
O    -5.1986590   -3.1736200   -2.7376230  
C    -2.9063270   -3.4948530   -2.2913840  
H    -0.0328070   -4.3024280   -2.0592000  
H    -2.8448960   -4.3320870   -2.9797020  
H    -0.4719260   -1.1133490    0.6845830  
C     1.5471540   -2.6880920   -0.1423990  
C     2.5243360   -3.6384700   -0.2572380  
C     3.7013100   -3.0556000    0.3406650  
C     3.2631140   -1.6889890    0.7813290  
N     2.0055270   -1.4823380    0.4945580  
C     4.1639780   -0.7734450    1.4220050  
C     5.4350040   -1.1955990    1.6346450  
O     6.3787530   -0.4603330    2.2240340  
C     5.9089040   -2.5733600    1.2113330  
O     7.0817260   -2.8562210    1.4479690  
C     4.9701090   -3.4840570    0.5485590  
H     2.4341970   -4.6339520   -0.6684950  
H     3.8256070    0.2103700    1.7271920  
H     7.1861320   -1.0235520    2.2374530  
H     5.3432810   -4.4594570    0.2529190  
C     2.5104330    0.8395970   -2.1731370  
C     3.0192390    2.0057220   -2.6461630  
C     2.2918340    3.0824200   -2.0120360  
C     1.2857920    2.4391240   -1.1456890  
N     1.4347650    1.0602310   -1.3148550  
C     0.3751590    3.1086680   -0.3625160  
C     0.5474400    4.5881440   -0.3067130  
O    -0.0758570    5.3023910    0.4578560  
C     1.5791700    5.2817580   -1.2766820  
O     1.6284660    6.5036200   -1.2747890  
C     2.4181960    4.4382610   -2.1060900  
H     3.8226700    2.1170090   -3.3602020  
H     3.1365050    4.9166590   -2.7642420  
H     2.8139480   -0.1766850   -2.3873900  
H     1.2375250    0.3954300   -0.5688340  
