58


C     5.9498420   -0.9867270   -0.9006370  
C     4.6833990   -0.6993130   -0.4432010  
C     4.0454790   -1.9940150   -0.1687900  
C     5.0540930   -3.0280900   -0.4977390  
N     6.1767130   -2.3393810   -0.9380320  
C     4.8747660   -4.3654390   -0.3754420  
C     3.5903290   -4.8421360    0.1364030  
O     3.3315490   -6.0256360    0.2832540  
C     2.5130850   -3.7657110    0.5220260  
O     1.4549020   -4.1362710    1.0013640  
C     2.8253680   -2.3431030    0.3095960  
H     5.6339380   -5.0986440   -0.6299570  
H     2.0674390   -1.6084230    0.5535770  
H     6.7205000   -0.2998150   -1.2247300  
H     7.0252600   -2.7756760   -1.2665970  
C     4.1383890    0.6185630   -0.2648590  
C     4.7839060    1.8326230   -0.2603210  
C     3.7674130    2.8191150   -0.0483950  
C     2.4922480    2.0229760    0.0506070  
N     2.7192440    0.7490230   -0.0638030  
C     1.2000050    2.6625240    0.2317240  
C     1.2256700    4.0182630    0.3806640  
O     0.1438830    4.7573530    0.6189790  
C     2.5019650    4.8392420    0.3173740  
O     2.3709700    6.0560060    0.4680300  
C     3.7708640    4.1714980    0.0818190  
H     5.8442900    2.0222240   -0.3545120  
H     0.4746190    5.6866490    0.6596220  
H     4.6625480    4.7871780    0.0227450  
C    -0.5461980   -0.8452470    2.4326250  
C     0.3028400    0.1369600    2.0517550  
C    -0.3815240    0.8381680    0.9708240  
C    -1.6903350    0.1163870    0.8447250  
N    -1.7768100   -0.8582110    1.7025020  
C    -2.7018240    0.4990930   -0.1275540  
C    -2.3929840    1.5700220   -0.9115420  
O    -3.2285440    2.0817160   -1.8243130  
C    -1.0794270    2.2947680   -0.8297930  
O    -0.8868020    3.1904670   -1.6473970  
C    -0.0645620    1.9022210    0.1943050  
H     1.2878130    0.3583410    2.4341760  
H    -2.7208020    2.7908520   -2.2770000  
H    -0.3973720   -1.5975690    3.1976800  
C    -6.0369920   -0.6647830    2.6038620  
C    -4.8931490   -0.1547940    2.0826720  
C    -4.8473590   -0.5298450    0.6854810  
C    -6.0865570   -1.3085750    0.4314570  
N    -6.7600000   -1.3555950    1.6344670  
C    -6.4511600   -1.8280700   -0.7691890  
C    -5.5653210   -1.6173970   -1.9021480  
O    -5.8117400   -2.0132960   -3.0317020  
C    -4.2196000   -0.8409590   -1.6580520  
O    -3.4278170   -0.7597690   -2.5797060  
C    -3.9474580   -0.2690830   -0.3122200  
H    -4.1380150    0.3997950    2.6157970  
H    -7.3751880   -2.3753820   -0.9284000  
H    -6.4179980   -0.6027820    3.6146280  
H    -7.6435400   -1.8169880    1.7807440  
