60


C    -1.7294400   -2.0929130    0.0115240  
C    -2.7630290   -1.2477570    0.3765260  
C    -3.9866430   -1.9992700    0.3409780  
C    -3.6105640   -3.3721570   -0.0800080  
N    -2.2468490   -3.3546950   -0.2733350  
C    -4.4912330   -4.3947260   -0.2257050  
C    -5.9033540   -4.1395390    0.0447400  
O    -6.7671650   -4.9974130   -0.0605580  
C    -6.3245910   -2.6907020    0.4908090  
O    -7.5039320   -2.4612550    0.7181200  
C    -5.2824070   -1.6733640    0.6132240  
H    -2.6673630   -0.2402240    0.7515580  
H    -4.1983420   -5.3937360   -0.5330760  
H    -5.5848440   -0.6775860    0.9240000  
H    -1.6371020   -4.1460160   -0.4403320  
C     0.4975190    1.6685810   -0.4809860  
C     1.7720300    1.1526300   -0.3977350  
C     1.6816110   -0.2592260   -0.2126630  
C     0.2443600   -0.5742230   -0.1824030  
N    -0.4263810    0.6221880   -0.2783990  
C    -0.3062860   -1.8383190   -0.0974600  
C     0.6615130   -2.9357370   -0.1747030  
O     0.3502550   -4.1178040   -0.2580750  
C     2.2010020   -2.6152890   -0.1883480  
O     2.9403680   -3.5942660   -0.2932380  
C     2.6712830   -1.2318980   -0.1044510  
H     2.6854690    1.7249630   -0.4337980  
H    -1.3786780    0.6544540   -0.6213860  
C     0.7866290    4.0280320   -1.3076190  
C     0.0646690    3.0111450   -0.7248760  
C    -1.2410200    3.6306960   -0.4199390  
C    -1.0969630    5.0320860   -0.9153680  
N     0.0961360    5.2401410   -1.4223170  
C    -2.1549920    5.9900410   -0.8028980  
C    -3.3093570    5.5942140   -0.2067650  
O    -4.3742260    6.3850280   -0.0376960  
C    -3.4781110    4.2005950    0.3340310  
O    -4.5435450    3.9143590    0.8717760  
C    -2.3659540    3.2318880    0.2035020  
H    -2.0169270    6.9968030   -1.1807360  
H    -5.0494750    5.8394800    0.4226110  
H    -2.5276790    2.2521950    0.6411500  
H     1.7977840    3.9640130   -1.6925170  
C     4.7426990    1.5984640    2.6973940  
C     3.8088610    0.8328970    2.0424170  
C     4.4973370    0.0895300    1.0265670  
C     5.8697430    0.4436810    1.1302030  
N     5.9836720    1.3763480    2.1418460  
C     6.8690410   -0.1288260    0.3411630  
C     6.4752130   -1.1106970   -0.5576140  
O     7.3987690   -1.7178540   -1.3454440  
C     5.1175450   -1.5064010   -0.6784750  
O     4.9164690   -2.4663570   -1.6376880  
C     4.0945430   -0.8969470    0.0669480  
H     2.7537330    0.8068520    2.2696930  
H     6.8505610    1.7734590    2.4690390  
H     7.9171580    0.1398560    0.4243730  
H     6.9076470   -2.3899720   -1.8572580  
H     4.2746150   -3.1171370   -1.2663390  
H     4.6215210    2.2902870    3.5188400  
