60


C     1.0701510   -0.2348680   -0.9863350  
C     0.7483470    1.0162180   -0.4839460  
C     2.0100890    1.6470680   -0.1414040  
C     3.0311580    0.7157290   -0.4499810  
N     2.4323620   -0.4084830   -0.9788050  
C     4.3959380    0.9783540   -0.2184250  
C     4.7237330    2.2210030    0.3192170  
O     6.0275080    2.5391740    0.5434270  
C     3.7068860    3.1659270    0.6121490  
O     4.1974440    4.3478540    1.1244840  
C     2.3696780    2.8959910    0.4014730  
H     2.9167490   -1.2509760   -1.2497300  
H     6.0429140    3.4441560    0.9035800  
H     3.4758510    4.9874530    1.2217270  
H     1.6174640    3.6495350    0.6051650  
H     0.4257310   -0.9888240   -1.4165420  
C    -2.8793500   -0.9763170    0.9249080  
C    -3.7843320    0.0290790    0.7391780  
C    -3.0663670    1.1755260    0.2064300  
C    -1.6606440    0.7452890    0.0909580  
N    -1.6265910   -0.5836560    0.4982440  
C    -0.6172650    1.5252840   -0.3337360  
C    -0.9709670    2.9234260   -0.6742140  
O    -0.1457980    3.7491770   -1.0281400  
C    -2.4772930    3.3875110   -0.5854820  
O    -2.7376520    4.5435490   -0.8796770  
C    -3.4763150    2.4272330   -0.1368090  
H    -4.5113230    2.7480750   -0.0788160  
H    -3.0426690   -1.9705090    1.3191050  
H    -0.7665810   -1.0791080    0.6859770  
C    -5.8459830    0.7543940    1.9405340  
C    -7.1787730    0.5115810    1.9251830  
C    -7.4247000   -0.4918440    0.9102610  
C    -6.1021390   -0.8161210    0.3212240  
N    -5.1671960   -0.0291920    0.9944650  
C    -5.9078530   -1.7126540   -0.6775020  
C    -7.0702080   -2.4172100   -1.2146740  
O    -6.9901560   -3.2398960   -2.1137470  
C    -8.4809310   -2.0973230   -0.5983220  
O    -9.4619200   -2.6825700   -1.0286280  
C    -8.5582600   -1.1016640    0.4748690  
H    -7.9219280    0.9769020    2.5563970  
H    -4.9336920   -1.9316420   -1.1013340  
H    -9.5379010   -0.8821980    0.8885060  
H    -5.2742120    1.4318180    2.5608940  
C     6.5068360    0.2886270   -1.3773240  
C     7.2994660   -0.8029310   -1.5005650  
C     6.7167310   -1.8540650   -0.6947700  
C     5.4999490   -1.2691930   -0.0747770  
N     5.4071010    0.0364950   -0.5414300  
C     4.6832620   -1.9386430    0.7826610  
C     4.9963340   -3.3286100    1.1013180  
O     4.3091410   -4.0088350    1.8490950  
C     6.2701570   -3.9717120    0.4417820  
O     6.5403420   -5.1364070    0.6887660  
C     7.0842680   -3.1387620   -0.4478440  
H     8.2028320   -0.8755160   -2.0885730  
H     3.8240100   -1.4838830    1.2628690  
H     7.9725530   -3.5870580   -0.8826540  
H     6.6095790    1.2713160   -1.8147520  
