60


C    -2.5809890   -0.3394050    3.4029730  
C    -1.4000960   -0.3904880    2.7087750  
C    -1.7272710   -0.3567800    1.3117550  
C    -3.1419440   -0.2710600    1.2222040  
N    -3.6325760   -0.2673730    2.5107920  
C    -3.8487570   -0.2228690    0.0033950  
C    -3.0627040   -0.2520960   -1.1534900  
O    -3.6619840   -0.1764180   -2.3700180  
C    -1.6530700   -0.3273140   -1.0856240  
O    -1.0412880   -0.3527790   -2.3324590  
C    -0.9500930   -0.3750370    0.1204460  
H    -0.4129710   -0.4375240    3.1445040  
H    -4.6105430   -0.2371120    2.7528830  
H    -2.9698720   -0.3328050   -3.0374820  
H    -0.2273780   -0.8775650   -2.2754600  
H    -2.7640840   -0.3470480    4.4680810  
C     1.2898160   -1.2309140    0.9781750  
C     0.5133520   -0.4597250    0.1633910  
C     1.4974980    0.3597450   -0.5855070  
C     2.8231150   -0.0924830   -0.0708420  
N     2.6870210   -1.0200460    0.8340500  
C     4.0713100    0.4817030   -0.5430090  
C     3.9685920    1.4737040   -1.4737880  
O     5.0249430    2.0755700   -2.0360670  
C     2.6463230    1.9642650   -1.9862760  
O     2.6594970    2.8636830   -2.8252740  
C     1.3978870    1.3551780   -1.4870070  
H     4.6490440    2.7485220   -2.6465670  
H     0.4627550    1.7281790   -1.8902060  
H     0.9508940   -1.9706820    1.6926120  
C     6.3182400   -3.3953890   -0.2848040  
C     5.3382580   -2.4965270   -0.5317110  
C     5.8461600   -1.2272350   -0.0209610  
C     7.2012760   -1.5738400    0.5163960  
N     7.4728180   -2.8363340    0.3555910  
C     8.0621970   -0.5817750    1.1064010  
C     7.6052080    0.6890590    1.1645260  
O     8.2901740    1.7146110    1.6976340  
C     6.2449700    1.0725940    0.6438620  
O     5.8942480    2.2380670    0.8032090  
C     5.3756170    0.0442530   -0.0057790  
H     4.3733200   -2.6661760   -0.9847230  
H     9.0368780   -0.8653450    1.4874920  
H     7.6960670    2.4928850    1.6167160  
H     6.3221690   -4.4549150   -0.5117550  
C    -6.9127250    2.5692150    1.6230060  
C    -5.7496170    1.9570060    1.2812420  
C    -6.0927530    0.7666510    0.5251550  
C    -7.5738430    0.7434560    0.4501190  
N    -8.0077840    1.8513350    1.1538060  
C    -8.3072850   -0.1876410   -0.2133350  
C    -7.5958340   -1.2545690   -0.9002670  
O    -8.1533580   -2.1165060   -1.5628500  
C    -6.0289560   -1.3064620   -0.7697900  
O    -5.4462780   -2.2811200   -1.2064740  
C    -5.3220370   -0.1957330   -0.0716050  
H    -4.7525440    2.3008220    1.5110980  
H    -9.3909080   -0.1635160   -0.2750990  
H    -7.0685650    3.4853410    2.1773760  
H    -8.9693060    2.1460570    1.2211110  
