58


C    -2.1160330    1.3312210    0.0072440  
C    -2.8705660    0.5222380   -0.7858590  
C    -2.0253490    0.0467370   -1.8674760  
C    -0.7013690    0.6691060   -1.6395140  
N    -0.7987670    1.4013130   -0.4519090  
C     0.3534720    0.5288720   -2.4813310  
C     0.1954890   -0.3184060   -3.6644720  
O     1.0935580   -0.4950210   -4.4721450  
C    -1.1881410   -1.0253720   -3.8929870  
O    -1.3318970   -1.7501170   -4.8634760  
C    -2.2620120   -0.7671700   -2.9274700  
H     1.3076500    1.0202830   -2.3335940  
H    -3.2246750   -1.2368060   -3.1040760  
H    -2.4053930    1.8760010    0.8928770  
C     3.3271010    0.4888760    0.6876030  
C     3.6844680    1.7559690    1.1056900  
C     2.5403390    2.6136370    0.9644290  
C     1.4614830    1.7576220    0.4152170  
N     1.9931100    0.5064090    0.2650560  
C     0.2032430    2.2129580    0.1262970  
C    -0.1151150    3.6131450    0.4391580  
O    -1.2286240    4.0856480    0.2716890  
C     1.0240480    4.5226810    1.0282070  
O     0.7579230    5.6881880    1.2763830  
C     2.3355970    3.9299140    1.2567290  
H     4.6095300    2.0439830    1.5822850  
H     3.1133280    4.5681090    1.6638980  
H     1.5100870   -0.3533390    0.0261500  
C    -5.2546930    0.4606320   -1.5063170  
C    -6.4481820    0.0005470   -1.0600880  
C    -6.2194780   -0.6204810    0.2277090  
C    -4.7668240   -0.4864800    0.4990360  
N    -4.2224570    0.1851730   -0.5959050  
C    -4.1508350   -0.9527870    1.6135610  
C    -4.9610580   -1.6297580    2.6241110  
O    -4.4918590   -2.0805940    3.6577120  
C    -6.5043400   -1.7758530    2.3613080  
O    -7.1976360   -2.3324370    3.1979900  
C    -7.0481090   -1.2336750    1.1130670  
H    -7.3979690    0.0874120   -1.5675680  
H    -3.0859610   -0.8522990    1.7934250  
H    -8.1137780   -1.3452190    0.9374440  
H    -5.0161090    0.9918590   -2.4181110  
C     7.6697960   -0.2444230    0.6541720  
C     7.6686530   -1.5964450    0.7076520  
C     6.2834030   -2.0243450    0.7147090  
C     5.4669000   -0.7881930    0.6807020  
N     6.3576950    0.2494470    0.6709180  
C     4.0849870   -0.7451410    0.6493100  
C     3.4067970   -2.0490320    0.5285970  
O     2.2069350   -2.1731780    0.3161720  
C     4.2513670   -3.3643230    0.6729670  
O     3.6626590   -4.4289600    0.7158250  
C     5.7101340   -3.2550670    0.7352400  
H     8.5332970   -2.2432320    0.7300860  
H     6.2846900   -4.1745460    0.7858080  
H     8.4992210    0.4485800    0.6173020  
H     6.0994990    1.2013600    0.4525490  
