62


C    -0.8412590   -0.9096410    1.2783470  
C    -0.2461850   -0.0668800    0.3645150  
C    -1.3171570    0.4864280   -0.4362500  
C    -2.5289890   -0.0614130    0.0508770  
N    -2.2056920   -0.9103330    1.0909770  
C    -3.7917070    0.2163080   -0.5169430  
C    -3.7956080    1.0891410   -1.6067640  
O    -4.9773710    1.4528790   -2.1703810  
C    -2.5888490    1.6413060   -2.1105080  
O    -2.7767940    2.4812710   -3.1891420  
C    -1.3604190    1.3485390   -1.5504050  
H    -2.8733520   -1.4319830    1.6369380  
H    -4.7738200    1.9992030   -2.9494710  
H    -1.9218160    2.8211110   -3.4922390  
H    -0.4508470    1.7767350   -1.9642150  
H    -0.3897490   -1.4908740    2.0699910  
C     2.1743290   -0.7722340    0.2090340  
C     1.1913900    0.1688470    0.2343430  
C     1.8713280    1.4609190    0.1628860  
C     3.3247790    1.1707790    0.0786900  
N     3.4574330   -0.2005430    0.1259370  
C     4.2933640    2.1288430   -0.0247900  
C     3.8892190    3.5309750   -0.0419400  
O     4.6795650    4.4548220   -0.1639160  
C     2.3588500    3.8571490    0.1005750  
O     1.9989710    5.0230470    0.1292920  
C     1.4117600    2.7376610    0.1825590  
H     5.3424470    1.8954740   -0.1834420  
H     0.3553120    2.9747810    0.2568530  
H     2.0872250   -1.8494400    0.2428740  
C     4.9811510   -3.4851310   -2.4366940  
C     4.2172040   -2.4724810   -1.9174720  
C     4.9257320   -1.9576100   -0.7793500  
C     6.1290220   -2.7029800   -0.6597220  
N     6.1304790   -3.6287570   -1.6819690  
C     7.0879950   -2.4539410    0.3293210  
C     6.8254660   -1.4301070    1.2265490  
O     7.7196020   -1.1376580    2.2098120  
C     5.6198070   -0.6817940    1.1554170  
O     5.4597390    0.2423970    2.1673940  
C     4.6733740   -0.9382140    0.1654690  
H     3.2693630   -2.1296300   -2.3071520  
H     6.8690960   -4.2897130   -1.8651940  
H     8.0131430   -3.0151340    0.4088050  
H     7.3479620   -0.3862540    2.7074570  
H     5.0240970    1.0466210    1.8283980  
H     4.8033960   -4.1214330   -3.2919760  
C    -5.7983100    0.2263720    3.4518850  
C    -4.9519550    0.4409450    2.4121050  
C    -5.4783400   -0.2824800    1.2688270  
C    -6.7223840   -0.9393530    1.7385270  
N    -6.8455200   -0.6089730    3.0750630  
C    -7.5517780   -1.6846670    0.9627300  
C    -7.1971920   -1.8669820   -0.4362010  
O    -7.8910160   -2.4837640   -1.2307980  
C    -5.8424100   -1.2497340   -0.9461390  
O    -5.4710740   -1.5258400   -2.0713570  
C    -5.0402950   -0.3983410   -0.0232360  
H    -4.0637890    1.0543740    2.4240150  
H    -8.4714550   -2.1319520    1.3271390  
H    -5.7516410    0.6057840    4.4641920  
H    -7.6370400   -0.8460330    3.6522980  
