58


C     3.7402350    0.2009050    0.0711310  
C     4.3735390    1.4270150    0.1204210  
C     3.3649510    2.4425020    0.2466420  
C     2.0643580    1.7295610    0.2669710  
N     2.3598090    0.3939290    0.1546270  
C     0.8434660    2.3483310    0.3352750  
C     0.8449070    3.8199180    0.4874960  
O    -0.1721800    4.4546870    0.7052590  
C     2.2124910    4.5850160    0.4313090  
O     2.2052810    5.8054080    0.4818460  
C     3.4389040    3.8012480    0.3267630  
H     5.4372610    1.6042860    0.1781010  
H     4.3814970    4.3395950    0.2996440  
H     1.7221690   -0.3881580    0.2538200  
C    -1.1294630   -0.8888810    2.7173920  
C    -0.2076690   -0.0120750    2.2566790  
C    -0.8217400    0.6189800    1.0970070  
C    -2.1609740   -0.0406800    0.9797110  
N    -2.3273330   -0.9043030    1.9495780  
C    -3.1174620    0.2904250   -0.0650110  
C    -2.7730310    1.3768750   -0.8281740  
O    -3.5802630    1.9165550   -1.7429300  
C    -1.4324140    2.0509290   -0.7533620  
O    -1.1849660    2.8963310   -1.6060760  
C    -0.4408520    1.6416480    0.2889880  
H     0.7650520    0.2071330    2.6722480  
H    -3.0463230    2.6025890   -2.2024210  
H    -1.0574270   -1.5450500    3.5761590  
C    -6.2393960   -1.6193920    2.4892070  
C    -7.1097130   -2.0035340    1.5189060  
C    -6.5184480   -1.6417210    0.2505200  
C    -5.2271400   -0.9798400    0.5787510  
N    -5.1361420   -0.9638180    1.9559200  
C    -4.3514910   -0.4670700   -0.3452910  
C    -4.6632570   -0.7976240   -1.7609060  
O    -3.8497650   -0.6864750   -2.6611510  
C    -6.0801150   -1.3716410   -2.1210980  
O    -6.3920220   -1.4498880   -3.3000960  
C    -6.9454430   -1.8007340   -1.0315840  
H    -8.0623900   -2.4929850    1.6604280  
H    -7.9076720   -2.2366160   -1.2825510  
H    -6.3157280   -1.7440860    3.5618430  
H    -4.2033740   -0.9410310    2.3789950  
C     7.6005160   -1.2131760   -1.4985970  
C     7.4907090   -2.5317890   -1.2115750  
C     6.1944380   -2.7300960   -0.5943540  
C     5.5582020   -1.3934590   -0.5286760  
N     6.4655750   -0.5180750   -1.0634030  
C     4.2940530   -1.1356650   -0.0354860  
C     3.5036010   -2.3192500    0.3490010  
O     2.3139920   -2.2744070    0.6353100  
C     4.2056520   -3.7234230    0.3957870  
O     3.5870920   -4.6645000    0.8604600  
C     5.5641990   -3.8419560   -0.1333200  
H     8.2236900   -3.2995160   -1.4111260  
H     6.0199740   -4.8269860   -0.1440480  
H     8.4067000   -0.6720360   -1.9750390  
H     6.2321800    0.4289540   -1.3272090  
