62


C     0.7976470   -0.5808840   -1.2367650  
C     0.1890930    0.4837550   -0.6092700  
C     1.2418220    1.1683850    0.1150680  
C     2.4530170    0.4762930   -0.1349940  
N     2.1512560   -0.5766490   -0.9689220  
C     3.6926770    0.8422310    0.4496030  
C     3.6399190    1.9163310    1.3512390  
O     4.7724840    2.3358110    1.9940860  
C     2.4338860    2.6115040    1.6106330  
O     2.5845500    3.6480140    2.5090840  
C     1.2441950    2.2626240    1.0028210  
H     2.7933790   -1.3202570   -1.1982590  
H     4.5213330    3.0900270    2.5579380  
H     1.7311720    4.0807210    2.6611650  
H     0.3292630    2.8086120    1.2157740  
H     0.3649940   -1.3351530   -1.8781960  
C    -3.5082040   -1.9216020    0.1809780  
C    -2.2200400   -1.5088790    0.0164960  
C    -2.2558550   -0.1309220   -0.3956530  
C    -3.6198520    0.2454450   -0.4707390  
N    -4.3848360   -0.8767490   -0.1253040  
C    -4.0246480    1.5511130   -0.7607240  
C    -3.0284720    2.4835990   -1.0148460  
O    -3.3708540    3.7685690   -1.3284390  
C    -1.6631220    2.1218640   -0.9658020  
O    -0.7950460    3.1588500   -1.2602030  
C    -1.2451920    0.8263240   -0.6541970  
H    -1.3387120   -2.1099490    0.1883040  
H    -5.0618660    1.8524830   -0.8160090  
H    -2.5448960    4.2384740   -1.5372370  
H     0.0882220    2.7892560   -1.4245660  
H    -3.9042640   -2.8722580    0.4992020  
C    -6.9028490   -2.5904860    2.9579840  
C    -8.1385490   -2.3413890    2.4706640  
C    -7.9176650   -1.6646810    1.1953030  
C    -6.4282400   -1.5916170    1.0780570  
N    -5.8442640   -2.1321180    2.1051830  
C    -5.7837480   -0.9687850   -0.0742250  
C    -6.6057040   -0.4968070   -1.0589370  
O    -6.1622410    0.0526440   -2.2046430  
C    -8.0918860   -0.5522800   -0.9485480  
O    -8.7522430   -0.1041180   -1.8877880  
C    -8.7214500   -1.1630390    0.2407960  
H    -9.0957440   -2.5778310    2.9141080  
H    -6.9760120    0.2961220   -2.7002740  
H    -9.8065350   -1.1831460    0.2718120  
H    -6.6341990   -3.0802120    3.8859960  
C     4.9296630    0.1402600    0.1285980  
C     5.2559420   -0.5830480   -0.9979340  
C     6.5961790   -1.0811560   -0.8394010  
C     7.0559440   -0.5971070    0.4864800  
N     6.0019950    0.1096710    1.0233380  
C     8.2859150   -0.8411190    1.0064300  
C     9.2269860   -1.6341290    0.2211900  
O    10.3550130   -1.9031940    0.6070600  
C     8.7585560   -2.1638280   -1.1847200  
O     9.5347440   -2.8334080   -1.8512490  
C     7.4085660   -1.8315160   -1.6353730  
H     4.6589840   -0.6756380   -1.8930820  
H     8.6056940   -0.4774200    1.9781110  
H     7.0985590   -2.1993530   -2.6090080  
H     6.0431280    0.7023830    1.8396330  
