60


C     0.0096960    2.8734860   -0.1312570  
C     0.7122220    4.0573640   -0.1358950  
C    -0.2397880    5.1314810   -0.1910210  
C    -1.5837150    4.4941630   -0.2212310  
N    -1.3588880    3.1373200   -0.1759410  
C    -2.7536800    5.1805420   -0.2801230  
C    -2.7049720    6.6387040   -0.3103390  
O    -3.7057690    7.3383000   -0.3595990  
C    -1.2947440    7.3350930   -0.2741090  
O    -1.2363170    8.5559030   -0.2951470  
C    -0.1033270    6.4884050   -0.2152550  
H     1.7873280    4.1598400   -0.1024720  
H    -3.7264010    4.6991710   -0.3038680  
H     0.8643610    6.9805970   -0.1941420  
H    -2.0488340    2.4023310   -0.2160850  
C     0.4614540    1.5081780   -0.0852820  
C     1.7377730    1.0080910   -0.0859420  
C     1.5925050   -0.4250020   -0.0485170  
C     0.1213250   -0.6540540   -0.0342570  
N    -0.5256560    0.4786370   -0.0559290  
C    -0.4609550   -2.0025770   -0.0306360  
C     0.4600400   -3.0234020   -0.0877910  
O     0.1063760   -4.3352480   -0.0840750  
C     1.9188540   -2.8333000   -0.0774410  
O     2.6266310   -3.8430660    0.0145570  
C     2.4931450   -1.4538150   -0.0987100  
H     2.6619770    1.5632640   -0.1605510  
H     0.9643680   -4.8204580   -0.0709260  
C     5.2928290    0.7645800    2.5130220  
C     6.4652840    0.3838220    1.9484410  
C     6.1427860   -0.4732520    0.8259170  
C     4.6617790   -0.5575180    0.7799770  
N     4.2117420    0.2125490    1.8261070  
C     3.9476910   -1.3188840   -0.1132040  
C     4.7289680   -2.0218700   -1.1596490  
O     4.2047880   -2.5741080   -2.1088460  
C     6.2948440   -1.9826550   -1.0856570  
O     6.9372970   -2.6400550   -1.8869310  
C     6.9225480   -1.1475090   -0.0602210  
H     7.4573480    0.6591640    2.2747810  
H     8.0073740   -1.1153660   -0.0294170  
H     5.1130140    1.3986990    3.3708280  
H     3.2386580    0.3633460    2.0467250  
C    -1.8877310   -2.2118590    0.0278650  
C    -2.9348200   -1.2959430    0.1586690  
C    -4.1480000   -2.0250780    0.1779550  
C    -3.8075590   -3.4064170    0.0571640  
N    -2.4437550   -3.4877820   -0.0304150  
C    -4.7719970   -4.4209380    0.0412670  
C    -6.0993880   -4.0378200    0.1486030  
O    -7.0789120   -4.9786010    0.1389720  
C    -6.4605080   -2.6600320    0.2703130  
O    -7.8217560   -2.4601710    0.3668090  
C    -5.5120570   -1.6625090    0.2861150  
H    -2.8056000   -0.2291660    0.2303170  
H    -1.8891370   -4.3278770   -0.1101600  
H    -4.5217970   -5.4723800   -0.0511470  
H    -7.9312330   -4.5150910    0.2192080  
H    -8.0104480   -1.5121640    0.4320320  
H    -5.8067850   -0.6194770    0.3795620  
