60


C    -0.5093990   -0.5559200    2.9205940  
C    -1.7145700   -0.6685360    2.2754480  
C    -1.6618630    0.1887660    1.1268450  
C    -0.3861230    0.8050640    1.1318780  
N     0.3030260    0.3161830    2.2241710  
C     0.0260350    1.7677530    0.1873680  
C    -0.9091440    2.1024880   -0.7943080  
O    -0.5622080    2.9720600   -1.7772810  
C    -2.1950600    1.5094050   -0.8240100  
O    -2.9593910    1.9337030   -1.8843550  
C    -2.6005330    0.5503560    0.1179660  
H    -2.5462380   -1.2774460    2.5969570  
H     1.1867500    0.6764970    2.5500760  
H    -1.3426410    3.0970790   -2.3455380  
H    -3.7870730    1.4163230   -1.9216390  
H    -0.1560160   -1.0343580    3.8228550  
C     4.0702200    0.0305420   -0.0847040  
C     4.8039160    1.1922590    0.0265000  
C     3.8853410    2.2891280    0.1579910  
C     2.5287380    1.6953840    0.1319870  
N     2.7088180    0.3371750   -0.0160770  
C     1.3606970    2.3998970    0.2217030  
C     1.4818900    3.8654960    0.3867510  
O     0.5215630    4.5923310    0.5665100  
C     2.9151830    4.5136180    0.3721770  
O     3.0108980    5.7284110    0.4511360  
C     4.0780800    3.6337520    0.2723050  
H     5.8793930    1.2652860    0.0620240  
H     5.0633880    4.0896340    0.2765350  
H     1.9860720   -0.3685380    0.0128640  
C     7.9033300   -1.8775510   -1.4093790  
C     6.9402300   -0.9434330   -1.1998340  
C     5.8058400   -1.6765400   -0.6638770  
C     6.2836400   -3.0971250   -0.6351140  
N     7.5122150   -3.2031500   -1.0545030  
C     5.4455400   -4.1772090   -0.1911900  
C     4.1762630   -3.8813320    0.1697710  
O     3.2779300   -4.7964340    0.5664960  
C     3.6522060   -2.4752220    0.1337400  
O     2.4601060   -2.3246480    0.4102630  
C     4.5542780   -1.3349960   -0.2252290  
H     6.9876890    0.1091080   -1.4326680  
H     5.8285610   -5.1913700   -0.1780230  
H     2.4428270   -4.3086170    0.7291710  
H     8.8963580   -1.7244610   -1.8149140  
C    -3.9138710   -0.0667380    0.0401490  
C    -4.3164020   -1.3416340    0.3287350  
C    -5.7247920   -1.4597980    0.0554660  
C    -6.1595910   -0.1284570   -0.4198850  
N    -5.0103750    0.6772010   -0.4943500  
C    -7.4363240    0.1984800   -0.7165620  
C    -8.4645420   -0.8418610   -0.5991480  
O    -9.6402270   -0.6343870   -0.8497890  
C    -8.0159630   -2.2793790   -0.1501410  
O    -8.8605350   -3.1589420   -0.0654860  
C    -6.6047930   -2.4942770    0.1613040  
H    -3.6656940   -2.1449040    0.6425400  
H    -7.7417780    1.1837660   -1.0559170  
H    -6.3076000   -3.4841580    0.4939190  
H    -5.0956360    1.6532520   -0.2246590  
