60


C     2.4463520    1.1349570    2.7523570  
C     1.2332760    0.8441760    2.1910480  
C     1.4786970    0.0312110    1.0334830  
C     2.8864900   -0.1439530    0.9588080  
N     3.4505030    0.5315830    2.0166440  
C     3.5056880   -0.9295220   -0.0310490  
C     2.6677830   -1.5821040   -0.9318310  
O     3.1944020   -2.3860870   -1.8965510  
C     1.2602360   -1.4430200   -0.8562240  
O     0.5910690   -2.1340690   -1.8457810  
C     0.6364520   -0.6198910    0.0889290  
H     0.2742150    1.1810030    2.5518150  
H     4.4404160    0.6523710    2.1642080  
H     2.4234940   -2.7314300   -2.3884480  
H    -0.1377180   -2.6376460   -1.4228580  
H     2.6880530    1.7269170    3.6234660  
C    -1.8693100    3.0063130    0.1869290  
C    -3.1223530    2.4964700    0.1852250  
C    -2.9461850    1.0483680    0.1248980  
C    -1.4630090    0.8635000    0.1284660  
N    -0.8467830    2.0081460    0.1537930  
C    -0.8327200   -0.4587630    0.0976770  
C    -1.7081890   -1.4980020    0.0122140  
O    -1.3132730   -2.7998510   -0.0820680  
C    -3.1890220   -1.3520200   -0.0266570  
O    -3.8508480   -2.3756700   -0.1935100  
C    -3.8094930    0.0034920    0.0791810  
H    -4.0618940    3.0289640    0.2137450  
H    -2.1551850   -3.3103590   -0.1435760  
H    -1.5687630    4.0465670    0.2178190  
C    -6.7966020    2.0805550   -2.5110680  
C    -5.6450060    1.6172050   -1.9550840  
C    -6.0117730    0.8142860   -0.8104890  
C    -7.4959390    0.8424880   -0.7497850  
N    -7.9047870    1.6403570   -1.8019260  
C    -8.2509100    0.1820220    0.1636350  
C    -7.5682450   -0.6222990    1.1704480  
O    -8.1569720   -1.2768050    2.0152890  
C    -5.9991700   -0.6343530    1.1674470  
O    -5.4159670   -1.1992240    2.0756070  
C    -5.2772740    0.0891390    0.0920400  
H    -4.6434730    1.8167710   -2.3038890  
H    -9.3362210    0.2059930    0.1726210  
H    -6.9295110    2.7100830   -3.3810610  
H    -8.8656330    1.8180450   -2.0495550  
C     5.5610590   -2.3490360   -0.1138230  
C     6.9081570   -2.2096590   -0.1629920  
C     7.1946960   -0.7926760   -0.1881240  
C     5.8771020   -0.1060410   -0.1538720  
N     4.9123890   -1.1060900   -0.0881910  
C     5.7207020    1.2443540   -0.1971980  
C     6.9168740    2.0813490   -0.2603580  
O     6.8717160    3.3018160   -0.3027730  
C     8.3208400    1.3738430   -0.2706200  
O     9.3302220    2.0611200   -0.3031220  
C     8.3564970   -0.0893730   -0.2436340  
H     7.6346400   -3.0089510   -0.1852350  
H     4.7523380    1.7320510   -0.2155780  
H     9.3296310   -0.5702270   -0.2757310  
H     4.9593640   -3.2460800   -0.0965880  
