60


C    -1.7739270   -1.6535840    2.4197810  
C    -2.9947880   -1.4847600    1.8216880  
C    -2.8103540   -0.5607800    0.7361830  
C    -1.4362520   -0.2006630    0.7424610  
N    -0.8369650   -0.8466280    1.8047530  
C    -0.8568350    0.6835170   -0.1954640  
C    -1.7111950    1.0806680   -1.2354350  
O    -1.2395420    1.8256610   -2.2663880  
C    -3.0827960    0.7189480   -1.2733330  
O    -3.7566870    1.2535850   -2.3480210  
C    -3.6814420   -0.0475630   -0.2703850  
H    -3.9163510   -1.9644850    2.1165840  
H     0.1590650   -1.0426380    1.7787510  
H    -2.0076220    1.9561650   -2.8578780  
H    -4.3469380    0.5437870   -2.6947030  
H    -1.4896750   -2.2853480    3.2499200  
C     3.0298370   -1.3297830    0.4224070  
C     3.9400180   -0.3336520    0.1958100  
C     3.0980010    0.8664530   -0.0170440  
C     1.6932840    0.3595520    0.0714800  
N     1.6851700   -0.9184230    0.3666400  
C     0.5277230    1.2036430   -0.1294710  
C     0.8006860    2.5398290   -0.2774870  
O    -0.1380790    3.4863830   -0.3696470  
C     2.1952450    3.0812070   -0.3535170  
O     2.3305600    4.2940040   -0.5143530  
C     3.3498790    2.1708790   -0.2207470  
H     0.3547390    4.3287270   -0.4929920  
H     4.3384620    2.6110820   -0.2415230  
H     3.2446890   -2.3624680    0.6690230  
C     6.5396930   -3.5406380   -1.4129800  
C     5.4849340   -2.7440610   -1.0953820  
C     6.0031040   -1.5954620   -0.3845240  
C     7.4698150   -1.7871660   -0.3216360  
N     7.7261620   -2.9945340   -0.9394470  
C     8.3551870   -0.9173530    0.2353940  
C     7.8320160    0.3099200    0.8016850  
O     8.5282890    1.1767180    1.3087980  
C     6.2746710    0.5489820    0.7536840  
O     5.8504700    1.5870570    1.2336420  
C     5.3884080   -0.4823160    0.1519320  
H     4.4535480   -2.9264870   -1.3535980  
H     9.4263000   -1.0902090    0.2655390  
H     6.5541260   -4.4775410   -1.9536020  
H     8.6471410   -3.3725280   -1.0971870  
C    -6.7020990    0.3449000    2.9498720  
C    -5.5791500    0.4083070    2.1878780  
C    -5.8921780   -0.1725240    0.9017900  
C    -7.3160520   -0.5828970    0.9775930  
N    -7.7407280   -0.2622680    2.2505020  
C    -8.0146850   -1.1725050   -0.0279950  
C    -7.3236920   -1.3844750   -1.2845930  
O    -7.8222260   -1.9366380   -2.2533710  
C    -5.8510680   -0.8405950   -1.4220360  
O    -5.3756390   -0.8448150   -2.5565610  
C    -5.1309380   -0.3418950   -0.2362580  
H    -4.6264640    0.8183880    2.4826520  
H    -9.0428270   -1.5066560    0.0659870  
H    -6.8646380    0.6894250    3.9625090  
H    -8.6864940   -0.3666570    2.5824900  
