60


C     1.2362920    0.6139080   -0.4250740  
C     0.8856810   -0.7158170   -0.1940510  
C     2.1300230   -1.4676820   -0.2073160  
C     3.1662920   -0.5398010   -0.4512630  
N     2.5836650    0.7130020   -0.5877950  
C     4.5186500   -0.9163420   -0.5414890  
C     4.8094810   -2.2723810   -0.3829310  
O     6.0987110   -2.6992850   -0.4673880  
C     3.7700570   -3.2082880   -0.1525080  
O     4.2236400   -4.5026010   -0.0283370  
C     2.4433500   -2.8293580   -0.0601030  
H     3.0958170    1.5784200   -0.6856850  
H     6.0935040   -3.6604030   -0.3088340  
H     3.4836200   -5.0880560    0.1929980  
H     1.6484930   -3.5468560    0.1147760  
H     0.6085410    1.4915750   -0.4792810  
C    -0.4400470   -1.2098990    0.0052650  
C    -1.6422010   -0.5109410    0.0046650  
C    -2.6581590   -1.4669960    0.2435070  
C    -1.9097420   -2.7697670    0.3655610  
N    -0.6214220   -2.6062580    0.2319640  
C    -2.5800450   -4.0147200    0.5822670  
C    -3.9318180   -3.9805690    0.6644040  
O    -4.6942160   -5.0533290    0.8676750  
C    -4.7362630   -2.6876770    0.5689740  
O    -5.9432980   -2.8183240    0.7594240  
C    -4.0421260   -1.4100330    0.3243460  
H    -1.7786220    0.5447740   -0.1734380  
H    -2.0170530   -4.9370380    0.6710340  
H    -5.6156660   -4.6981760    0.9153110  
C    -4.8027830   -0.1852300    0.2013490  
C    -4.4222700    1.0867140    0.5584080  
C    -5.5265090    1.9429030    0.2078280  
C    -6.5345590    1.0101680   -0.3941380  
N    -6.1197190   -0.2207550   -0.3898960  
C    -7.7949960    1.4918540   -0.9014980  
C    -8.0497160    2.8166720   -0.7946760  
O    -9.1790250    3.4063840   -1.2134450  
C    -7.0592010    3.7783460   -0.1770580  
O    -7.3871390    4.9656510   -0.1300950  
C    -5.7786350    3.2704130    0.3197340  
H    -3.5174730    1.3833720    1.0685650  
H    -8.5048470    0.7990880   -1.3394010  
H    -9.0630960    4.3596560   -0.9979750  
H    -5.0894200    3.9912830    0.7488960  
C     6.4745890   -0.0938320   -1.8651810  
C     7.3300080    0.9554490   -1.8895330  
C     6.9800270    1.8254320   -0.7875210  
C     5.8311250    1.1795210   -0.1017950  
N     5.5498170    0.0181260   -0.8135740  
C     5.2281810    1.6794230    1.0103790  
C     5.7181860    2.9419300    1.5607850  
O     5.2331120    3.4650270    2.5522990  
C     6.9174100    3.6523740    0.8349800  
O     7.3264060    4.7170850    1.2699860  
C     7.4979110    2.9996890   -0.3417990  
H     8.1303840    1.1130440   -2.5978230  
H     4.4245790    1.1725720    1.5336950  
H     8.3412740    3.4865600   -0.8222080  
H     6.4188710   -0.9562930   -2.5135750  
