60


C    -1.5601160   -0.8946650    0.0372490  
C    -0.2720530   -0.9565550   -0.4318860  
C     0.5052410   -1.6379440    0.5638150  
C    -0.3855360   -1.9910530    1.6112960  
N    -1.6418740   -1.5262300    1.2682520  
C     0.0047000   -2.7149030    2.7414420  
C     1.3298730   -3.1144190    2.8005330  
O     1.7808700   -3.8311060    3.8630870  
C     2.2435310   -2.7947100    1.7598000  
O     3.5262820   -3.2480840    1.9884720  
C     1.8700710   -2.0348260    0.6460860  
H     0.0661460   -0.5797600   -1.3847630  
H    -2.4452350   -1.4983160    1.8775650  
H    -0.6806830   -2.9815700    3.5390150  
H     2.7223980   -4.0123970    3.6789530  
H     3.8402750   -3.7024730    1.1791940  
C     2.8917080    1.8885620   -1.1269560  
C     3.8795720    1.5305720   -2.0150620  
C     4.0390210    0.1127260   -1.8788060  
C     3.0245880   -0.2831830   -0.8408440  
N     2.3716210    0.7491650   -0.4078560  
C     2.8594140   -1.6670200   -0.3909290  
C     3.7349570   -2.5454680   -0.9516540  
O     3.7757870   -3.8628070   -0.6316280  
C     4.7589370   -2.1849810   -1.9914010  
O     5.4628120   -3.1086140   -2.4139920  
C     4.8677660   -0.8038490   -2.4405730  
H     4.4459690    2.1765480   -2.6713700  
H     4.4900660   -4.2312720   -1.2085890  
H     5.6186150   -0.5725740   -3.1891000  
C     2.6504420    4.4006900   -1.3675550  
C     2.3375470    3.1706090   -0.8286490  
C     1.2753230    3.4763740    0.1537190  
C     1.1006430    4.9500130    0.0484910  
N     1.9138140    5.4688570   -0.8466200  
C     0.1507870    5.6642720    0.8483010  
C    -0.6019500    4.9459130    1.7205100  
O    -1.5284530    5.4760760    2.5270620  
C    -0.4553790    3.4499510    1.8456440  
O    -1.1887930    2.8736330    2.6450180  
C     0.5415800    2.7408290    1.0117810  
H     0.0513950    6.7392110    0.7473900  
H    -1.9042530    4.7214940    3.0330890  
H     0.6448040    1.6669850    1.1211730  
H     3.3912060    4.6063570   -2.1319410  
C    -2.6857930    1.0025680   -1.0928690  
C    -3.8959650    1.3192860   -1.6131150  
C    -4.7711200    0.1869600   -1.3934000  
C    -3.9524640   -0.8401090   -0.7019880  
N    -2.6849460   -0.2814280   -0.5290850  
C    -4.4070740   -2.0696150   -0.3496840  
C    -5.7994290   -2.4055800   -0.6445770  
O    -6.2934910   -3.4865060   -0.3637210  
C    -6.6916890   -1.3220630   -1.3518160  
O    -7.8605870   -1.5804840   -1.5910500  
C    -6.0749490   -0.0393640   -1.7011670  
H    -4.1634070    2.2489660   -2.0940930  
H    -3.7888640   -2.8228800    0.1261470  
H    -6.6931270    0.6953960   -2.2081290  
H    -1.7741440    1.5827590   -1.0477900  
