58


C     5.4372570    0.5949050   -1.9542580  
C     6.6482770    0.1410930   -2.3548300  
C     7.1655540   -0.7061550   -1.3013170  
C     6.1421580   -0.7051360   -0.2283310  
N     5.0981240    0.1156240   -0.6787460  
C     6.2385680   -1.4302890    0.9108430  
C     7.4380590   -2.2444900    1.1187230  
O     7.5996840   -2.9377880    2.1100160  
C     8.5499930   -2.2301390    0.0097120  
O     9.5596160   -2.8967420    0.1715320  
C     8.3138640   -1.4230410   -1.1899610  
H     7.1465060    0.3825170   -3.2827920  
H     5.4860840   -1.4316780    1.6903560  
H     9.0726520   -1.4377920   -1.9664360  
H     4.7533390    1.2667260   -2.4550880  
C     0.9241880   -0.2048550   -1.9414870  
C     2.2756440   -0.2962800   -1.8691110  
C     2.6780390    0.2635920   -0.5983030  
C     1.4385070    0.6953140    0.0800890  
N     0.3898090    0.3992940   -0.7971940  
C     1.3730170    1.2185070    1.3304720  
C     2.6209520    1.4003760    2.0627520  
O     2.6731120    1.8047530    3.2119100  
C     3.9717050    1.0501450    1.3377120  
O     5.0243030    1.3239450    1.8815510  
C     3.9028040    0.4184660   -0.0042590  
H     2.9247690   -0.7232710   -2.6188030  
H     0.4448900    1.4956850    1.8171130  
H     0.2523850   -0.5141140   -2.7309950  
C    -1.9212600   -0.3782840   -0.4832870  
C    -0.9791470    0.5963030   -0.5480230  
C    -1.6478940    1.8781750   -0.3825050  
C    -3.0837110    1.5662280   -0.2087630  
N    -3.1989880    0.1527300   -0.2904800  
C    -4.0315110    2.5137900   -0.0249730  
C    -3.6150560    3.9251430   -0.0081760  
O    -4.4117480    4.8328940    0.1543070  
C    -2.1012850    4.2666920   -0.2156230  
O    -1.7424240    5.4312700   -0.2291750  
C    -1.1691930    3.1461320   -0.3920040  
H    -5.0780630    2.2758920    0.1021460  
H    -0.1171200    3.3754150   -0.5254530  
H    -1.7852830   -1.4465490   -0.5619810  
C    -4.3293900   -0.6351620   -0.1934030  
C    -4.4059730   -2.0078910   -0.2765360  
C    -5.7964640   -2.3030690   -0.1098910  
C    -6.4487220   -0.9562770    0.0681420  
N    -5.5702920    0.0099360    0.0159390  
C    -7.8595390   -0.8127870    0.2661900  
C    -8.5965500   -1.9512280    0.2888670  
O    -9.9151440   -1.9876300    0.4628900  
C    -7.9714590   -3.3317420    0.1123890  
O    -8.7494180   -4.2857800    0.1516220  
C    -6.5351830   -3.4449310   -0.0874180  
H    -3.6154280   -2.7275000   -0.4266350  
H    -8.3021740    0.1687610    0.3918410  
H   -10.1536610   -2.9448100    0.4313550  
H    -6.1208340   -4.4403800   -0.2090720  
