60


C     4.4709960   -1.0667750    2.0729410  
C     5.2129880   -2.1032900    1.6074850  
C     4.3687390   -2.8679980    0.7158310  
C     3.0479570   -2.1865230    0.7231240  
N     3.1592250   -1.1272150    1.6045860  
C     1.9537770   -2.5922180    0.0067740  
C     2.1778330   -3.7135600   -0.9372600  
O     1.3628190   -4.0359110   -1.7842350  
C     3.5350570   -4.5030840   -0.8769400  
O     3.6505690   -5.5121160   -1.5555160  
C     4.5973380   -3.9872470   -0.0217310  
H     6.2436840   -2.3191930    1.8483910  
H     5.5435560   -4.5193710   -0.0068650  
H     4.7603220   -0.2636320    2.7380460  
H     2.5643810   -0.3112810    1.4750630  
C     0.5303370    1.5768050   -0.0167810  
C    -0.8501390    1.3965930   -0.0680690  
C    -1.0504780    0.0019320   -0.0471520  
C     0.3414490   -0.5777390    0.0117890  
N     1.2520990    0.3772510    0.0326850  
C     0.6097700   -1.9846460    0.0629840  
C    -0.5211090   -2.7634700    0.1640190  
O    -0.4870220   -4.0674640    0.3442880  
C    -1.9565370   -2.2313950    0.0776950  
O    -2.8153100   -3.1109420    0.0782440  
C    -2.1914620   -0.7924620   -0.0311910  
H    -1.6126630    2.1564650   -0.1047160  
H    -1.4376450   -4.3520750    0.3141370  
C    -3.5349830   -0.2663750   -0.1083060  
C    -3.9630300    0.8776650   -0.7425770  
C    -5.3797130    0.9572700   -0.5008800  
C    -5.6736820   -0.2451700    0.3457970  
N    -4.6089240   -0.9564540    0.5650980  
C    -7.0042200   -0.5173180    0.8284060  
C    -7.9888490    0.3392900    0.4700300  
O    -9.2726370    0.2116760    0.8348470  
C    -7.7253210    1.5506340   -0.3972960  
O    -8.6920060    2.2684000   -0.6626750  
C    -6.3643420    1.8163150   -0.8649840  
H    -3.3828480    1.5395920   -1.3688120  
H    -7.1907900   -1.3890660    1.4454830  
H    -9.7317100    0.9774980    0.4205900  
H    -6.2113410    2.6989090   -1.4785170  
C     0.5743100    4.0114490    0.1778480  
C     1.5015560    5.0013090    0.1893340  
C     2.7979220    4.3916180    0.0113780  
C     2.5997660    2.9966600   -0.1021220  
N     1.2061790    2.7640200    0.0104690  
C     3.6577680    2.1128290   -0.3287730  
C     4.9383730    2.6512820   -0.4075720  
O     5.9976800    1.8217930   -0.6146850  
C     5.1521190    4.0446610   -0.2778360  
O     6.4715600    4.4237680   -0.3775790  
C     4.0942760    4.9180140   -0.0752920  
H     1.2963380    6.0557480    0.3158120  
H     3.5099550    1.0502020   -0.4554600  
H     6.7963560    2.3738890   -0.6767950  
H     6.5426590    5.3891300   -0.3353170  
H     4.2690680    5.9882820    0.0095570  
H    -0.4953980    4.0577430    0.3039880  
