58


C     4.9961450    0.2802710    0.1130370  
C     5.3213820   -1.0629610    0.0571020  
C     6.7403730   -1.1667730   -0.1500430  
C     7.2472500    0.2265800   -0.2159400  
N     6.1467040    1.0431900   -0.0664710  
C     8.5513740    0.5579560   -0.3914940  
C     9.5292900   -0.5187450   -0.5279590  
O    10.7231200   -0.3171920   -0.6896770  
C     9.0135040   -2.0036690   -0.4629580  
O     9.8184640   -2.9161460   -0.5769060  
C     7.5818260   -2.2322040   -0.2682510  
H     4.6662100   -1.8963110    0.2640700  
H     8.9052230    1.5831430   -0.4354040  
H     7.2380770   -3.2612940   -0.2215900  
H     6.1407970    2.0451780    0.0817050  
C     0.9242110   -1.2063290   -0.4978210  
C     0.1923470   -0.1546390   -0.0211550  
C     1.1657270    0.8690660    0.3781520  
C     2.5025990    0.2948720    0.1122180  
N     2.2839380   -0.9605560   -0.4007630  
C     3.7115740    0.9222350    0.3315170  
C     3.6281360    2.3255690    0.7757110  
O     4.5919370    3.0781030    0.8368450  
C     2.2312190    2.9008490    1.1941240  
O     2.1906080    3.9993240    1.7193380  
C     1.0323440    2.1043670    0.9241380  
H     0.0731920    2.5538060    1.1476770  
H     0.5694130   -2.1326900   -0.9285880  
H     3.0039410   -1.4999830   -0.8625930  
C    -2.8817230   -3.1379120    1.1817600  
C    -1.6890560   -2.5203220    1.0066590  
C    -2.0150830   -1.2091090    0.4559820  
C    -3.5071570   -1.2127210    0.3753760  
N    -4.0017710   -2.3446720    0.7915050  
C    -4.2630020   -0.0757640   -0.1258780  
C    -3.5279150    1.0164240   -0.4815310  
O    -4.0773460    2.1661410   -0.8951360  
C    -2.0317620    1.0518850   -0.4150160  
O    -1.4773880    2.0898830   -0.7723590  
C    -1.2679380   -0.1451640    0.0546560  
H    -0.7052770   -2.8947940    1.2502920  
H    -3.3295360    2.7569210   -1.1292220  
H    -3.0665790   -4.1286800    1.5794920  
C    -7.7090410   -0.8618290    2.6086640  
C    -6.4674190   -0.6850280    2.0884090  
C    -6.6236580   -0.4058110    0.6785950  
C    -8.0863250   -0.4292780    0.4179130  
N    -8.6844850   -0.7165370    1.6281160  
C    -8.6689700   -0.1878720   -0.7839870  
C    -7.8052650    0.1144060   -1.9153130  
O    -8.2270100    0.3662460   -3.0333220  
C    -6.2501520    0.1124960   -1.6844580  
O    -5.5241570    0.2747740   -2.6489630  
C    -5.7242540   -0.1223260   -0.3145410  
H    -5.5337800   -0.7658990    2.6214060  
H    -9.7432520   -0.1937180   -0.9404470  
H    -7.9996500   -1.0905250    3.6254950  
H    -9.6787890   -0.7852900    1.7764340  
