64


C     3.0945570   -0.1816650    0.5203490  
C     1.8219990    0.0917270    0.0826540  
C     1.5729120    1.4748790    0.3736860  
C     2.7463760    1.9978830    0.9778590  
N     3.6666190    0.9670050    1.0483560  
C     2.8689540    3.3332660    1.3742750  
C     1.7771760    4.1619060    1.1625530  
O     1.8296720    5.4703630    1.5484650  
C     0.5981800    3.6644120    0.5516570  
O    -0.4018060    4.6042300    0.4151780  
C     0.4683210    2.3342380    0.1445370  
H     1.1606000   -0.6005890   -0.4168480  
H     4.5340960    0.9827290    1.5628810  
H     3.7655180    3.7321600    1.8374830  
H     0.9632090    5.8626370    1.3428520  
H    -1.2102950    4.1546400    0.1133780  
C     3.2411300   -2.6235060    0.8645400  
C     4.1859910   -3.6035670    0.7576900  
C     5.4069890   -2.9754780    0.3338150  
C     5.1369040   -1.5910130    0.1894920  
N     3.7974570   -1.3884760    0.5297880  
C     6.1035430   -0.6774000   -0.2516710  
C     7.3716240   -1.1684350   -0.5257640  
O     8.3492960   -0.3175770   -0.9558330  
C     7.6644510   -2.5476630   -0.3679390  
O     8.9708150   -2.8810080   -0.6739140  
C     6.7023390   -3.4487840    0.0501580  
H     4.0346430   -4.6539720    0.9655840  
H     5.8955290    0.3750120   -0.4076200  
H     9.1459690   -0.8526930   -1.1141650  
H     9.0840530   -3.8402800   -0.6031710  
H     6.9445910   -4.5049140    0.1523120  
H     2.2062300   -2.6692520    1.1703700  
C    -2.6636100   -0.6013890    1.4777160  
C    -1.5549170    0.1875830    1.3885410  
C    -1.6271080    0.8833340    0.1323700  
C    -2.8140100    0.4619830   -0.5152300  
N    -3.4485620   -0.4579130    0.3277640  
C    -3.2307280    0.9916560   -1.7413410  
C    -2.4147020    1.9409240   -2.3357930  
O    -2.7623830    2.4760250   -3.5408810  
C    -1.2151430    2.3656300   -1.7090910  
O    -0.5046030    3.3024730   -2.4272330  
C    -0.7995270    1.8592000   -0.4764600  
H    -0.7606590    0.2567010    2.1179280  
H    -4.1304670    0.6708370   -2.2505750  
H    -2.0361280    3.0631380   -3.8143470  
H     0.3716210    3.4086020   -2.0170520  
H    -2.9641290   -1.3055390    2.2395310  
C    -6.9571230   -0.9119700    2.9093590  
C    -5.7650400   -0.5267010    2.3845400  
C    -5.6481470   -1.1503700    1.0827190  
C    -6.8847830   -1.9399740    0.8877060  
N    -7.6276570   -1.7643500    2.0383130  
C    -7.1953540   -2.6556440   -0.2267090  
C    -6.2414210   -2.6627200   -1.3198320  
O    -6.4321160   -3.2243000   -2.3880950  
C    -4.8766720   -1.8985300   -1.1244850  
O    -4.0227220   -1.9989960   -1.9853040  
C    -4.6738060   -1.1100550    0.1194430  
H    -5.0455810    0.1335720    2.8437500  
H    -8.1222590   -3.2080160   -0.3428720  
H    -7.4084700   -0.6452100    3.8556520  
H    -8.5484330   -2.1456470    2.1882500  
