58


C     4.6065850    0.4237800   -0.0112750  
C     5.9754160    0.2914490   -0.0505680  
C     6.2744990   -1.1094940   -0.1713190  
C     4.9651750   -1.8141340   -0.2050520  
N     4.0059390   -0.8321220   -0.0933840  
C     4.8243080   -3.1589790   -0.3230620  
C     6.0282350   -3.9797290   -0.4168190  
O     5.9994620   -5.1961590   -0.5221590  
C     7.4244450   -3.2564520   -0.3759410  
O     8.4430900   -3.9259750   -0.4506800  
C     7.4489610   -1.7967320   -0.2501970  
H     6.6953470    1.0949300    0.0086840  
H     3.8607850   -3.6582390   -0.3497590  
H     8.4183210   -1.3081060   -0.2268670  
H     3.0045010   -0.9496030   -0.1298870  
C     3.7789800    1.5963970    0.0960310  
C     4.1276430    2.9172950    0.1103250  
C     2.8851080    3.6432650    0.2212900  
C     1.8276590    2.5812320    0.2661070  
N     2.3563630    1.3951170    0.1904480  
C     0.4058040    2.8965870    0.3733610  
C     0.1091390    4.2292480    0.4570450  
O    -1.1361930    4.7026670    0.6184100  
C     1.1481850    5.3118670    0.4020330  
O     0.7551160    6.4760090    0.4886440  
C     2.5669870    4.9552760    0.2746800  
H     5.1174040    3.3456710    0.0380960  
H    -1.0396100    5.6826720    0.6435120  
H     3.2877570    5.7659760    0.2394960  
C    -0.4214280    0.6106250    1.0183590  
C    -0.5902150    1.8245160    0.4075730  
C    -1.9159530    1.7856720   -0.2134250  
C    -2.4937230    0.4616310    0.1212750  
N    -1.5330440   -0.1939540    0.8619940  
C    -3.7148560    0.0007860   -0.2918480  
C    -4.5414530    0.9329010   -1.0888630  
O    -5.7000390    0.6975340   -1.3815200  
C    -3.9091680    2.2954130   -1.5302530  
O    -4.5421260    3.0220650   -2.2781600  
C    -2.5830380    2.6521840   -1.0196980  
H    -2.1822490    3.6153050   -1.3078130  
H     0.4369800    0.2507780    1.5655680  
H    -1.6683690   -1.0940650    1.2990780  
C    -4.2841000   -2.4889440    3.4118140  
C    -3.9686940   -1.4467770    2.6002070  
C    -4.3038490   -1.9003810    1.2544750  
C    -4.8337320   -3.2834840    1.4660360  
N    -4.8122450   -3.6201980    2.7268930  
C    -5.3143960   -4.0897190    0.3760670  
C    -5.2647270   -3.5593480   -0.8676840  
O    -5.6701990   -4.1989320   -1.9738420  
C    -4.6830830   -2.1936660   -1.1289120  
O    -4.5381270   -1.8621690   -2.2990670  
C    -4.2369340   -1.3356320    0.0189030  
H    -3.6031860   -0.4704600    2.8858690  
H    -5.7012440   -5.0846240    0.5658800  
H    -5.4685550   -3.5943170   -2.7212320  
H    -4.1915100   -2.5380690    4.4907170  
