58


C     0.0641960    0.0440310    0.3792210  
C     1.4331000    0.1916090    0.3430050  
C     2.0222190   -1.1077470    0.2634430  
C     0.8953830   -2.0629420    0.2796660  
N    -0.2713400   -1.3076780    0.2693610  
C     1.0105670   -3.4140350    0.3013500  
C     2.3500870   -3.9813350    0.3226820  
O     2.5750140   -5.1798100    0.3241870  
C     3.5714940   -2.9965210    0.3511790  
O     4.6794300   -3.4901400    0.5204350  
C     3.3425520   -1.5401130    0.1949540  
H     1.9519470    1.1362100    0.3690030  
H     0.1608290   -4.0890840    0.2964640  
H    -1.1499320   -1.6793380    0.6067640  
C    -0.9593680    1.0519610    0.4725020  
C    -0.8856060    2.3293380    0.9617070  
C    -2.1931160    2.9228300    0.8533590  
C    -3.0696270    1.8922580    0.2658510  
N    -2.2803840    0.7521240    0.1000380  
C    -4.3901350    2.0636140   -0.0637060  
C    -4.9231950    3.4401210    0.1557880  
O    -6.0354310    3.7789820   -0.2033510  
C    -4.0297030    4.5089810    0.8880720  
O    -4.5312040    5.5882040    1.1602160  
C    -2.6466800    4.1668190    1.1841660  
H    -0.0137890    2.7916620    1.4025320  
H    -2.0148390    4.9237830    1.6373240  
H    -2.4780750    0.0928150   -0.6421910  
C     4.4696900   -0.6493850    0.0103300  
C     4.5022200    0.6332100   -0.5119150  
C     5.8675300    1.0683680   -0.5394910  
C     6.6691090   -0.0561280    0.0037420  
N     5.7687580   -1.0470700    0.3258770  
C     8.0203930   -0.0388010    0.1292510  
C     8.7431840    1.1594900   -0.2888130  
O     9.9573970    1.2671440   -0.2113940  
C     7.9129420    2.3652070   -0.8641920  
O     8.5001480    3.3771840   -1.2170520  
C     6.4588980    2.2259070   -0.9547810  
H     3.6642010    1.1837440   -0.9093680  
H     8.5924390   -0.8716080    0.5258600  
H     5.8956550    3.0627430   -1.3569890  
H     5.9752040   -2.0022660    0.5911670  
C    -6.3158700    1.2156260   -1.4825920  
C    -5.2626810    1.0419800   -0.6197350  
C    -5.2697900   -0.4125410   -0.3475850  
C    -6.3862980   -0.9405620   -1.1941520  
N    -6.9849740    0.0198990   -1.8422460  
C    -6.7274700   -2.3361080   -1.2198000  
C    -6.0221090   -3.1811070   -0.4274190  
O    -6.2301030   -4.5039820   -0.3637590  
C    -4.9185620   -2.6802590    0.4579690  
O    -4.2827550   -3.4999080    1.1196140  
C    -4.6085950   -1.2357360    0.4897040  
H    -7.5353300   -2.6810180   -1.8554800  
H    -5.5763240   -4.8510800    0.2808080  
H    -3.8419770   -0.9172050    1.1873730  
H    -6.6629350    2.1501580   -1.8981920  
