60


C    -1.5474460    0.1561340    1.0814910  
C    -2.1911360    1.2389060    0.5373360  
C    -3.2690140    0.6968010   -0.2742180  
C    -3.1550660   -0.7137780   -0.2367560  
N    -2.0896670   -1.0367130    0.6286380  
C    -3.9789530   -1.5557800   -0.9914130  
C    -4.9664370   -0.9595110   -1.7670330  
O    -5.8014110   -1.7388250   -2.5089350  
C    -5.1171070    0.4491750   -1.7845250  
O    -6.1523000    0.8894730   -2.5804420  
C    -4.2792710    1.2777750   -1.0590800  
H    -3.8660560   -2.6332500   -1.0208330  
H    -6.4129530   -1.1431320   -2.9765470  
H    -6.2150400    1.8552920   -2.5283610  
H    -4.4128430    2.3547910   -1.0662770  
H    -0.7263920    0.1354840    1.7801090  
C     1.9468520    2.5004910    0.2377380  
C     1.7899530    3.8521640    0.4413460  
C     0.3898380    4.1126420    0.6271040  
C    -0.2871920    2.8010430    0.5369070  
N     0.7057390    1.8675900    0.3187340  
C    -1.6440020    2.5935600    0.6312580  
C    -2.4754170    3.7988000    0.7655880  
O    -3.6979130    3.7687670    0.7500090  
C    -1.7696070    5.1991690    0.9259110  
O    -2.4751910    6.1823360    1.1018840  
C    -0.3172390    5.2631330    0.8347990  
H     2.5808940    4.5874150    0.4633620  
H     0.1549890    6.2367520    0.9193300  
H     0.5224750    0.8953260    0.0906110  
C     3.1637870    1.7576270   -0.0087340  
C     4.4285690    2.2685530   -0.1861520  
C     5.3241860    1.1657750   -0.3986950  
C     4.4880090   -0.0577900   -0.3332820  
N     3.1939030    0.3642820   -0.0986170  
C     4.9601620   -1.3221940   -0.4782830  
C     6.3892790   -1.4981250   -0.7218450  
O     6.9128180   -2.5928720   -0.8661210  
C     7.2970740   -0.2137040   -0.8012930  
O     8.4947620   -0.3461160   -1.0066140  
C     6.6669530    1.0951490   -0.6234360  
H     4.6957620    3.3151790   -0.1767070  
H     4.3239200   -2.1996540   -0.4162150  
H     7.3020530    1.9743180   -0.6759270  
H     2.4103500   -0.2768790   -0.0088540  
C    -3.3250720   -5.1239130    1.5417920  
C    -2.1371810   -5.7503370    1.3428290  
C    -1.1678840   -4.7376540    0.9824170  
C    -1.9076610   -3.4553230    0.9835140  
N    -3.1999910   -3.7498200    1.3327880  
C    -1.3548900   -2.2356000    0.6803380  
C     0.0709810   -2.2143850    0.3681730  
O     0.6898380   -1.1870750    0.0866250  
C     0.8790260   -3.5658890    0.3979040  
O     2.0801000   -3.5055810    0.1822500  
C     0.1650220   -4.7960720    0.7017270  
H    -1.9443590   -6.8084120    1.4411920  
H     0.7285180   -5.7229700    0.7040770  
H    -4.2835030   -5.5359890    1.8270890  
H    -3.9480190   -3.0735580    1.3833390  
