58


C     6.0577890   -1.5278620   -0.4761850  
C     5.1305760   -0.5565820   -0.2073260  
C     5.8949450    0.6622650    0.0869420  
C     7.3273080    0.2939180   -0.0309590  
N     7.3492510   -1.0465900   -0.3721380  
C     8.3690450    1.1391880    0.1702050  
C     8.0775160    2.5180680    0.5493390  
O     8.9448750    3.3534210    0.7528900  
C     6.5695630    2.9281280    0.7095360  
O     6.2990530    4.0677020    1.0516060  
C     5.5342430    1.9199020    0.4444670  
H     9.4080600    0.8396780    0.0725450  
H     4.5013890    2.2362260    0.5266700  
H     5.8863850   -2.5552270   -0.7683410  
H     8.1825590   -1.5693490   -0.5938800  
C     2.5434360   -3.8355040    1.2608390  
C     3.5837320   -3.0005990    1.0132890  
C     3.0552760   -1.8577900    0.3013770  
C     1.5925490   -2.0896520    0.1794760  
N     1.3508530   -3.2922740    0.7993770  
C     0.6648170   -1.2197690   -0.3803630  
C     1.2502140    0.0160670   -0.8902050  
O     0.6054600    0.9750910   -1.3167350  
C     2.8126670    0.2199530   -0.9031940  
O     3.2390340    1.1928280   -1.4999190  
C     3.6818790   -0.7477620   -0.2109950  
H     4.6076100   -3.1422260    1.3226700  
H     2.5335980   -4.7939990    1.7625790  
H     0.5451580   -3.8461920    0.5236910  
C    -2.8653630    1.3926590    0.2847550  
C    -3.8871100    0.4974040    0.1495140  
C    -3.2502090   -0.7829090   -0.1730250  
C    -1.7821610   -0.5333880   -0.1912290  
N    -1.6265060    0.7905230    0.1336570  
C    -0.7975450   -1.4789340   -0.4366060  
C    -1.3103220   -2.8135160   -0.7673830  
O    -0.5944410   -3.7907250   -0.9831290  
C    -2.8601110   -3.0716200   -0.8418320  
O    -3.2385960   -4.1771440   -1.1900730  
C    -3.7723260   -1.9949930   -0.4765730  
H    -4.8339290   -2.2076690   -0.4630380  
H    -2.9192020    2.4459250    0.5261120  
H    -0.7811590    1.2795190   -0.1549780  
C    -6.3761550    3.8335370   -1.3838270  
C    -5.3651500    2.9602080   -1.1354750  
C    -5.8878880    1.9233220   -0.2703660  
C    -7.3113580    2.2680550   -0.0384870  
N    -7.5354550    3.4464890   -0.7232080  
C    -8.1854260    1.5330970    0.6978440  
C    -7.6986070    0.3071110    1.3058040  
O    -8.4003090   -0.4487300    1.9604110  
C    -6.1827290   -0.0719130    1.1079600  
O    -5.7674690   -1.0765070    1.6610820  
C    -5.3135870    0.8030860    0.2815750  
H    -4.3648070    3.0174650   -1.5361600  
H    -9.2250550    1.8085210    0.8445000  
H    -6.3765620    4.7260630   -1.9953250  
H    -8.4289510    3.9076840   -0.7932710  
