62


C     0.9126350   -2.1168780    0.0161730  
C     1.4588680   -3.3877930   -0.1716600  
C     2.8642740   -3.2421530   -0.2579060  
C     3.1513420   -1.8493000   -0.1356830  
N     1.9625970   -1.2055720    0.0272440  
C     4.4715140   -1.3248900   -0.1746020  
C     5.4892300   -2.2817580   -0.2898440  
O     6.7990070   -1.8993500   -0.3137480  
C     5.2110380   -3.6728140   -0.4118340  
O     6.3507360   -4.4391370   -0.5342850  
C     3.9252550   -4.1617510   -0.4105300  
H     0.9048730   -4.3068110   -0.2808100  
H     1.7913190   -0.2147280    0.1490870  
H     7.3368060   -2.7053490   -0.4209650  
H     6.1152090   -5.3723490   -0.6440620  
H     3.7336080   -5.2274970   -0.5094380  
C    -2.9870800   -4.1803350    0.7780270  
C    -1.6530460   -3.9477460    0.6796750  
C    -1.5262230   -2.5286640    0.3877260  
C    -2.9208860   -2.0448180    0.3564420  
N    -3.7679790   -3.0187950    0.5707620  
C    -3.2617780   -0.6340240    0.1172890  
C    -2.1776290    0.2053560   -0.0322250  
O    -2.3114470    1.5546270   -0.2143200  
C    -0.7946990   -0.2347580    0.0056020  
O     0.0859980    0.6511010   -0.0941880  
C    -0.4617450   -1.6945980    0.1495180  
H    -0.8546430   -4.6546890    0.8458070  
H    -1.3880460    1.8877300   -0.2611780  
H    -3.4894060   -5.1136280    1.0015160  
C    -4.6260210   -0.1861250    0.0699830  
C    -5.8183670   -0.9082810    0.2032690  
C    -6.8890470    0.0039030    0.0720850  
C    -6.3180070    1.2970360   -0.1436050  
N    -4.9590780    1.1521750   -0.1413640  
C    -7.1011100    2.4453350   -0.3157320  
C    -8.4767340    2.2888030   -0.2701290  
O    -9.2874180    3.3667080   -0.4304940  
C    -9.0667180    1.0033870   -0.0557610  
O   -10.4463420    1.0332370   -0.0401500  
C    -8.2989750   -0.1252120    0.1132900  
H    -5.8628290   -1.9715280    0.3766510  
H    -4.2662760    1.8777620   -0.2596670  
H    -6.6770940    3.4302460   -0.4794800  
H   -10.2067680    3.0532550   -0.3656150  
H   -10.7898820    0.1402380    0.1115710  
H    -8.7640250   -1.0951430    0.2754490  
C     4.7361960    0.1092030   -0.1078560  
C     3.9131750    1.1658330   -0.4231840  
C     4.6411790    2.3850660   -0.1904990  
C     5.9827760    1.9754940    0.2933700  
N     5.9674880    0.5996750    0.3429420  
C     6.9811810    2.8405710    0.6077630  
C     6.7287370    4.2711110    0.4704250  
O     7.5660030    5.1237520    0.7279550  
C     5.3090080    4.7289390   -0.0320230  
O     5.0817480    5.9246580   -0.1479200  
C     4.3177640    3.6996800   -0.3415300  
H     2.9185740    1.1119000   -0.8390940  
H     7.9579750    2.5222810    0.9589150  
H     3.3429440    4.0267820   -0.6904870  
H     6.7735400    0.0074460    0.4757120  
