62


C    -2.4701090   -0.8125960   -0.5674340  
C    -1.5632300    0.2183030   -0.5865950  
C    -2.3211370    1.4260290   -0.3359710  
C    -3.6790020    1.0569110   -0.1808230  
N    -3.7589640   -0.3292170   -0.3294190  
C    -4.6843310    1.9894100    0.0979060  
C    -4.3127710    3.3217650    0.1926400  
O    -5.2553590    4.2718790    0.4543120  
C    -2.9598110    3.7123800    0.0121790  
O    -2.7468980    5.0741340    0.1282860  
C    -1.9674230    2.7864310   -0.2497880  
H    -5.7276260    1.7182790    0.2001270  
H    -4.8106560    5.1362270    0.4145770  
H    -1.8646030    5.2909570   -0.2077220  
H    -0.9362090    3.1024790   -0.3878020  
H    -2.3151270   -1.8671400   -0.7485960  
C     0.4601770   -0.6009910   -1.8793730  
C    -0.1279360    0.1005700   -0.8502840  
C     0.9583700    0.6646140   -0.0795680  
C     2.1698340    0.2730090   -0.7011930  
N     1.8332400   -0.4909480   -1.7982830  
C     3.4528150    0.6036620   -0.1998220  
C     3.4602570    1.3553760    0.9812910  
O     4.6467110    1.7490250    1.5347340  
C     2.2559910    1.7463430    1.6183460  
O     2.4576570    2.4829990    2.7720800  
C     1.0143250    1.4163950    1.1100260  
H     2.4988150   -0.9600090   -2.3931300  
H     4.4303640    2.2858630    2.3177280  
H     1.6032770    2.7682710    3.1280730  
H     0.1045260    1.7231840    1.6203210  
H    -0.0039180   -1.1439440   -2.6905650  
C    -4.3408740   -3.7454940    2.2571450  
C    -5.5935840   -4.1023170    1.8713030  
C    -6.0239940   -3.1544190    0.8643540  
C    -4.8992760   -2.2065590    0.6964440  
N    -3.9067750   -2.6236700    1.5590950  
C    -4.8965540   -1.1443860   -0.1637060  
C    -6.0970890   -0.9417720   -0.9956570  
O    -6.1827640   -0.0639610   -1.8359750  
C    -7.3180750   -1.9193100   -0.7886650  
O    -8.3359950   -1.7079160   -1.4288020  
C    -7.1805200   -3.0213800    0.1583140  
H    -6.1677240   -4.9368330    2.2463180  
H    -8.0208000   -3.6985450    0.2737510  
H    -3.6915870   -4.2036180    2.9914650  
H    -3.0258980   -2.1474940    1.6827000  
C     4.8871870    0.1725370   -2.2509880  
C     4.6719180    0.1946540   -0.9029090  
C     5.9210640   -0.3722790   -0.3407410  
C     6.7623700   -0.6656310   -1.5355270  
N     6.1534830   -0.3404030   -2.6424740  
C     8.0767560   -1.2417350   -1.4153120  
C     8.5280850   -1.5374850   -0.1732100  
O     9.7285630   -2.0836290    0.0874430  
C     7.6945750   -1.2739910    1.0476340  
O     8.1695450   -1.5730620    2.1428180  
C     6.3527810   -0.6696340    0.8985430  
H     8.6664040   -1.4331960   -2.3050650  
H     9.7636320   -2.1761180    1.0648410  
H     5.7947780   -0.4679840    1.8050780  
H     4.2190420    0.5330910   -3.0250690  
