58


C    -2.8889610   -1.0529010    0.1058780  
C    -3.5454120    0.0734380    0.5813890  
C    -4.9541010   -0.1701270    0.5191790  
C    -5.1101110   -1.5405370   -0.0309710  
N    -3.8370230   -2.0068190   -0.2639860  
C    -6.3073410   -2.1464630   -0.2381710  
C    -7.5258700   -1.4137090    0.0936280  
O    -8.6457710   -1.8779990   -0.0615740  
C    -7.3842140    0.0409070    0.6759580  
O    -8.3970790    0.6697620    0.9523390  
C    -6.0418810    0.5833890    0.8594290  
H    -3.0846310    0.9433870    1.0218500  
H    -6.4042660   -3.1506840   -0.6386990  
H    -5.9552040    1.5860820    1.2679430  
H    -3.5566120   -2.9451640   -0.5253070  
C     0.7232350    1.5954600   -0.1249110  
C    -0.5718730    1.0800970   -0.0827560  
C    -0.4921390   -0.3368980   -0.0179150  
C     0.9482490   -0.6576820   -0.0276060  
N     1.6186600    0.5473980   -0.0725400  
C     1.4890830   -1.9143700   -0.0289940  
C     0.5200680   -3.0296610    0.0023960  
O     0.8499020   -4.1849540    0.1911370  
C    -1.0050130   -2.7173270   -0.1499400  
O    -1.7416550   -3.6723730   -0.3777630  
C    -1.4744700   -1.3312560   -0.0009340  
H    -1.4803550    1.6554690   -0.0525910  
H     2.6195070    0.6973050   -0.0240330  
C    -1.3112930    5.2882280   -1.4366650  
C    -0.3462070    6.1873220   -1.1318180  
C     0.7803410    5.4449000   -0.6040210  
C     0.3774350    4.0199840   -0.6070410  
N    -0.8981900    3.9924610   -1.0990020  
C     1.1776900    2.9661300   -0.1960660  
C     2.5688560    3.3158030    0.1461510  
O     3.4451020    2.4841330    0.3505920  
C     2.9710680    4.8284140    0.2599730  
O     4.0781470    5.1008130    0.6913520  
C     2.0068050    5.8391920   -0.1686740  
H    -0.3957320    7.2580350   -1.2643900  
H     2.3127030    6.8799480   -0.1316900  
H    -2.2927130    5.4393960   -1.8650510  
H    -1.3673260    3.1483710   -1.3955650  
C     4.9365640   -0.6794810    2.5393270  
C     3.6945050   -0.8529980    2.0106780  
C     3.8332100   -1.7068890    0.8522890  
C     5.2776700   -2.0349030    0.7591080  
N     5.8880310   -1.3692880    1.8062540  
C     5.8339670   -2.8523720   -0.1702490  
C     4.9584840   -3.4582270   -1.1658860  
O     5.3529300   -4.2384020   -2.0173410  
C     3.4385340   -3.0671240   -1.1491180  
O     2.7350670   -3.4252140   -2.0756080  
C     2.9252570   -2.2105390   -0.0462890  
H     2.7777130   -0.4367650    2.3988980  
H     6.8919680   -3.0939500   -0.1980510  
H     5.2353730   -0.1056730    3.4064780  
H     6.8732940   -1.4069360    2.0159230  
