58


C    -0.6610220    1.6121830    0.0276980  
C    -1.6659370    0.6670490    0.1031390  
C    -1.0656080   -0.6323040    0.0247560  
C     0.3907170   -0.4092790   -0.0696560  
N     0.5640780    0.9428440   -0.0760550  
C     1.3574180   -1.4003780   -0.1103640  
C     0.8445520   -2.7768960   -0.1867330  
O     1.5557730   -3.7632730   -0.3409070  
C    -0.7015240   -3.0381460   -0.0950350  
O    -1.0901130   -4.1832730   -0.2311240  
C    -1.6222790   -1.8924560    0.0582100  
H    -2.7105520    0.8514500    0.2873940  
H     1.4357580    1.4506790   -0.1562460  
C    -3.9861320    4.5638110   -0.3996530  
C    -3.2299390    3.4244540   -0.4090730  
C    -1.8856620    3.7905330   -0.0594460  
C    -1.9116820    5.2577350    0.1445270  
N    -3.2224440    5.6563380   -0.0557390  
C    -0.8442920    6.0282120    0.4712560  
C     0.4489220    5.3733770    0.5996280  
O     1.4722050    5.9589510    0.9070170  
C     0.5316300    3.8315130    0.3138480  
O     1.6527190    3.3395680    0.2795190  
C    -0.7134060    3.0582580    0.0889660  
H    -3.5901980    2.4452720   -0.6772490  
H    -0.9032300    7.0984080    0.6415270  
H    -5.0384440    4.6837350   -0.6211130  
H    -3.5473810    6.6099220   -0.0085960  
C    -5.0775330   -0.6621290   -2.4097900  
C    -6.0681450   -1.2996780   -1.7368580  
C    -5.4589070   -1.9731650   -0.6073410  
C    -4.0112850   -1.6644910   -0.6749280  
N    -3.8507430   -0.8365730   -1.7714380  
C    -3.0589730   -2.1622780    0.1728600  
C    -3.5451670   -3.0226230    1.2802910  
O    -2.8145790   -3.4185520    2.1690150  
C    -5.0750400   -3.3729680    1.3515930  
O    -5.4632490   -4.1229390    2.2321280  
C    -5.9719090   -2.7788700    0.3608760  
H    -7.1162870   -1.3158440   -1.9978230  
H    -7.0265650   -3.0301520    0.4178930  
H    -5.1305290   -0.0704190   -3.3142940  
H    -2.9533170   -0.5855260   -2.1576590  
C     2.7851330   -1.1370080   -0.0895720  
C     3.4871580    0.0005620    0.2682260  
C     4.8880840   -0.2802200    0.1278950  
C     4.9820690   -1.6854470   -0.3390450  
N     3.6878500   -2.1337120   -0.4659240  
C     6.1505800   -2.3355960   -0.5761790  
C     7.4015790   -1.6135510   -0.3692090  
O     8.5004690   -2.1138660   -0.5600630  
C     7.3250570   -0.1194690    0.1193100  
O     8.3652160    0.4994350    0.2937080  
C     6.0063190    0.4697570    0.3452660  
H     3.0914790    0.9207340    0.6699740  
H     6.2003350   -3.3658600   -0.9143780  
H     5.9640510    1.5000980    0.6855820  
H     3.3774980   -3.0861380   -0.6180420  
