60


C     3.3724400   -0.0539550   -0.0802760  
C     3.7543200    1.2614140   -0.2836240  
C     5.1756030    1.3423760   -0.1192890  
C     5.6343140   -0.0332520    0.1941740  
N     4.5030030   -0.8171710    0.2176890  
C     6.9314830   -0.3747640    0.4031480  
C     7.9486410    0.6695620    0.3241680  
O     9.1389650    0.4579180    0.4980890  
C     7.4833580    2.1365130    0.0002040  
O     8.3177870    3.0260510   -0.0674150  
C     6.0543640    2.3819970   -0.2115530  
H     3.1098560    2.0724740   -0.5824290  
H     7.2519230   -1.3870080    0.6283560  
H     5.7437360    3.3973050   -0.4391760  
H     4.4615970   -1.8279930    0.2457430  
C    -0.8385170    1.5364910   -0.0930560  
C     0.5328330    1.4455920    0.0629180  
C     0.8719070    0.0769250   -0.1575710  
C    -0.4432750   -0.5779850   -0.4234420  
N    -1.4256630    0.2711120   -0.4036500  
C    -0.5612600   -2.0142790   -0.6478660  
C     0.6046900   -2.7313650   -0.6338900  
O     0.6575620   -4.0577740   -0.8652280  
C     1.9162840   -2.1146540   -0.3459000  
O     2.8889010   -2.8883550   -0.2972490  
C     2.0521760   -0.6391900   -0.1806830  
H     1.2017640    2.2420510    0.3498890  
H     1.6034170   -4.3001290   -0.7578790  
C    -1.6630990    2.7022690    0.0311410  
C    -1.2643490    3.9780100    0.3716550  
C    -2.4610190    4.7768050    0.3636570  
C    -3.5429420    3.8113500   -0.0173250  
N    -3.0785860    2.6129540   -0.2094060  
C    -4.9152730    4.2333140   -0.1384280  
C    -5.1983840    5.5348720    0.1054720  
O    -6.4264530    6.0650630    0.0315870  
C    -4.1292590    6.5300230    0.4922360  
O    -4.4844280    7.6912340    0.6933180  
C    -2.7357560    6.0811520    0.6095100  
H    -0.2656270    4.3211460    0.6037960  
H    -5.6808920    3.5171940   -0.4148400  
H    -6.3149600    7.0151930    0.2596240  
H    -1.9945450    6.8236960    0.8887750  
C    -2.8255920   -2.0343990   -1.6463370  
C    -3.9214440   -2.8436380   -1.6368270  
C    -3.6359850   -3.9524350   -0.7663810  
C    -2.3207120   -3.7735080   -0.2749840  
N    -1.8211920   -2.5852240   -0.8411530  
C    -1.7584100   -4.6312300    0.6733120  
C    -2.5215300   -5.7141590    1.0965840  
O    -2.0023700   -6.5822020    2.0124900  
C    -3.8266000   -5.9226050    0.5926620  
O    -4.4580460   -7.0380720    1.1047700  
C    -4.3906470   -5.0520930   -0.3265280  
H    -4.8383560   -2.6670590   -2.1823220  
H    -0.7640750   -4.5004370    1.0767080  
H    -2.6782280   -7.2606060    2.1832500  
H    -5.3466770   -7.1111630    0.7263860  
H    -5.4054230   -5.2108270   -0.6857570  
H    -2.6519420   -1.0973650   -2.1486650  
