62


C    -2.4427800    3.6775100   -0.6305430  
C    -1.2959360    2.9360900   -0.5193670  
C    -1.6849250    1.5539810   -0.5279380  
C    -3.0965410    1.5212510   -0.6605020  
N    -3.5301580    2.8290820   -0.7355320  
C    -3.8552310    0.3317100   -0.7003710  
C    -3.1264300   -0.8536120   -0.5941740  
O    -3.7750670   -2.0532820   -0.6233860  
C    -1.7132530   -0.8447450   -0.4693570  
O    -1.1653140   -2.1059930   -0.3742030  
C    -0.9646340    0.3335620   -0.4428040  
H    -0.2907930    3.3227690   -0.4363720  
H    -4.4986990    3.1081680   -0.7094100  
H    -3.1029470   -2.7456130   -0.4911930  
H    -0.2261480   -2.0296760   -0.1332720  
H    -2.5802560    4.7493440   -0.6539320  
C     1.8669580    1.8185680    2.7346180  
C     0.7489030    1.5286720    1.9977580  
C     1.1948920    0.8738660    0.8012110  
C     2.6080070    0.8007420    0.8656830  
N     2.9892890    1.3931960    2.0480170  
C     3.4138140    0.1546210   -0.1086320  
C     2.7138470   -0.4163320   -1.1882710  
O     3.3777830   -0.9803420   -2.2224400  
C     1.2980750   -0.3460480   -1.2617710  
O     0.7793530   -0.9316330   -2.3988310  
C     0.5138340    0.2850090   -0.2962010  
H    -0.2725660    1.7534670    2.2672810  
H     3.9315630    1.3739540    2.4083130  
H     2.7069050   -1.2683350   -2.8681680  
H    -0.1570240   -0.6809150   -2.4810320  
H     1.9646490    2.3064080    3.6940080  
C    -6.0243620    0.9938390   -1.8262450  
C    -5.3211400    0.3481820   -0.8508750  
C    -6.3164610   -0.2831400    0.0173290  
C    -7.6451150    0.0538540   -0.5492290  
N    -7.3966330    0.8425470   -1.6557910  
C    -8.8317880   -0.3559960   -0.0324120  
C    -8.8148560   -1.1750540    1.1747850  
O    -9.8286700   -1.5903060    1.7157350  
C    -7.4176200   -1.5266140    1.8061030  
O    -7.3810930   -2.1993690    2.8239340  
C    -6.2051940   -1.0295540    1.1445200  
H    -9.7931540   -0.0996990   -0.4671520  
H    -5.2474620   -1.2961980    1.5766210  
H    -5.6454120    1.5566820   -2.6698010  
H    -8.0997870    1.1611030   -2.3038690  
C     4.8588050    0.0985010    0.0157550  
C     5.6948220    1.0309810    0.5856580  
C     7.0228110    0.4795590    0.4973330  
C     6.8176260   -0.8567220   -0.1543490  
N     5.5681060   -1.0715980   -0.4395540  
C     7.9213510   -1.7489190   -0.4046930  
C     9.1588250   -1.3280910   -0.0544060  
O    10.2799120   -2.0411640   -0.2321100  
C     9.3984160    0.0226490    0.5867740  
O    10.5653490    0.3057120    0.8668740  
C     8.2620530    0.9054840    0.8464980  
H     5.4394610    2.0252640    0.9260900  
H     7.7464230   -2.7135020   -0.8678850  
H    11.0010800   -1.4696970    0.1184010  
H     8.4712720    1.8621020    1.3154780  
