64


C    -1.8172480    0.4831350    1.1860340  
C    -1.4251490    1.6353530    0.5472760  
C    -2.4922450    1.9709220   -0.3811940  
C    -3.4991270    0.9841850   -0.2563240  
N    -3.0617130    0.0872150    0.7114180  
C    -4.6708900    0.9799520   -1.0177080  
C    -4.8292350    2.0053870   -1.9379030  
O    -5.9512090    2.0587510   -2.7083950  
C    -3.8282240    3.0031020   -2.0906530  
O    -4.1292600    3.9485190   -3.0498670  
C    -2.6716140    2.9977740   -1.3331260  
H    -5.4319730    0.2145050   -0.9166120  
H    -5.8617640    2.8277640   -3.2977270  
H    -3.3869620    4.5637570   -3.1454270  
H    -1.9146360    3.7651060   -1.4744130  
H    -1.3287020   -0.0924160    1.9582070  
C    -4.6871200   -1.0702680    2.1369330  
C    -5.1347580   -2.3531530    2.2759510  
C    -4.4370630   -3.1637090    1.3124090  
C    -3.5620440   -2.3113730    0.5961260  
N    -3.7344020   -1.0334600    1.1190590  
C    -2.7167240   -2.7579300   -0.4236950  
C    -2.7577090   -4.1102270   -0.7290700  
O    -1.9550860   -4.6096620   -1.7130270  
C    -3.6272650   -4.9864760   -0.0258490  
O    -3.5487760   -6.3016730   -0.4441570  
C    -4.4594330   -4.5330090    0.9810990  
H    -5.8793370   -2.6886880    2.9848750  
H    -2.0574260   -2.0948770   -0.9728750  
H    -2.1593330   -5.5570790   -1.7972490  
H    -4.2194480   -6.8282660    0.0151720  
H    -5.1157870   -5.2239310    1.5066090  
H    -4.9465760   -0.1594180    2.6562860  
C     2.8818270    0.3129890    0.6165860  
C     1.5063460    0.3618850    0.5183520  
C     1.0974420    1.7117170    0.7641650  
C     2.2781110    2.4634430    1.0016430  
N     3.3482890    1.5974920    0.8866930  
C     2.2654570    3.8373250    1.2653510  
C     1.0290460    4.4634440    1.2847640  
O     0.9473640    5.7993100    1.5528280  
C    -0.1629070    3.7338300    1.0388570  
O    -1.3072030    4.5065080    1.1097810  
C    -0.1633110    2.3657180    0.7744060  
H     0.8693250   -0.4658630    0.2400450  
H     4.2914200    1.8092110    1.1747960  
H     3.1656740    4.4139500    1.4509040  
H     0.0019780    6.0297820    1.5575610  
H    -2.0846180    3.9272220    1.0438660  
C     3.5167930   -2.1109560    0.8238350  
C     3.7870150   -0.8152370    0.4841530  
C     5.1439060   -0.8109820   -0.0629510  
C     5.6270930   -2.2146370    0.0011580  
N     4.5852800   -2.9493640    0.5264210  
C     6.8576510   -2.6248500   -0.4000010  
C     7.7781120   -1.6338190   -0.9465570  
O     8.9080600   -1.9058910   -1.3231500  
C     7.2776030   -0.1478060   -1.0574260  
O     8.0238620    0.6966540   -1.5262620  
C     5.9246430    0.1703810   -0.5862540  
H     7.1894560   -3.6570630   -0.3424720  
H     5.5895550    1.1969110   -0.6940470  
H     2.6194050   -2.5149280    1.2725310  
H     4.6216850   -3.9356530    0.7305020  
