62


C    -2.5040550    2.0756020    0.2102430  
C    -1.1705520    1.7051160    0.0638290  
C    -0.3737730    2.8669230    0.2210670  
C    -1.2676080    3.9460510    0.4464310  
N    -2.5456050    3.4390920    0.4481730  
C    -0.8409800    5.2750400    0.5836890  
C     0.5146520    5.5239210    0.4585530  
O     0.9857670    6.7904120    0.5578780  
C     1.4493210    4.4699510    0.2236590  
O     2.7261270    4.8923140    0.1232310  
C     1.0376570    3.1196350    0.1430830  
H    -0.8302800    0.7165500   -0.2040040  
H    -3.3840100    3.9738460    0.6161430  
H    -1.5252910    6.0988960    0.7574000  
H     1.9520590    6.7434250    0.4320030  
H     3.2916120    4.0963330   -0.1210120  
C     2.0006890    2.0641010    0.0065440  
C     1.8671410    0.7006320    0.1634760  
C     3.1315060    0.1247070   -0.1421620  
C     4.0104720    1.2962970   -0.4585370  
N     3.3514240    2.4171330   -0.3556560  
C     5.3912190    1.1447090   -0.8122190  
C     5.8751510   -0.1182220   -0.8126600  
O     7.1405120   -0.4299310   -1.0969230  
C     5.0187890   -1.3252420   -0.4527540  
O     5.6411400   -2.4030130   -0.4354730  
C     3.5939550   -1.1785420   -0.1644510  
H     1.0001540    0.1590760    0.4965140  
H     6.0073000    2.0033700   -1.0525580  
H     7.1981410   -1.4079300   -0.9924360  
C    -0.4539410   -2.3164210   -1.7903840  
C     0.7493110   -1.6965050   -1.5572620  
C     1.4433320   -2.4610310   -0.5564410  
C     0.5974710   -3.5566560   -0.2316640  
N    -0.5607350   -3.4265600   -0.9739720  
C     0.9544980   -4.5609960    0.6709370  
C     2.2151510   -4.4693900    1.2411040  
O     2.6376180   -5.4200830    2.1135070  
C     3.0896330   -3.3926270    0.9362280  
O     4.2827930   -3.4469950    1.6241150  
C     2.7238400   -2.3520230    0.0730020  
H     1.0983440   -0.8031430   -2.0528390  
H    -1.2841850   -4.1266230   -1.0369160  
H     0.3076630   -5.3978350    0.9133160  
H     3.5467980   -5.1639080    2.3623900  
H     4.9989020   -3.2641000    0.9784840  
H    -1.2418290   -2.0662570   -2.4873310  
C    -3.6775770    1.2584260    0.1235720  
C    -5.0119630    1.5919800    0.1543050  
C    -5.7790620    0.3840240    0.0271000  
C    -4.7917590   -0.7198580   -0.0786530  
N    -3.5478790   -0.1276460   -0.0385840  
C    -5.1177810   -2.0322100   -0.1913660  
C    -6.5298760   -2.3982310   -0.2302180  
O    -6.9141820   -3.5535890   -0.3372590  
C    -7.5950680   -1.2449220   -0.1363390  
O    -8.7824430   -1.5355390   -0.1710920  
C    -7.1185280    0.1303570   -0.0078680  
H    -5.4214360    2.5895120    0.2312840  
H    -4.3790520   -2.8252940   -0.2581800  
H    -7.8645470    0.9162130    0.0623640  
H    -2.6770330   -0.6324570    0.0287240  
