60


C    -2.4431430   -0.8101070    1.4464810  
C    -1.1602830   -0.4628740    1.1342220  
C    -1.2015150    0.1784660   -0.1499110  
C    -2.5504170    0.1851790   -0.5809770  
N    -3.3084140   -0.4299910    0.4184960  
C    -2.9584850    0.7973140   -1.7706370  
C    -1.9837170    1.3899720   -2.5578190  
O    -2.3332590    1.9893010   -3.7296290  
C    -0.6196270    1.3730400   -2.1678140  
O     0.2349230    1.9787730   -3.0543480  
C    -0.2256090    0.7772840   -0.9741590  
H    -0.2866700   -0.6492450    1.7428030  
H    -3.9878840    0.8084080   -2.1054890  
H    -1.5212260    2.3339340   -4.1395030  
H     1.1446650    1.9361270   -2.7194830  
H    -2.8355230   -1.3362870    2.3042020  
C     1.9140140   -0.3812240   -0.4309060  
C     3.1630630   -0.1106930    0.0657220  
C     3.2384950    1.3446740    0.2063400  
C     1.9155520    1.8693280   -0.2140040  
N     1.1535650    0.7673450   -0.6045940  
C     1.5626830    3.1799350   -0.2244780  
C     2.5570810    4.1680040    0.1871230  
O     2.3286710    5.3670590    0.2270180  
C     3.9840390    3.6466810    0.5785360  
O     4.8450890    4.4550830    0.8892190  
C     4.2321810    2.2009100    0.5616270  
H     0.5777850    3.5255640   -0.5199670  
H     5.2135840    1.8642180    0.8681240  
H     1.4967690   -1.3367450   -0.7093220  
C     3.9404130   -3.8660690   -2.0382170  
C     5.0268490   -4.3453810   -1.3936380  
C     5.3179700   -3.3622900   -0.3547040  
C     4.2659680   -2.3120260   -0.5349610  
N     3.4709460   -2.6144770   -1.5187840  
C     4.1942410   -1.1185880    0.3111670  
C     5.1254890   -1.0563360    1.3116670  
O     5.1687910   -0.0743030    2.2336460  
C     6.1859880   -2.0905620    1.5077640  
O     6.9736650   -1.9332510    2.4425760  
C     6.2478950   -3.2612010    0.6113040  
H     5.5758970   -5.2560680   -1.5883700  
H     5.9361330   -0.2976250    2.8077800  
H     7.0364300   -3.9855180    0.7914820  
H     3.4071370   -4.3053060   -2.8724680  
C    -6.3162430    0.5381960    3.4493950  
C    -5.1601880    0.4438810    2.7411510  
C    -5.4676240   -0.2563410    1.5130380  
C    -6.9154300   -0.5675530    1.5622530  
N    -7.3647610   -0.0709800    2.7703230  
C    -7.6169300   -1.1951210    0.5819290  
C    -6.9012960   -1.6072570   -0.6139480  
O    -7.4352420   -2.1379900   -1.5753200  
C    -5.3474070   -1.3538560   -0.6800340  
O    -4.7238230   -1.7811190   -1.6340370  
C    -4.7020130   -0.6232020    0.4381330  
H    -4.1968450    0.8339670    3.0317000  
H    -8.6820000   -1.3944140    0.6424020  
H    -6.4950540    1.0044270    4.4091460  
H    -8.3250270   -0.0902370    3.0760080  
