58


C    -4.6488300    0.1152430   -2.4261020  
C    -5.7521380   -0.3877910   -1.8163320  
C    -5.2982660   -1.1728300   -0.6874170  
C    -3.8179100   -1.0789160   -0.6863670  
N    -3.4914030   -0.2945170   -1.7723490  
C    -2.9911000   -1.7103230    0.2063530  
C    -3.6538140   -2.4828370    1.2861770  
O    -3.0380750   -2.9546240    2.2241530  
C    -5.2162680   -2.6338410    1.2628800  
O    -5.7502310   -3.3351160    2.1070710  
C    -5.9674580   -1.9142680    0.2362360  
H    -6.7785370   -0.2428380   -2.1199340  
H    -7.0486110   -2.0137740    0.2365980  
H    -4.5731450    0.7449150   -3.3026550  
H    -2.5551250    0.0022120   -2.0003760  
C     0.0038760    1.6204810    0.0145410  
C    -1.1477140    0.8680150    0.0926510  
C    -0.7730320   -0.5195710    0.1022140  
C     0.7043220   -0.5481210    0.0376470  
N     1.1083570    0.7608660   -0.0312920  
C     1.4778830   -1.6819650    0.0370290  
C     0.7666020   -2.9633070    0.1669570  
O     1.3399380   -4.0250430    0.3409530  
C    -0.7963290   -2.9647410    0.1078200  
O    -1.3657520   -4.0270330   -0.0550130  
C    -1.5283290   -1.6695700    0.1675640  
H    -2.1411830    1.2781560    0.1648950  
H     2.0676500    1.0780550   -0.0248950  
C     4.8698600    0.2775850    2.2569790  
C     3.6141440   -0.0831170    1.8909190  
C     3.7929740   -0.9778930    0.7521040  
C     5.2759670   -1.0438640    0.5802730  
N     5.8972210   -0.3043500    1.4581340  
C     5.8904230   -1.8643670   -0.4303070  
C     5.0765170   -2.5823820   -1.2373030  
O     5.5089850   -3.3829280   -2.2240090  
C     3.5762700   -2.4996580   -1.1313220  
O     2.9234240   -3.0647000   -2.0011150  
C     2.9431400   -1.6843840   -0.0414950  
H     2.6801870    0.1922760    2.3596170  
H     6.9704380   -1.8962050   -0.5211930  
H     4.6975880   -3.7273360   -2.6577310  
H     5.1601640    0.9268440    3.0750010  
C    -3.0020850    4.8434110   -0.0026890  
C    -2.2236790    5.9471760    0.0149080  
C    -0.8534310    5.4490700    0.0129260  
C    -1.0023290    3.9576260   -0.0019780  
N    -2.2555670    3.6185040   -0.0180770  
C     0.1610450    3.0628910   -0.0042090  
C     1.3806420    3.6928420   -0.0162860  
O     2.5595060    3.0446520   -0.0276890  
C     1.5450230    5.1813830   -0.0063440  
O     2.6967080    5.6182060   -0.0097900  
C     0.3546610    6.0433110    0.0091330  
H    -2.5286980    6.9841050    0.0270580  
H     3.2480130    3.7514490   -0.0199520  
H     0.5143870    7.1171180    0.0145690  
H    -4.0832380    4.7824660   -0.0053600  
