62


C    -1.3486330   -1.4980660   -1.2495890  
C    -2.6879420   -1.3570880   -1.0013880  
C    -2.8772050   -0.0588410   -0.4221670  
C    -1.6014610    0.5530260   -0.3572770  
N    -0.6703570   -0.3482410   -0.8643610  
C    -1.4004660    1.8554110    0.1111870  
C    -2.5153430    2.5615410    0.5351850  
O    -2.3711210    3.8278300    1.0145580  
C    -3.8076970    1.9812250    0.4860980  
O    -4.7940500    2.8070600    0.9712380  
C    -4.0186260    0.6750530    0.0138650  
H    -3.4478220   -2.0921420   -1.2209320  
H    -0.4203210    2.3160770    0.1610240  
H    -3.2491990    4.1277500    1.3085250  
H    -5.6312680    2.3101860    1.0465650  
H    -0.7953780   -2.3304930   -1.6602940  
C     1.4231290   -0.0279150   -2.1426230  
C     0.7177980   -0.1370880   -0.9787040  
C     1.6641720   -0.0434100    0.1208730  
C     2.9838840    0.1438520   -0.5069480  
N     2.7628030    0.1736190   -1.8809600  
C     4.1803150    0.2478910    0.1532840  
C     4.0947950    0.1346170    1.6302600  
O     5.0725200    0.1862840    2.3570550  
C     2.6845440   -0.0568810    2.3161740  
O     2.6521400   -0.1602950    3.5330730  
C     1.5019480   -0.1230160    1.4708450  
H     0.5333880   -0.2539500    1.9414200  
H     1.0562230   -0.0689310   -3.1596430  
H     3.5126980    0.0890860   -2.5525720  
C     5.6060970    1.3382260   -1.6198090  
C     5.4508780    0.4911760   -0.5309270  
C     6.7625960   -0.0758080   -0.2746370  
C     7.6446090    0.4601990   -1.2450390  
N     6.9111230    1.3180210   -2.0451830  
C     9.0000820    0.1168780   -1.3232090  
C     9.4793440   -0.7907850   -0.3933120  
O    10.7912200   -1.1567650   -0.4092920  
C     8.6107190   -1.3431910    0.5868750  
O     9.2337820   -2.2289570    1.4437120  
C     7.2739040   -1.0051240    0.6535150  
H     7.2933490    1.9026120   -2.7724460  
H     9.6719360    0.5341090   -2.0661860  
H    10.9276090   -1.7660010    0.3374130  
H     8.6359580   -2.4449450    2.1751630  
H     6.6415090   -1.4176550    1.4320510  
H     4.8902600    2.0102950   -2.0725030  
C    -5.3490570    0.0879870    0.0064310  
C    -5.7555150   -1.1986740    0.2296570  
C    -7.1904890   -1.2591360    0.1300160  
C    -7.6341140    0.1156700   -0.1874900  
N    -6.4895790    0.9295200   -0.1730400  
C    -8.9145970    0.4691160   -0.4344290  
C    -9.9495940   -0.5669740   -0.3478430  
O   -11.1295590   -0.3355890   -0.5542240  
C    -9.5083050   -2.0235140    0.0439910  
O   -10.3638380   -2.8917790    0.1350140  
C    -8.0864650   -2.2762400    0.2658310  
H    -5.1080520   -2.0179960    0.5062730  
H    -9.2234140    1.4820360   -0.6751730  
H    -7.7877850   -3.2904070    0.5128800  
H    -6.4261930    1.6769150   -0.8580110  
