60


C    -2.3068520   -1.2167140    0.5729410  
C    -3.4171560   -0.5557070    0.0767370  
C    -2.9897840    0.8061370   -0.1823470  
C    -1.6237720    0.8920460    0.1766380  
N    -1.2287020   -0.3599960    0.6111720  
C    -0.8705980    2.0853860    0.1063000  
C    -1.5539110    3.2175460   -0.3399690  
O    -0.8866330    4.3910480   -0.4836720  
C    -2.9246310    3.1467040   -0.7030880  
O    -3.4379010    4.3495210   -1.1411350  
C    -3.6426220    1.9700320   -0.6333720  
H    -0.3319970   -0.5708770    1.0218450  
H    -1.5344070    5.0618530   -0.7632950  
H    -4.3549640    4.2268680   -1.4291910  
H    -4.6786300    1.9363170   -0.9528440  
H    -2.1872620   -2.2597890    0.8313090  
C     2.5767870    0.0081910   -1.5980380  
C     3.5690250    0.4973790   -0.7972350  
C     2.9560680    1.4065580    0.1595620  
C     1.5137860    1.3989480   -0.1575910  
N     1.3490160    0.5040860   -1.2086800  
C     0.5594570    2.1431090    0.4712710  
C     1.0284330    2.9983880    1.5892100  
O     0.2691110    3.6425390    2.2879970  
C     2.5682830    3.0385740    1.9193670  
O     2.9563000    3.7858530    2.8027070  
C     3.4700370    2.1764040    1.1550070  
H     4.5269350    2.1962880    1.4015310  
H     2.6562480   -0.6845680   -2.4253210  
H     0.4799830    0.3788790   -1.7072430  
C     5.9699660    1.0643670   -1.1756010  
C     7.1853460    0.4708290   -1.0958150  
C     6.9703060   -0.9060840   -0.7016260  
C     5.5030570   -1.0673570   -0.5513080  
N     4.9361260    0.1678610   -0.8621080  
C     4.8935190   -2.2203570   -0.1790010  
C     5.7247200   -3.3903530    0.0923110  
O     5.2627150   -4.4673680    0.4373260  
C     7.2819070   -3.2466150   -0.0728100  
O     7.9917160   -4.2167770    0.1392750  
C     7.8187380   -1.9433610   -0.4763510  
H     8.1397810    0.9367990   -1.2936740  
H     3.8187100   -2.3170840   -0.0700020  
H     8.8958190   -1.8528270   -0.5794520  
H     5.7130500    2.0808020   -1.4431480  
C    -5.7086120   -3.2634600    2.6457550  
C    -6.7971650   -3.4719620    1.8601780  
C    -6.6098260   -2.7016920    0.6494490  
C    -5.3007480   -2.0250730    0.7921090  
N    -4.7858870   -2.4411540    2.0090710  
C    -4.7421030   -1.1573720   -0.1094750  
C    -5.5479930   -0.8904880   -1.3185170  
O    -5.1905050   -0.1266750   -2.2022500  
C    -6.9355310   -1.6206240   -1.4998740  
O    -7.5808820   -1.3799500   -2.5093780  
C    -7.3879780   -2.5273490   -0.4547390  
H    -7.6475620   -4.0963110    2.0926360  
H    -8.3465990   -3.0196280   -0.5844560  
H    -5.4888150   -3.6535040    3.6310060  
H    -4.0064650   -1.9804870    2.4566710  
