60


C    -2.2340960    3.0831130   -1.5799420  
C    -3.3776760    2.4172550   -1.2183190  
C    -2.9729610    1.2116120   -0.5561820  
C    -1.5557510    1.1994200   -0.5513620  
N    -1.1348940    2.3552880   -1.1740110  
C    -0.7835200    0.1302010   -0.0461450  
C    -1.4994590   -0.9459470    0.4870360  
O    -0.8271650   -1.9688230    1.0719030  
C    -2.9151690   -0.9613450    0.4977610  
O    -3.4365810   -2.0817010    1.0982260  
C    -3.6790400    0.0972690   -0.0177230  
H    -4.3869120    2.7409630   -1.4239050  
H    -0.1722700    2.5962070   -1.3511080  
H    -1.4843710   -2.6302080    1.3519850  
H    -4.4066130   -1.9943430    1.1730920  
H    -2.1102220    4.0245860   -2.0957770  
C     2.3102930    2.8626590    1.5943760  
C     1.1419300    2.2709300    1.2374570  
C     1.4761580    1.0959600    0.4556030  
C     2.9494880    1.0580410    0.3823610  
N     3.3931890    2.1711140    1.0589850  
C     3.7081320    0.0574100   -0.1869290  
C     2.9515970   -1.0295680   -0.8473690  
O     3.4722260   -1.9233830   -1.4849130  
C     1.3780040   -0.9922630   -0.8066770  
O     0.7724410   -1.8520390   -1.4163700  
C     0.6883030    0.1155550   -0.0926990  
H     0.1479560    2.5957200    1.5049370  
H     2.4807390    3.7461520    2.1949570  
H     4.3613070    2.2985060    1.3210060  
C     5.1561600    0.0560010   -0.1458400  
C     6.0130520    1.1343200   -0.1801710  
C     7.3424860    0.5830340   -0.0766350  
C     7.1137050   -0.8936110    0.0487140  
N     5.8499750   -1.1959450    0.0019250  
C     8.2107110   -1.8142320    0.2041460  
C     9.4639110   -1.3025060    0.2050690  
O    10.5789610   -2.0348040    0.3306640  
C     9.7262300    0.1804330    0.0607550  
O    10.9025390    0.5457220    0.0768450  
C     8.5942910    1.1009010   -0.0783210  
H     5.7687320    2.1682440   -0.3853590  
H     8.0179200   -2.8766970    0.3010230  
H    11.3182660   -1.3865690    0.2929070  
H     8.8216240    2.1587360   -0.1687440  
C    -5.1311190    0.0660540    0.0351850  
C    -6.0353100    1.0725300    0.2344610  
C    -7.3625210    0.5144940    0.2321780  
C    -7.1932830   -0.9361510   -0.0006810  
N    -5.8110020   -1.1885580   -0.0352780  
C    -8.2118500   -1.8120180   -0.1431000  
C    -9.5841600   -1.3063500   -0.0223670  
O   -10.5618750   -2.0270990   -0.1342510  
C    -9.7863480    0.2220530    0.2815070  
O   -10.9239950    0.6521820    0.4019340  
C    -8.5979820    1.0654150    0.3916750  
H    -5.7858670    2.1048990    0.4322170  
H    -8.0718070   -2.8737140   -0.3231080  
H    -8.7474300    2.1245660    0.5778040  
H    -5.4695840   -1.8748060   -0.7024980  
