62


C    -0.6903930    1.5216590    0.5117590  
C    -0.9412840    2.7838750    1.0090940  
C    -2.3309780    3.0594930    0.8195320  
C    -2.9044200    1.9188520    0.1925750  
N    -1.8899790    0.9941370    0.0376580  
C    -4.2666390    1.8480220   -0.1824580  
C    -5.0305940    2.9887570    0.0920580  
O    -6.3524860    3.0262940   -0.2636330  
C    -4.4742360    4.1218110    0.7351830  
O    -5.3851750    5.1423090    0.9384980  
C    -3.1450880    4.1721230    1.1047670  
H    -0.2153710    3.4183850    1.4985170  
H    -1.9496450    0.1537180   -0.5166930  
H    -6.7107080    3.8647110    0.0785700  
H    -4.9753700    5.8430130    1.4668700  
H    -2.7356270    5.0579090    1.5853690  
C     1.7869160    1.3007480    0.2187000  
C     0.5476750    0.7674370    0.4442860  
C     0.7294390   -0.6681420    0.6032220  
C     2.1051790   -0.9431980    0.4523000  
N     2.7583060    0.2961900    0.2163060  
C     2.6201720   -2.2368450    0.5758840  
C     1.7216390   -3.2597380    0.8555460  
O     2.1725080   -4.5380920    0.9763790  
C     0.3379270   -2.9997910    1.0303310  
O    -0.4071900   -4.1037140    1.3289060  
C    -0.1597560   -1.7098350    0.9101240  
H     3.6732350   -2.4464330    0.4580820  
H     1.3951370   -5.0922820    1.1710570  
H    -1.3618900   -3.8896040    1.3632430  
H    -1.2122420   -1.5237380    1.0866300  
H     2.0606570    2.3224310    0.0109490  
C     4.0889460    0.5420930    0.0064880  
C     4.7066740    1.7718170   -0.1560160  
C     6.0814600    1.4710660   -0.3508210  
C     6.1501340   -0.0347540   -0.2778360  
N     4.9742140   -0.5621000   -0.0673790  
C     7.3854990   -0.7449860   -0.4296660  
C     8.4991160   -0.0008730   -0.6400690  
O     9.7231500   -0.5030550   -0.8002710  
C     8.4685320    1.5237800   -0.7177650  
O     9.5635540    2.0662360   -0.9150660  
C     7.2107420    2.2130750   -0.5632020  
H     4.2614780    2.7546410   -0.1298130  
H     7.4096530   -1.8274920   -0.3745280  
H    10.2956150    0.2933440   -0.9305170  
H     7.2159610    3.2965400   -0.6235730  
C    -5.7622720    0.7234430   -1.8912730  
C    -4.8699290    0.6819710   -0.8510010  
C    -4.6776670   -0.7263990   -0.5478370  
C    -5.4993250   -1.4896690   -1.5252790  
N    -6.1381710   -0.5435580   -2.3012060  
C    -5.5775680   -2.8416710   -1.5749290  
C    -4.7980660   -3.6156640   -0.6105680  
O    -4.8111030   -4.8344720   -0.5648900  
C    -3.8998810   -2.8276710    0.4094970  
O    -3.1572330   -3.4732460    1.1472090  
C    -3.9600510   -1.3774280    0.4158870  
H    -6.2009660   -3.3811350   -2.2810970  
H    -3.4004830   -0.8445180    1.1758230  
H    -6.1743870    1.5957500   -2.3775480  
H    -6.7852470   -0.7461640   -3.0471430  
