62


C    -2.9935390    0.9809300    0.2883950  
C    -3.9080870    0.4557820    1.1994600  
C    -3.5906440   -0.9200050    1.3816620  
C    -2.4641240   -1.2012230    0.5560480  
N    -2.1371660   -0.0372470   -0.0957980  
C    -1.8769740   -2.4865120    0.4529320  
C    -2.4950740   -3.4719670    1.2219360  
O    -2.0238000   -4.7693330    1.1778980  
C    -3.6118070   -3.2105730    2.0559050  
O    -4.0655840   -4.3271820    2.7332050  
C    -4.1654810   -1.9523130    2.1512120  
H    -4.6541060    1.0117340    1.7498450  
H    -1.3099700    0.1367360   -0.6544480  
H    -2.5570660   -5.2889960    1.8071730  
H    -4.7654760   -4.0724520    3.3522940  
H    -5.0267140   -1.7686350    2.7896600  
C     2.1248340   -0.4503000   -0.0510920  
C     0.8681700   -0.8424990    0.3825840  
C     0.4475070   -1.9477250   -0.4180720  
C     1.5055200   -2.2132560   -1.3343090  
N     2.5195740   -1.3155910   -1.0700130  
C     1.4612260   -3.2433720   -2.2756400  
C     0.3313040   -4.0461730   -2.2664700  
O     0.2205970   -5.0831410   -3.1366840  
C    -0.7362720   -3.8175480   -1.3521020  
O    -1.7853230   -4.7016350   -1.4970010  
C    -0.7200130   -2.7664930   -0.4351230  
H     0.3475540   -0.4105490    1.2245510  
H     3.2816380   -1.1219050   -1.7025350  
H     2.2676920   -3.4449740   -2.9728430  
H    -0.6319190   -5.5107110   -2.9249080  
H    -2.0372230   -5.0113190   -0.6005530  
C     2.6034530    1.8238730    0.9479420  
C     2.9670790    0.6218880    0.4080370  
C     4.4504730    0.6435940    0.4407700  
C     4.7792530    1.9638030    1.0377640  
N     3.6961880    2.6336850    1.3367670  
C     6.1405100    2.3743960    1.2482620  
C     7.1290790    1.5100710    0.9074550  
O     8.4435210    1.7702690    1.0504870  
C     6.8291700    0.1628140    0.3338740  
O     7.7753540   -0.5732470    0.0464500  
C     5.4193000   -0.2372720    0.1265230  
H     6.3514730    3.3482440    1.6764700  
H     8.9006150    0.9644220    0.7252370  
H     5.2464070   -1.2354530   -0.2648400  
H     1.5974880    2.2073520    1.0600990  
C    -5.9073000    4.2453730   -0.0801150  
C    -5.0926640    5.2232290   -0.5524640  
C    -3.7692390    4.6532050   -0.6909720  
C    -3.8783280    3.2520440   -0.2375970  
N    -5.1905400    3.0749780    0.1572490  
C    -2.8567750    2.3302680   -0.2317070  
C    -1.5843300    2.7973940   -0.8177830  
O    -0.6285370    2.0578390   -1.0179710  
C    -1.4252200    4.3129830   -1.2209330  
O    -0.3274200    4.6880950   -1.6028770  
C    -2.5921870    5.1765330   -1.1376020  
H    -5.3752160    6.2390260   -0.7876030  
H    -2.4863110    6.2109210   -1.4481620  
H    -6.9672010    4.2768980    0.1352010  
H    -5.6014390    2.1598600    0.2771920  
