58


C    -5.1071700    0.1435940    0.0324830  
C    -5.2147130   -1.0374440    0.7442660  
C    -6.5677510   -1.5073200    0.6215870  
C    -7.2713990   -0.5112950   -0.2246190  
N    -6.3334330    0.4426220   -0.5560940  
C    -8.5825120   -0.5889980   -0.5663020  
C    -9.3613120   -1.7244760   -0.0789340  
O   -10.5453250   -1.8796250   -0.3369470  
C    -8.6344990   -2.7942130    0.8171440  
O    -9.2716540   -3.7522370    1.2299030  
C    -7.2172640   -2.5974300    1.1190750  
H    -4.4664260   -1.4731470    1.3900050  
H    -9.0819900    0.1502640   -1.1845490  
H    -6.7274240   -3.3399530    1.7420650  
H    -6.4985280    1.3408460   -0.9943920  
C    -0.8152440   -0.6531130    0.3277080  
C    -0.3067430    0.6093260    0.1850200  
C    -1.4606780    1.4848560   -0.0457700  
C    -2.6610550    0.6213850    0.0342660  
N    -2.2002010   -0.6442030    0.2873300  
C    -3.9684430    1.0280660   -0.1430380  
C    -4.1470920    2.4187700   -0.5939650  
O    -5.2186610    2.8814270   -0.9659930  
C    -2.8989030    3.3656680   -0.6279770  
O    -3.0729140    4.5430340   -0.8916110  
C    -1.5756890    2.8018310   -0.3593970  
H    -0.7290190    3.4730920   -0.4080000  
H    -0.2808920   -1.5823130    0.4505930  
H    -2.7816210   -1.4683570    0.2216190  
C     3.0719780   -1.7742500   -1.1917070  
C     4.1346950   -0.9789280   -0.9036000  
C     3.5564650    0.2463960   -0.3196270  
C     2.0913190   -0.0228350   -0.3197630  
N     1.8283760   -1.1937690   -0.8321250  
C     1.1194750    0.9397250    0.1938060  
C     1.6468210    2.1133960    0.6614420  
O     0.9115090    3.0929030    1.2192730  
C     3.1060150    2.4249150    0.6185040  
O     3.4766200    3.5129810    1.0578860  
C     4.0582960    1.4215490    0.0946720  
H     1.5549820    3.7973830    1.4601640  
H     5.1121750    1.6798330    0.1056260  
H     3.0837640   -2.7550570   -1.6509630  
C     5.9308650   -1.6510900   -2.4768150  
C     7.2719940   -1.8353730   -2.4863250  
C     7.7661710   -1.5055620   -1.1658660  
C     6.5796310   -1.1127880   -0.3668900  
N     5.4790420   -1.1952270   -1.2266230  
C     6.6211060   -0.7914350    0.9497110  
C     7.9212910   -0.7815180    1.6239900  
O     8.0482160   -0.5006790    2.8045500  
C     9.1954600   -1.1518410    0.7840170  
O    10.2888340   -1.1321520    1.3244170  
C     9.0112150   -1.5201760   -0.6238140  
H     7.8674540   -2.1559560   -3.3289320  
H     5.7433200   -0.5489740    1.5381280  
H     9.8926070   -1.8082470   -1.1885890  
H     5.2081470   -1.7769400   -3.2716970  
