58


C     0.2505420    1.4499720   -0.1611590  
C     1.2592800    0.5355780   -0.0135450  
C     2.4815410    1.1595280   -0.4149890  
C     2.1160990    2.5470700   -0.7861500  
N     0.7479450    2.6900630   -0.5578090  
C     2.9700930    3.4759840   -1.2713870  
C     4.3701570    3.0958070   -1.3864650  
O     5.2310810    3.8381130   -1.8273750  
C     4.8065180    1.6719690   -0.8757040  
O     6.0187810    1.4651290   -0.8555520  
C     3.7903400    0.6950500   -0.4603950  
H     1.1350960   -0.4676740    0.3555540  
H     2.6731650    4.4762730   -1.5694580  
H     0.1862050    3.3615040   -1.0640110  
C    -1.7191980    0.0051580   -0.2296320  
C    -3.0607840    0.0490470   -0.0070250  
C    -3.3662650    1.4202630    0.4256440  
C    -2.0819940    2.1574070    0.4361600  
N    -1.1033680    1.2471280    0.0028940  
C    -1.9322610    3.4407400    0.8452170  
C    -3.1226940    4.1753370    1.2811440  
O    -3.0774110    5.3349180    1.6567610  
C    -4.4938730    3.4203770    1.2700820  
O    -5.4972360    4.0038760    1.6419590  
C    -4.5142560    2.0194130    0.8234520  
H    -0.9772680    3.9497200    0.9015270  
H    -5.4717330    1.5137030    0.8187060  
H    -1.1168860   -0.8054620   -0.6155360  
C    -2.7104900   -4.2571450    1.0177360  
C    -2.5131360   -2.9153190    0.9060640  
C    -3.6498490   -2.3643230    0.2052600  
C    -4.5466380   -3.5136430   -0.0755310  
N    -3.9110750   -4.6293510    0.4350740  
C    -5.7472280   -3.4330890   -0.7031020  
C    -6.2033260   -2.1208800   -1.1353860  
O    -7.2816320   -1.9264440   -1.6727340  
C    -5.2562360   -0.8871570   -0.8988820  
O    -5.6084460    0.1961820   -1.3355090  
C    -3.9729950   -1.0841190   -0.1851030  
H    -1.6636790   -2.3714590    1.2883520  
H    -6.3859650   -4.2908810   -0.8884180  
H    -2.0774060   -5.0041150    1.4778020  
H    -4.2762670   -5.5680830    0.3952680  
C     7.1915470   -1.2596300    1.6834090  
C     6.7515150   -2.5449730    1.6689650  
C     5.4990700   -2.5560960    0.9516210  
C     5.2368050   -1.1430770    0.5567810  
N     6.2824860   -0.4064680    1.0716100  
C     4.1275400   -0.7052890   -0.1355180  
C     3.2513890   -1.7960420   -0.6334270  
O     2.3723140   -1.6227680   -1.4640060  
C     3.4314110   -3.2593890   -0.0842300  
O     2.5361380   -4.0644000   -0.3030490  
C     4.6340570   -3.5679850    0.6644210  
H     7.2405000   -3.4023330    2.1079510  
H     4.7882830   -4.5882470    1.0016390  
H     8.1022110   -0.8522890    2.1031850  
H     6.5230290    0.4796060    0.6311430  
