62


C     0.6955940   -1.0319180    0.1372500  
C     0.8050250   -2.3719290    0.4593980  
C     2.1747080   -2.7422070    0.3079190  
C     2.8720520   -1.5784720   -0.1181070  
N     1.9605150   -0.5522730   -0.1959580  
C     4.2570880   -1.5832200   -0.3762020  
C     4.9324410   -2.7911360   -0.1997790  
O     6.2699590   -2.8566890   -0.4406540  
C     4.2381800   -3.9585410    0.2181330  
O     5.0589190   -5.0596380    0.3342610  
C     2.8831720   -3.9498730    0.4788160  
H    -0.0039030   -3.0000270    0.8053360  
H     2.1387210    0.3494140   -0.6123510  
H     6.5556020   -3.7652500   -0.2362430  
H     4.5611800   -5.8069330    0.6981580  
H     2.3736050   -4.8568260    0.7947790  
C    -0.4484440   -0.1563730    0.1527470  
C    -1.7778300   -0.4522490    0.0135260  
C    -2.5226860    0.7798290    0.0877770  
C    -1.5207950    1.8511070    0.2830680  
N    -0.2705030    1.2367520    0.2624540  
C    -1.8094750    3.1669830    0.4279900  
C    -3.2086000    3.5710490    0.3503830  
O    -3.5711200    4.7349680    0.4233240  
C    -4.2996240    2.4541380    0.1587550  
O    -5.4714050    2.7826020    0.2085150  
C    -3.8654100    1.0443600   -0.0148440  
H    -2.1883710   -1.4283300   -0.1980220  
H    -1.0545140    3.9356580    0.5614740  
H     0.5142640    1.6370410    0.7615400  
C    -4.9037840   -2.4888730    2.4570110  
C    -5.9354670   -2.9558840    1.6857940  
C    -6.0562550   -2.0715480    0.5604620  
C    -5.0529680   -1.0781950    0.7030440  
N    -4.3626180   -1.3617560    1.8643200  
C    -4.8849230   -0.0076860   -0.2028200  
C    -5.7684250    0.0248170   -1.2841760  
O    -5.6388610    0.9952030   -2.2297110  
C    -6.7710610   -0.9657120   -1.4446220  
O    -7.5463550   -0.7915670   -2.5779550  
C    -6.9256470   -2.0036360   -0.5458250  
H    -6.5435370   -3.8252770    1.8954740  
H    -3.6283810   -0.7893100    2.2499600  
H    -6.3990650    0.9138490   -2.8315690  
H    -8.3139220   -1.3804920   -2.5347440  
H    -7.7038950   -2.7497540   -0.6941000  
H    -4.4998520   -2.8655440    3.3862310  
C     5.7681330   -0.3690110   -1.9604470  
C     6.2657180    0.8752870   -2.1525370  
C     5.7664010    1.7120730   -1.0825960  
C     4.9290220    0.8312960   -0.2284670  
N     4.9482410   -0.4272460   -0.8199090  
C     4.3005370    1.2442680    0.9049890  
C     4.3989550    2.6509790    1.2828450  
O     3.8046080    3.1208310    2.2425160  
C     5.2905550    3.5965250    0.3998600  
O     5.4098940    4.7680720    0.7205590  
C     5.9431720    3.0250660   -0.7818890  
H     6.9166320    1.1875410   -2.9562420  
H     3.7273420    0.5824310    1.5438120  
H     6.5615430    3.6848730   -1.3829300  
H     5.9158400   -1.2695500   -2.5384910  
