64


C    -1.3489110    0.2788280    1.0631820  
C    -2.5167740   -0.2191920    0.5190800  
C    -2.9026510    0.7124560   -0.5257060  
C    -1.9062420    1.7200790   -0.5760640  
N    -0.9648810    1.4370870    0.4154540  
C    -1.9517280    2.7952510   -1.4720650  
C    -3.0447150    2.8758050   -2.3229540  
O    -3.1384640    3.9038630   -3.2131220  
C    -4.0751890    1.9033200   -2.2610730  
O    -5.1111120    2.1276600   -3.1469130  
C    -4.0176400    0.8341900   -1.3825840  
H    -1.1758450    3.5513080   -1.5167020  
H    -3.9864070    3.8066140   -3.6799310  
H    -5.8444500    1.5262710   -2.9494350  
H    -4.8366840    0.1208210   -1.3423550  
H    -0.7624130   -0.1009060    1.8843880  
C     3.3567990    0.3705710    0.1045740  
C     1.9806210    0.3481330    0.0501960  
C     1.5009930    1.6133540    0.5232530  
C     2.6338970    2.3941820    0.8597160  
N     3.7563750    1.6025870    0.6550230  
C     2.5440470    3.7114040    1.3172910  
C     1.2748460    4.2546380    1.4587410  
O     1.1290750    5.5339690    1.9047780  
C     0.1187090    3.4879340    1.1630960  
O    -1.0681810    4.1435590    1.3805520  
C     0.2196840    2.1798280    0.6969550  
H     1.3817260   -0.5012240   -0.2436700  
H     4.6720230    1.9920800    0.4714030  
H     3.4137800    4.3112620    1.5642400  
H     0.1749020    5.7186300    1.9527130  
H    -1.8111750    3.5570610    1.1625100  
C     3.5132270   -2.6681960   -3.1956800  
C     3.1397610   -1.6417170   -2.3674140  
C     4.1497040   -1.5257530   -1.3528340  
C     5.1265770   -2.5184120   -1.6295120  
N     4.7086570   -3.2022130   -2.7528240  
C     6.2840100   -2.6886750   -0.8612180  
C     6.4591400   -1.8343070    0.2156510  
O     7.5593630   -1.9613090    1.0130470  
C     5.5029210   -0.8319180    0.5131020  
O     5.8282710   -0.0698860    1.6239610  
C     4.3423700   -0.6529820   -0.2466000  
H     2.2590910   -1.0267290   -2.4786660  
H     5.2059730   -3.9631130   -3.1876420  
H     7.0268290   -3.4515450   -1.0705230  
H     7.4582430   -1.3163990    1.7352590  
H     5.0246400    0.3693650    1.9533270  
H     3.0261250   -3.0673540   -4.0741760  
C    -4.4830430   -3.4504810   -1.7419940  
C    -4.9374700   -4.2058080   -0.7067700  
C    -4.5230790   -3.5550090    0.5172680  
C    -3.7967750   -2.3330780    0.1074210  
N    -3.8234770   -2.3214260   -1.2797040  
C    -3.2021960   -1.4343500    0.9537000  
C    -3.2409920   -1.7968540    2.3915970  
O    -2.6380180   -1.1703900    3.2475640  
C    -4.0830110   -3.0486570    2.8510810  
O    -4.1841060   -3.2620640    4.0507510  
C    -4.6795160   -3.8931540    1.8290470  
H    -5.4944810   -5.1284700   -0.7806140  
H    -5.2201420   -4.7787420    2.1478240  
H    -4.5779000   -3.6186900   -2.8069690  
H    -3.3094020   -1.6642830   -1.8464820  
