62


C     1.8440200   -2.5696550    2.5742280  
C     0.7575260   -2.0788300    1.8948560  
C     1.2556560   -1.3253270    0.7715150  
C     2.6699270   -1.4212220    0.8196740  
N     2.9971400   -2.1800680    1.9257200  
C     3.5320410   -0.8447030   -0.1359090  
C     2.8955960   -0.1687200   -1.1763780  
O     3.6293810    0.3933690   -2.1728940  
C     1.4805590   -0.0517100   -1.2503060  
O     1.0515940    0.6616150   -2.3416570  
C     0.6310010   -0.5856600   -0.2780240  
H    -0.2762640   -2.2762840    2.1395020  
H     3.9397200   -2.3380600    2.2467470  
H     2.9743710    0.7638050   -2.7980120  
H     0.2641220    0.1840770   -2.7046180  
H     1.8911710   -3.1856880    3.4610910  
C    -2.0965590    0.7016620    2.9023190  
C    -3.2903990    0.6089520    2.2657550  
C    -3.0174690    0.2002500    0.8994910  
C    -1.5474860    0.0451190    0.8021770  
N    -1.0511970    0.3930210    2.0347530  
C    -0.8365430   -0.3736810   -0.3050360  
C    -1.6360900   -0.5503580   -1.5060030  
O    -1.1604440   -0.7683760   -2.6244940  
C    -3.2048770   -0.4227870   -1.4379070  
O    -3.8230360   -0.5664890   -2.4742020  
C    -3.8532350   -0.0545000   -0.1538960  
H    -4.2651770    0.7984150    2.6884640  
H    -1.8796850    0.9744010    3.9265150  
H    -0.0896890    0.2429460    2.3062650  
C    -6.4382480    3.4173350    0.8292170  
C    -7.6470110    2.8008340    0.6421800  
C    -7.3746820    1.4394530    0.2753680  
C    -5.9637950    1.2865540    0.2619280  
N    -5.4200900    2.5071910    0.6055870  
C    -5.3202490    0.0798960   -0.0947560  
C    -6.1566120   -0.9901940   -0.4248550  
O    -5.6121610   -2.2022310   -0.7202440  
C    -7.5676700   -0.8534090   -0.4056880  
O    -8.2404810   -2.0140930   -0.7421920  
C    -8.1818330    0.3364120   -0.0647180  
H    -8.6195210    3.2614800    0.7483830  
H    -4.4336580    2.7101100    0.6436210  
H    -6.3380610   -2.7806190   -1.0127290  
H    -9.1823920   -1.8194570   -0.8556400  
H    -9.2672230    0.4143490   -0.0589850  
H    -6.2088270    4.4359100    1.1086480  
C     5.6933390   -2.1562040    0.0482980  
C     4.9959400   -0.9885390   -0.0624080  
C     5.9945680    0.0817060   -0.0652820  
C     7.3191420   -0.5749640    0.0526400  
N     7.0644490   -1.9296840    0.1377780  
C     8.5073050    0.0821540    0.0733650  
C     8.4940410    1.5383810   -0.0081760  
O     9.5089850    2.2189300    0.0069340  
C     7.0984190    2.2577220   -0.1100940  
O     7.0644740    3.4769720   -0.1595620  
C     5.8853810    1.4317330   -0.1383460  
H     9.4664560   -0.4202090    0.1547640  
H     4.9305440    1.9358830   -0.2363730  
H     5.3139380   -3.1701300    0.0530020  
H     7.7713560   -2.6479350    0.1176170  
