62


C     0.5163660    0.5131380   -1.7584370  
C     1.7586320   -0.0262950   -1.5778590  
C     2.3182660    0.5742000   -0.4004470  
C     1.3425870    1.4764770    0.1037660  
N     0.2442050    1.4370320   -0.7521140  
C     1.5159970    2.2212260    1.2764320  
C     2.7166170    2.0596140    1.9515990  
O     2.9574300    2.7723260    3.0890770  
C     3.6977820    1.1612540    1.4702720  
O     4.8343930    1.0831550    2.2789420  
C     3.5351970    0.3988290    0.3114820  
H     2.2346960   -0.7403410   -2.2324140  
H     0.7618370    2.8978640    1.6618990  
H     3.8695560    2.5678520    3.3608750  
H     5.6104650    0.9510490    1.7084710  
H    -0.2130130    0.3501000   -2.5387090  
C    -3.9923560    0.1199080   -0.1981570  
C    -2.6030730    0.1499890   -0.3540470  
C    -2.2124910    1.5087710   -0.4544490  
C    -3.3963160    2.2968520   -0.3485140  
N    -4.4470360    1.4329390   -0.2004700  
C    -3.3805720    3.6969450   -0.3823470  
C    -2.1506890    4.3158230   -0.5340020  
O    -2.0727340    5.6725490   -0.5818330  
C    -0.9515130    3.5547890   -0.6593040  
O     0.1796950    4.3139380   -0.8289880  
C    -0.9681960    2.1684430   -0.6142880  
H    -1.9397960   -0.6997270   -0.3288340  
H    -5.4172280    1.6525540   -0.0096450  
H    -4.2791160    4.2975500   -0.2926460  
H    -1.1352240    5.9078560   -0.6970550  
H     0.9551730    3.7333700   -0.9076770  
C    -3.6306670   -4.2706170   -0.9451500  
C    -3.4241530   -2.9261800   -0.9274980  
C    -4.5734590   -2.3132600   -0.3003410  
C    -5.4856340   -3.4220260    0.0387260  
N    -4.8452180   -4.5815210   -0.3485010  
C    -6.7114350   -3.2987680    0.6251640  
C    -7.1864670   -1.9676850    0.9128620  
O    -8.2576090   -1.7127130    1.4466460  
C    -6.2724030   -0.7529120    0.4978040  
O    -6.7599590    0.3649650    0.6089690  
C    -4.8951140   -0.9952140   -0.0166230  
H    -2.5742380   -2.4189840   -1.3537220  
H    -7.3373220   -4.1464790    0.8845670  
H    -3.0056800   -5.0574370   -1.3454500  
H    -5.2510600   -5.5023800   -0.2937920  
C     5.6408000   -2.8437540    2.4486620  
C     6.3814350   -3.3532080    1.4314940  
C     6.0978070   -2.5591490    0.2551190  
C     5.1120020   -1.5320420    0.6794150  
N     4.8487830   -1.7852120    2.0132550  
C     4.5709610   -0.5647860   -0.1303970  
C     5.0736330   -0.5393770   -1.5235690  
O     4.7586900    0.3224000   -2.3267660  
C     6.0729320   -1.6595740   -2.0024740  
O     6.4108230   -1.6696480   -3.1760860  
C     6.5485910   -2.6324960   -1.0258950  
H     7.0511610   -4.1992670    1.4821030  
H     7.2482000   -3.3917970   -1.3615400  
H     5.5860480   -3.1599810    3.4822240  
H     4.4341690   -1.0937220    2.6224790  
