60


C    -3.2434030   -1.4132650   -1.1864650  
C    -1.9178370   -1.1250940   -1.0358820  
C    -1.8378320    0.1094550   -0.3049040  
C    -3.1634490    0.5347830   -0.0400770  
N    -4.0222640   -0.4175420   -0.5925820  
C    -3.4551430    1.6687230    0.7239980  
C    -2.3846200    2.4044830    1.2104390  
O    -2.6099070    3.5165720    1.9594910  
C    -1.0448000    2.0291460    0.9295120  
O    -0.0881410    2.8975170    1.4106400  
C    -0.7667290    0.8932040    0.1724800  
H    -1.0944310   -1.7216910   -1.4024980  
H    -4.4656370    1.9928980    0.9378740  
H    -1.7358010    3.8713510    2.2042280  
H     0.6917450    2.4026640    1.7236540  
H    -3.7271290   -2.2321680   -1.6982930  
C     1.1013650    0.4321370   -1.4277490  
C     2.4301190    0.1658720   -1.4058580  
C     2.8344060    0.1001170   -0.0162380  
C     1.6029930    0.3352840    0.7756690  
N     0.5783700    0.5402380   -0.1309510  
C     1.5367090    0.3134910    2.1393700  
C     2.7589420    0.0401030    2.8832510  
O     2.7975390   -0.0605740    4.0995620  
C     4.0923260   -0.1237740    2.0734040  
O     5.1451610   -0.1670490    2.6818000  
C     4.0363120   -0.1553870    0.5845660  
H     3.0700060    0.0300760   -2.2642720  
H     0.6013720    0.3787620    2.6878180  
H     0.4339650    0.5696640   -2.2674980  
C     6.4298560    2.1466190   -2.4027140  
C     5.4755110    1.7424790   -1.5243920  
C     5.8548110    0.4284840   -1.0473450  
C     7.1332840    0.1009730   -1.7266330  
N     7.4135690    1.1759350   -2.5491890  
C     7.8554520   -1.0312200   -1.5268330  
C     7.3452090   -2.0138110   -0.5807400  
O     7.9288440   -3.0520790   -0.3116150  
C     5.9658420   -1.7250290    0.1124170  
O     5.4637560   -2.5965690    0.7985140  
C     5.2860630   -0.4275080   -0.1423550  
H     4.5989370    2.3004120   -1.2330190  
H     8.8000730   -1.2332580   -2.0223200  
H     6.5000210    3.0714630   -2.9600090  
H     8.2584980    1.2793680   -3.0889130  
C    -6.8639690   -3.5026220    0.6645030  
C    -5.7310010   -2.7914600    0.4239750  
C    -6.1357780   -1.5190680   -0.1325930  
C    -7.6159540   -1.5452330   -0.1989410  
N    -7.9910590   -2.7828360    0.2865720  
C    -8.3995810   -0.5242710   -0.6349720  
C    -7.7474730    0.6951360   -1.0833150  
O    -8.3507330    1.6900790   -1.4534320  
C    -6.1725520    0.7411280   -1.0914000  
O    -5.6164330    1.7186310   -1.5570030  
C    -5.4291360   -0.4233460   -0.5516830  
H    -4.7196950   -3.1090410    0.6265850  
H    -9.4836940   -0.5691530   -0.6560460  
H    -6.9741890   -4.4912290    1.0899450  
H    -8.9447070   -3.0860770    0.4071980  
