60


C    -0.8430130   -1.8277360   -0.6772500  
C     0.5225880   -1.7395360   -0.8555340  
C     0.9303670   -0.4178680   -0.4853520  
C    -0.2415690    0.2634130   -0.0689950  
N    -1.2994350   -0.6119420   -0.1723040  
C    -0.2316190    1.5893700    0.3897060  
C     1.0013620    2.2434590    0.4182950  
O     1.0672250    3.5345270    0.8287720  
C     2.1784050    1.5737830    0.0047470  
O     3.3097480    2.3670930    0.0852460  
C     2.1865070    0.2479020   -0.4341860  
H     1.1651980   -2.5517430   -1.1635970  
H    -2.2704870   -0.3384310   -0.1341140  
H     1.9893140    3.8259380    0.7087640  
H     3.9757960    2.0430990   -0.5417410  
C    -1.6346110   -3.8595440   -1.9296720  
C    -1.7539370   -2.9287420   -0.9350240  
C    -2.9560670   -3.2835410   -0.1820550  
C    -3.5151000   -4.4938270   -0.8354110  
N    -2.6526940   -4.7979280   -1.8718630  
C    -4.6460410   -5.1295050   -0.4397290  
C    -5.3700010   -4.6065050    0.7169520  
O    -6.3995820   -5.1068210    1.1406130  
C    -4.7801540   -3.3455730    1.4458450  
O    -5.3550040   -2.9014130    2.4262640  
C    -3.5507030   -2.7455110    0.9149140  
H    -5.0378780   -6.0136490   -0.9330840  
H    -3.1503030   -1.8868730    1.4439860  
H    -0.8817700   -3.9224440   -2.7039750  
H    -2.7943850   -5.5400910   -2.5393730  
C    -2.1261680    1.9507060    1.9864050  
C    -3.2103460    2.7523310    2.1282190  
C    -3.2423360    3.6410200    0.9852970  
C    -2.0687190    3.2827240    0.1512520  
N    -1.4259330    2.2329630    0.8044920  
C    -1.7464510    3.8862190   -1.0192140  
C    -2.6036080    4.9662820   -1.5005720  
O    -2.3954870    5.5657870   -2.5447480  
C    -3.8526070    5.3663710   -0.6315250  
O    -4.5796240    6.2673690   -1.0201800  
C    -4.0942560    4.6328370    0.6135980  
H    -3.9156250    2.7369840    2.9465800  
H    -0.8800020    3.6110330   -1.6103440  
H    -4.9614590    4.9130530    1.2039130  
H    -1.7522430    1.1726190    2.6391110  
C     3.6272400   -1.2146210   -1.9432110  
C     3.4255240   -0.4196980   -0.8519310  
C     4.7203630   -0.4745210   -0.1351130  
C     5.5736300   -1.3598110   -0.9846640  
N     4.9264780   -1.7799940   -2.0367740  
C     6.9306400   -1.6742400   -0.6251420  
C     7.4153450   -1.1634810    0.5325470  
O     8.6568900   -1.3811050    0.9913770  
C     6.5739040   -0.2882660    1.4209850  
O     7.0812530    0.1367240    2.4559470  
C     5.1850580    0.0347490    1.0224860  
H     7.5264650   -2.3121520   -1.2684380  
H     8.7161260   -0.8913740    1.8407910  
H     4.6167870    0.6788450    1.6853960  
H     2.9104540   -1.4356360   -2.7250520  
