58


C     2.2942330   -0.6022370   -1.6145880  
C     2.4878420   -1.9417800   -1.6509330  
C     3.6217140   -2.2452590   -0.8092940  
C     4.0940790   -0.9470140   -0.2677270  
N     3.2600770    0.0350380   -0.8160870  
C     5.1048890   -0.8260020    0.6269190  
C     5.8047100   -2.0380310    1.0571030  
O     6.7246570   -2.0151590    1.8598320  
C     5.3468240   -3.4164410    0.4615720  
O     5.9308620   -4.4337190    0.8020390  
C     4.2194930   -3.4179310   -0.4707580  
H     1.8917310   -2.6555990   -2.2008460  
H     5.4380580    0.1185370    1.0356510  
H     3.8819620   -4.3762940   -0.8536580  
H     1.5307420   -0.0031470   -2.0861080  
C     0.0160200    2.7548030    0.0746850  
C     0.7088330    3.9268410    0.2460480  
C     2.0963080    3.6089040    0.0143980  
C     2.0838390    2.1465780   -0.2941480  
N     0.8863910    1.6543930   -0.2620320  
C     3.3134080    1.4203070   -0.5893870  
C     4.4673500    2.1495480   -0.6278130  
O     5.6659130    1.6354350   -0.9437490  
C     4.4969660    3.6116820   -0.3073170  
O     5.5909150    4.1772230   -0.3646950  
C     3.2486010    4.3161580    0.0211170  
H     0.3133220    4.8976100    0.5105360  
H     6.2940780    2.3905420   -0.8712810  
H     3.3183390    5.3773390    0.2383500  
C    -1.4031810    2.5336600    0.1871870  
C    -2.3768820    3.4678700    0.4394270  
C    -3.6227890    2.7389960    0.4469760  
C    -3.2182540    1.3186720    0.1952630  
N    -1.9370500    1.2069110    0.0258740  
C    -4.1957860    0.2452810    0.1270510  
C    -5.5023540    0.6071060    0.2440330  
O    -6.5210120   -0.2604900    0.1969440  
C    -5.9347060    2.0316620    0.4774680  
O    -7.1417870    2.2462150    0.5833280  
C    -4.9209630    3.0914950    0.5780840  
H    -2.2572280    4.5325150    0.5854370  
H    -7.3314790    0.2830170    0.3194130  
H    -5.2723520    4.1052750    0.7434020  
C    -1.7817810   -2.3647440    2.6920880  
C    -1.6942480   -3.4986650    1.9609030  
C    -2.4655230   -3.2291190    0.7509330  
C    -2.9437420   -1.8199490    0.9317580  
N    -2.5565490   -1.3285300    2.0696170  
C    -3.7673020   -1.1554090   -0.0651820  
C    -4.1230960   -1.8936170   -1.1505110  
O    -4.8800390   -1.4288340   -2.1549690  
C    -3.6643240   -3.3147480   -1.3473630  
O    -4.0278480   -3.8878170   -2.3732450  
C    -2.8092450   -3.9529790   -0.3314600  
H    -1.1809300   -4.4179890    2.2058320  
H    -4.9583220   -2.1785970   -2.7865340  
H    -2.5097500   -4.9815000   -0.5086790  
H    -1.3471440   -2.1630450    3.6637970  
