58


C     4.4478480   -1.6531280   -0.6610350  
C     5.3257150   -2.3887190    0.0610650  
C     6.1133510   -1.4793310    0.8600960  
C     5.6220100   -0.1160190    0.5399080  
N     4.6175860   -0.2751980   -0.4214230  
C     6.0669690    1.0089690    1.1516920  
C     7.1236820    0.8855810    2.1565250  
O     7.5758250    1.8489840    2.7562600  
C     7.6894750   -0.5440660    2.4739170  
O     8.5838210   -0.6582720    3.2981870  
C     7.1002020   -1.6840560    1.7720430  
H     5.4086170   -3.4659300    0.0509180  
H     5.6966150    2.0010890    0.9311370  
H     7.4661620   -2.6753240    2.0218760  
H     3.6722170   -1.9772970   -1.3387090  
C     0.3617500   -0.2140330   -1.1362070  
C     0.2080280    1.0395870   -1.6699020  
C     1.5330670    1.6133490   -1.7348050  
C     2.4109970    0.5544730   -1.1531670  
N     1.7380340   -0.4951950   -0.8042560  
C     3.8504070    0.7360190   -1.0230540  
C     4.3711090    1.8934500   -1.5272190  
O     5.6826050    2.1773730   -1.5517710  
C     3.5045050    2.9703190   -2.1039590  
O     4.0719480    3.9838580   -2.5187250  
C     2.0492430    2.7795000   -2.1828340  
H    -0.6963950    1.4849370   -2.0597780  
H     5.7399060    3.0745740   -1.9542490  
H     1.4650600    3.5885520   -2.6099090  
C    -3.8568560   -0.0282510    0.2600990  
C    -2.5756160    0.2785510   -0.1306890  
C    -1.9166560   -0.9513660   -0.4521650  
C    -2.9063330   -2.0215860   -0.2117330  
N    -4.0967000   -1.3946660    0.1579520  
C    -2.6608500   -3.3487370   -0.3051970  
C    -1.3151320   -3.7692150   -0.6931560  
O    -0.9769850   -4.9393200   -0.7400390  
C    -0.2772110   -2.6621520   -1.0923750  
O     0.7640120   -3.0234810   -1.6105690  
C    -0.6316020   -1.2363540   -0.8756850  
H    -2.1586220    1.2693980   -0.2128190  
H    -3.4009220   -4.1140280   -0.0926130  
H    -4.8065590   -1.8626050    0.7049670  
C    -4.5589960    2.0451250    1.3752710  
C    -5.6935280    2.6718870    1.7494590  
C    -6.8144410    1.8544030    1.3282980  
C    -6.2366750    0.6691400    0.6510110  
N    -4.8390270    0.8216610    0.7251400  
C    -6.9779000   -0.2975990    0.0574130  
C    -8.4417740   -0.2012280    0.1343020  
O    -9.1751040   -1.0346430   -0.3684250  
C    -9.0686360    1.0202790    0.8894870  
O   -10.2805000    1.1054290    0.9836630  
C    -8.1544450    2.0257050    1.4462270  
H    -5.7559800    3.6097980    2.2824300  
H    -6.5644030   -1.1282840   -0.5018060  
H    -8.5928180    2.8917220    1.9324600  
H    -3.5273470    2.3247870    1.5337740  
