62


C     4.0029400   -0.0671990   -0.0727460  
C     4.7708230    1.0950640    0.0152110  
C     3.8806070    2.1909700    0.1544990  
C     2.5579870    1.6565780    0.1572310  
N     2.6669770    0.2996760    0.0127190  
C     1.3954290    2.4617550    0.2525300  
C     1.6377650    3.8323910    0.3296150  
O     0.5776120    4.7114810    0.4008790  
C     2.9468270    4.3827140    0.3376400  
O     2.9596910    5.7615180    0.4311440  
C     4.0674770    3.5865690    0.2579200  
H     5.8486360    1.1446920    0.0365590  
H     1.9233250   -0.3861280    0.0748960  
H     0.9521460    5.6080140    0.4818260  
H     3.8736310    6.0781610    0.4813370  
H     5.0635970    4.0232860    0.2592680  
C    -0.4989850   -0.8332950    2.6418990  
C     0.3528140    0.1296050    2.1684890  
C    -0.3148420    0.7853990    1.0777710  
C    -1.5841240    0.1717270    0.9429810  
N    -1.6599640   -0.8175230    1.8955340  
C    -2.5858920    0.6066720    0.0349980  
C    -2.2366880    1.7320400   -0.7385170  
O    -3.0768380    2.2255190   -1.6704410  
C    -0.9576290    2.3438770   -0.6296270  
O    -0.7719550    3.3885940   -1.5142470  
C     0.0324520    1.8789640    0.2347680  
H     1.3358190    0.3515290    2.5567500  
H    -2.4972700   -1.3451880    2.0916510  
H    -2.6078350    2.9914940   -2.0589300  
H    -0.3824130    4.1356910   -1.0120460  
H    -0.3714650   -1.5450410    3.4446850  
C    -3.8675870   -0.0604930   -0.0575490  
C    -4.1446220   -1.3930290    0.1617630  
C    -5.5642980   -1.5379660   -0.0118500  
C    -6.0356600   -0.1464210   -0.3205590  
N    -5.0540810    0.7040440   -0.3563080  
C    -7.4305250    0.1431770   -0.5406820  
C    -8.3001240   -0.8918290   -0.4865880  
O    -9.6230920   -0.7828580   -0.6780750  
C    -7.8507180   -2.3095250   -0.1975440  
O    -8.7322370   -3.1735190   -0.1712830  
C    -6.4364470   -2.5779090    0.0388110  
H    -3.4361250   -2.1968710    0.3087840  
H    -7.7482580    1.1581260   -0.7518510  
H    -9.9646510   -1.7012700   -0.5749720  
H    -6.1513510   -3.6036260    0.2519150  
C     7.7769990   -2.0398470   -1.4122240  
C     6.7891450   -1.1376330   -1.1680860  
C     5.6631340   -1.8579800   -0.6161760  
C     6.0756310   -3.2754580   -0.5703840  
N     7.3745570   -3.3142710   -1.0351940  
C     5.3081020   -4.3165730   -0.1390270  
C     3.9565620   -4.0257250    0.2776300  
O     3.1703150   -4.8581000    0.7082560  
C     3.4518340   -2.5386900    0.1556370  
O     2.2583840   -2.3425180    0.3381180  
C     4.4112600   -1.4521250   -0.1879630  
H     6.8287050   -0.0857410   -1.3994870  
H     5.6638170   -5.3406070   -0.0885040  
H     8.7588320   -1.8861230   -1.8393400  
H     7.9055080   -4.1596410   -1.1738350  
