60


C     2.1764020   -0.6242770   -0.7285490  
C     1.3074110    0.2007950   -0.0584510  
C     2.0657350    1.3059630    0.4686160  
C     3.4071580    1.0898590    0.0774020  
N     3.4577680   -0.1004820   -0.6502620  
C     4.4397460    1.9771230    0.4031300  
C     4.1044690    3.0996770    1.1436240  
O     5.0678920    3.9974810    1.4845550  
C     2.7595610    3.3279290    1.5501720  
O     2.5933410    4.4832340    2.2811820  
C     1.7432210    2.4503350    1.2241920  
H     5.4683330    1.8184030    0.0997160  
H     4.6391120    4.7105950    1.9890940  
H     1.6542860    4.6186090    2.4777930  
H     0.7208320    2.6433350    1.5394290  
H     1.9934670   -1.5505850   -1.2534130  
C    -0.6484190   -1.0994500    0.7865820  
C    -2.0086410   -1.0635650    0.7295240  
C    -2.3785180    0.1038910   -0.0293540  
C    -1.1055460    0.7399380   -0.4359830  
N    -0.0777280   -0.0279220    0.1076210  
C    -0.9977520    1.8359200   -1.2307800  
C    -2.2254440    2.4495440   -1.7197340  
O    -2.2363150    3.3922520   -2.4962580  
C    -3.5947130    1.8843220   -1.2003850  
O    -4.5970910    2.5409540   -1.4069730  
C    -3.6001120    0.6211670   -0.4103820  
H    -2.6808310   -1.7877850    1.1617960  
H    -0.0446480    2.2505000   -1.5405470  
H     0.0027550   -1.8150200    1.2708830  
C    -4.8677000    0.0188950   -0.0425280  
C    -5.2074300   -0.6173650    1.1241450  
C    -6.5801710   -1.0356590    0.9606690  
C    -6.9374180   -0.5797410   -0.4219430  
N    -5.9503680    0.0349650   -0.9996510  
C    -8.2413730   -0.8330520   -0.9832210  
C    -9.1447210   -1.4776840   -0.2090000  
O   -10.3959370   -1.7736430   -0.5924270  
C    -8.8174040   -1.9344020    1.1937100  
O    -9.7062350   -2.5162630    1.8175530  
C    -7.4798370   -1.6803320    1.7403830  
H    -4.6092410   -0.7198240    2.0183660  
H    -8.4735270   -0.4984100   -1.9880340  
H   -10.7976740   -2.2339330    0.1785130  
H    -7.2787960   -2.0336480    2.7472090  
C     4.9229160   -0.7563430   -2.5308270  
C     4.6131550   -0.6855910   -1.2053380  
C     5.6751410   -1.3557220   -0.4687460  
C     6.6349310   -1.8265810   -1.4948980  
N     6.1109530   -1.4400170   -2.7192690  
C     7.7789600   -2.4998350   -1.2195480  
C     8.0892820   -2.7945920    0.1796790  
O     9.0936780   -3.3963470    0.5231290  
C     7.0745680   -2.3141800    1.2822300  
O     7.3109270   -2.5631550    2.4525870  
C     5.8755210   -1.5833280    0.8542120  
H     8.4756520   -2.8348180   -1.9818250  
H     5.1848700   -1.2437050    1.6194590  
H     4.3698780   -0.3649450   -3.3743830  
H     6.5512120   -1.6026400   -3.6115580  
