60


C    -0.9301930    1.7394400   -0.1823420  
C    -1.7811360    0.6450850   -0.0195990  
C    -3.0949000    1.1426870    0.1530940  
C    -3.0144790    2.5655400    0.0823150  
N    -1.7020640    2.8967030   -0.1179700  
C    -4.1342990    3.3958170    0.1971690  
C    -5.3603400    2.7787750    0.3814060  
O    -6.4846660    3.5327010    0.5168430  
C    -5.4708620    1.3593670    0.4339080  
O    -6.7676140    0.9281540    0.6257800  
C    -4.3670410    0.5188490    0.3260210  
H    -1.4530880   -0.3807040   -0.0182980  
H    -1.3139620    3.8258210   -0.1932760  
H    -4.0751100    4.4782310    0.1571360  
H    -7.2234750    2.9209880    0.6829990  
H    -6.7625360   -0.0271450    0.7985100  
C     1.9912970   -1.5056260   -0.6084430  
C     3.1766170   -0.8307680   -0.6747730  
C     2.7795540    0.5917720   -0.6037380  
C     1.2974520    0.5608310   -0.4736440  
N     0.8588850   -0.6675250   -0.4943470  
C     0.4993600    1.7887030   -0.3740120  
C     1.2175990    2.9598650   -0.4815060  
O     0.6438480    4.1945280   -0.4206110  
C     2.6710890    3.0143310   -0.6649920  
O     3.2177560    4.1246150   -0.7503570  
C     3.4419160    1.7543680   -0.7341800  
H     1.3995480    4.8175680   -0.5234610  
H     4.5125220    1.8405580   -0.8918460  
H     1.8476320   -2.5792100   -0.6067730  
C     4.8687900   -2.4713810   -1.5824620  
C     4.5024130   -1.3864560   -0.8367610  
C     5.7635680   -0.9632290   -0.1846850  
C     6.7794560   -1.9316200   -0.6912070  
N     6.2435390   -2.8058690   -1.4996460  
C     8.1565800   -1.8671190   -0.2819790  
C     8.5101110   -0.9109100    0.6111120  
O     9.7568410   -0.7386430    1.0794150  
C     7.5039460    0.0547690    1.1684990  
O     7.8947430    0.8905460    1.9806520  
C     6.0933530   -0.0281110    0.7252940  
H     8.8721920   -2.5790220   -0.6781240  
H     9.7002820    0.0147220    1.7070830  
H     5.3984970    0.6788190    1.1674620  
H     4.2277410   -3.0615850   -2.2265200  
C    -6.7705820   -2.3595060   -2.0649370  
C    -6.1823920   -1.2434070   -1.5615970  
C    -5.3402350   -1.6587430   -0.4563550  
C    -5.4870700   -3.1324930   -0.3635670  
N    -6.3819710   -3.4894150   -1.3539260  
C    -4.8334430   -3.9271860    0.5225500  
C    -3.9176970   -3.2946730    1.4587440  
O    -3.2543120   -3.9168040    2.2741360  
C    -3.7757620   -1.7260470    1.4212070  
O    -3.0765890   -1.1953720    2.2644770  
C    -4.5176300   -0.9510740    0.3871110  
H    -6.3080260   -0.2342830   -1.9224420  
H    -4.9466280   -5.0063490    0.5565220  
H    -7.4560640   -2.4569800   -2.8964280  
H    -6.6385420   -4.4375810   -1.5799190  
