64


C    -0.6600820    2.3753120   -0.3519930  
C    -1.1870660    3.6246700   -0.6084760  
C    -2.6119420    3.5314030   -0.5006050  
C    -2.9194730    2.1812530   -0.1996890  
N    -1.7212080    1.4938000   -0.1384900  
C    -4.2413420    1.7092320   -0.0057820  
C    -5.2575350    2.6794890   -0.0698890  
O    -6.5563770    2.3242500    0.1297170  
C    -4.9586830    4.0276260   -0.3771810  
O    -6.0760550    4.8393990   -0.4302980  
C    -3.6645380    4.4603320   -0.6064910  
H    -0.6182470    4.5066020   -0.8689420  
H    -1.6170370    0.6042860    0.3273240  
H    -7.0961320    3.1206850   -0.0227620  
H    -5.8208540    5.7285470   -0.7169700  
H    -3.4679030    5.5043200   -0.8415280  
C     1.8109180    2.7400330   -0.0718200  
C     0.7151660    1.9209930   -0.2686270  
C     1.2302760    0.5675010   -0.3563340  
C     2.6363920    0.6503800   -0.2011090  
N     2.9560610    1.9838730   -0.0345710  
C     3.5059600   -0.4591260   -0.2404030  
C     2.9021580   -1.7003960   -0.4384200  
O     3.6559570   -2.8309220   -0.4479830  
C     1.4957470   -1.8075740   -0.6109140  
O     1.0657300   -3.1040050   -0.8151900  
C     0.6623980   -0.7046950   -0.5806770  
H     3.8944220    2.3338330    0.0873510  
H     3.0500470   -3.5784320   -0.5946850  
H     0.1026940   -3.1556420   -0.7244350  
H    -0.4022030   -0.8351950   -0.7565110  
H     1.8491980    3.8107760    0.0678220  
C     5.7933240    1.0470860    3.2187890  
C     7.0494030    0.9457290    2.6805520  
C     6.8997890    0.4227560    1.3509090  
C     5.5110200    0.2294750    1.1359910  
N     4.8583700    0.6343770    2.2851730  
C     4.9700790   -0.2961780   -0.0569160  
C     5.8893830   -0.6265730   -1.0530370  
O     5.4520960   -1.1128650   -2.2474270  
C     7.2832000   -0.4382150   -0.8542940  
O     8.0506780   -0.8069760   -1.9452300  
C     7.7959390    0.0803870    0.3191110  
H     7.9749000    1.2123410    3.1724340  
H     3.8739000    0.5009620    2.4586420  
H     6.2413140   -1.3186820   -2.7778050  
H     8.9891570   -0.7403850   -1.7158020  
H     8.8691090    0.2152190    0.4397650  
H     5.4775110    1.3905310    4.1938610  
C    -4.5353850    0.3001200    0.1933970  
C    -5.5609710   -0.3382500    0.8375830  
C    -5.3705390   -1.7580950    0.7053950  
C    -4.1429330   -1.9328170   -0.1067390  
N    -3.6260000   -0.6621620   -0.3250190  
C    -3.6658290   -3.1299840   -0.5250470  
C    -4.3673980   -4.3438430   -0.1110780  
O    -3.9943410   -5.4635920   -0.4262260  
C    -5.6434010   -4.1855750    0.7949020  
O    -6.2332310   -5.1935980    1.1573760  
C    -6.0746880   -2.8364520    1.1519450  
H    -6.3627580    0.1507500    1.3679280  
H    -2.7819320   -3.2379010   -1.1482720  
H    -6.9725440   -2.7386780    1.7545550  
H    -3.1049600   -0.4527150   -1.1678190  
