60


C    -3.1470380   -1.3186290   -0.1128280  
C    -4.0222280   -0.2917360    0.1907670  
C    -5.3581020   -0.8062520    0.1167510  
C    -5.2262660   -2.2376350   -0.2535340  
N    -3.8788120   -2.4747730   -0.3904050  
C    -6.2773020   -3.0841610   -0.4070600  
C    -7.6258330   -2.5650780   -0.2033720  
O    -8.6306720   -3.2508430   -0.3191000  
C    -7.7882260   -1.0485620    0.1831370  
O    -8.9101680   -0.5953710    0.3566120  
C    -6.5799770   -0.2355230    0.3228080  
H    -3.7532490    0.7078550    0.4890370  
H    -6.1645500   -4.1296810   -0.6758390  
H    -6.7036940    0.8092590    0.5921670  
H    -3.4140500   -3.3691280   -0.4971550  
C     0.0348710    1.8669830   -0.1754610  
C    -1.1925010    1.2270990   -0.2323070  
C    -0.9183180   -0.1766240   -0.1562000  
C     0.5687600   -0.2481020   -0.0561750  
N     1.1064930    0.9338710   -0.0481370  
C     1.2940410   -1.5203780    0.0239660  
C     0.4924070   -2.6406370    0.0006140  
O     1.0015110   -3.9041810    0.0446490  
C    -0.9612170   -2.6110930   -0.1216780  
O    -1.5382290   -3.7204150   -0.1990160  
C    -1.6956010   -1.3152970   -0.1385820  
H    -2.1447180    1.6765680   -0.4704180  
H     0.2123610   -4.4877910   -0.0290770  
C    -2.3416330    5.2797980    1.1974990  
C    -1.4930430    6.2905620    0.8849210  
C    -0.3179030    5.6931810    0.2854910  
C    -0.5617860    4.2367000    0.2556240  
N    -1.8106960    4.0531830    0.7969080  
C     0.3283210    3.2791870   -0.1946770  
C     1.6213200    3.7971190   -0.7210490  
O     2.4618330    3.1020470   -1.2577230  
C     1.9066360    5.3432970   -0.6418420  
O     3.0040440    5.7498260   -0.9872150  
C     0.8503980    6.2307700   -0.1605130  
H    -1.6544560    7.3447540    1.0562200  
H     1.0532310    7.2971390   -0.1386360  
H    -3.3137650    5.3136950    1.6706910  
H    -2.1599520    3.1466940    1.0748660  
C     2.7296880   -1.5550970    0.0825020  
C     3.6622790   -0.5129670   -0.0130670  
C     4.9496400   -1.0858200    0.0749340  
C     4.7781310   -2.4972490    0.2277340  
N     3.4331440   -2.7495950    0.2301610  
C     5.8600720   -3.3768240    0.3437800  
C     7.1319410   -2.8262780    0.3029320  
O     8.2201390   -3.6297110    0.4083260  
C     7.3237770   -1.4163420    0.1491860  
O     8.6526600   -1.0483220    0.1290080  
C     6.2609420   -0.5514630    0.0368440  
H     3.4062880    0.5261450   -0.1491820  
H     2.9822320   -3.6518320    0.2798490  
H     5.7420700   -4.4489290    0.4589310  
H     9.0095280   -3.0622840    0.3513030  
H     8.7248840   -0.0910470   -0.0025470  
H     6.4205030    0.5178360   -0.0811020  
