58


C     0.0524430    1.7671600    0.4081270  
C     1.3372730    1.2836390    0.3562780  
C     1.2801010   -0.1459570    0.2840830  
C    -0.1501890   -0.4946240    0.2609670  
N    -0.8427340    0.6934110    0.3064200  
C    -0.6769320   -1.7702250    0.2014300  
C     0.3121810   -2.8607680    0.2516160  
O     0.0086870   -4.0439970    0.3340890  
C     1.8464650   -2.5229940    0.2219150  
O     2.6161320   -3.4591580    0.3088380  
C     2.2746490   -1.1058160    0.1954000  
H     2.2323100    1.8837540    0.3058540  
H    -1.8127360    0.7399500    0.5898620  
C     0.2638720    4.1386550    1.1664250  
C    -0.4210590    3.1231300    0.5436350  
C    -1.6833510    3.6999690    0.0787810  
C    -1.6636280    5.1215010    0.4999840  
N    -0.4470280    5.3122670    1.1428590  
C    -2.6547930    6.0133040    0.2669010  
C    -3.8415770    5.5566720   -0.4617600  
O    -4.7873050    6.2846650   -0.7075960  
C    -3.8740260    4.0652740   -0.9495140  
O    -4.8392480    3.6622500   -1.5744010  
C    -2.7273220    3.2013110   -0.6319670  
H    -2.6132050    7.0516560    0.5808360  
H    -2.7586210    2.1861850   -1.0132440  
H     1.2267310    4.0939960    1.6579570  
H    -0.1551330    6.1753400    1.5767560  
C    -2.0976680   -2.0546690    0.1174930  
C    -3.1536130   -1.2424400   -0.2587440  
C    -4.3597700   -2.0211530   -0.1912180  
C    -3.9486960   -3.3739050    0.2583320  
N    -2.5842650   -3.3200020    0.4402550  
C    -4.8036980   -4.4130890    0.4354430  
C    -6.2239210   -4.1960180    0.1752710  
O    -7.0676430   -5.0692560    0.3102050  
C    -6.6823860   -2.7675550   -0.2986480  
O    -7.8678030   -2.5681630   -0.5176640  
C    -5.6640070   -1.7279440   -0.4575560  
H    -3.0927770   -0.2412250   -0.6568940  
H    -4.4845680   -5.3976650    0.7624070  
H    -5.9912120   -0.7469700   -0.7894080  
H    -1.9529970   -4.0973660    0.5942570  
C     3.6878740   -0.7896800    0.1464790  
C     4.3611570    0.2223100    0.7859990  
C     5.7447500    0.0829290    0.3953250  
C     5.7431680   -1.0891700   -0.5379080  
N     4.5553400   -1.5973850   -0.6753030  
C     6.9525540   -1.5422110   -1.1773160  
C     8.1014300   -0.8876930   -0.8867480  
O     9.2995040   -1.2033700   -1.3982470  
C     8.1362350    0.2858790    0.0638150  
O     9.2272950    0.8199540    0.2633570  
C     6.8893290    0.7409990    0.6929550  
H     3.9681370    0.9246320    1.5071190  
H     6.9240670   -2.3887620   -1.8540170  
H     9.9292540   -0.5593010   -1.0038880  
H     6.9535300    1.5934040    1.3624860  
