62


C     1.6105260   -0.0128690    0.1872580  
C     1.0748240   -1.2717640    0.3281890  
C     1.8724220   -2.1445600   -0.5126390  
C     2.8736230   -1.3495640   -1.1213160  
N     2.6950670   -0.0382060   -0.6826900  
C     3.8272120   -1.8785470   -1.9989500  
C     3.7582950   -3.2344130   -2.2796470  
O     4.6645670   -3.7972250   -3.1270760  
C     2.7461280   -4.0439830   -1.6973620  
O     2.8002620   -5.3657140   -2.0867090  
C     1.8114060   -3.5198900   -0.8243080  
H     4.6070990   -1.2776950   -2.4528610  
H     4.4478970   -4.7432470   -3.1974660  
H     2.0794400   -5.8603080   -1.6688300  
H     1.0430770   -4.1551290   -0.3912210  
H     1.3073890    0.9177720    0.6443930  
C    -3.0721490    0.4232250    0.6891410  
C    -1.7741250    0.1794970    0.3157400  
C    -1.3114790   -0.9229650    1.1097390  
C    -2.3908450   -1.3202960    1.9414310  
N    -3.4570040   -0.4843730    1.6653480  
C    -2.3099680   -2.3936880    2.8349180  
C    -1.1047880   -3.0751600    2.8900630  
O    -0.9536100   -4.1165480    3.7564810  
C    -0.0143590   -2.6993330    2.0627770  
O     1.1130530   -3.4734920    2.2551130  
C    -0.0851060   -1.6369210    1.1633990  
H    -1.2341660    0.6976590   -0.4633360  
H    -4.3251970   -0.4444290    2.1773750  
H    -3.1325650   -2.6970830    3.4737810  
H    -0.0329080   -4.4220520    3.6777170  
H     1.8547210   -3.0845510    1.7620250  
C    -3.6638100    2.7904340    0.2224800  
C    -4.6853620    3.5087370   -0.3040030  
C    -5.7368780    2.5758660   -0.6505570  
C    -5.2298700    1.2292070   -0.2874230  
N    -3.9579570    1.4200520    0.2555900  
C    -5.9147880    0.0741860   -0.4819140  
C    -7.2495970    0.1516120   -1.0737460  
O    -7.9379580   -0.8341840   -1.2879800  
C    -7.8161370    1.5703720   -1.4460400  
O    -8.9343040    1.6533170   -1.9293880  
C    -6.9692500    2.7403130   -1.1993420  
H    -4.7155850    4.5811570   -0.4312280  
H    -5.5190290   -0.9041490   -0.2314660  
H    -7.3630350    3.7141870   -1.4742270  
H    -2.7093520    3.1199570    0.6102160  
C     3.7542950    1.4940090   -2.3122350  
C     3.4633430    1.0800620   -1.0463650  
C     4.1164530    1.9992000   -0.1244660  
C     4.8139050    2.9931520   -0.9760850  
N     4.5635810    2.6218200   -2.2842740  
C     5.5398170    4.0341130   -0.4963060  
C     5.6550800    4.1922270    0.9519130  
O     6.2812350    5.1007360    1.4741910  
C     4.9360460    3.1377660    1.8714110  
O     5.0272800    3.2472940    3.0829070  
C     4.1754820    2.0577300    1.2306600  
H     6.0423190    4.7556420   -1.1331490  
H     3.6839770    1.3338330    1.8727820  
H     3.4437290    1.0621950   -3.2536830  
H     4.9301140    3.0911930   -3.0974210  
