62


C     1.6295190   -0.6850700   -0.3867710  
C     2.9309310   -0.3146550   -0.6147860  
C     2.9781290    1.1262900   -0.4699410  
C     1.6664790    1.5639510   -0.1725360  
N     0.8426130    0.4332050   -0.1232720  
C     1.3587850    2.9082320    0.0613570  
C     2.3910640    3.8284110   -0.0340070  
O     2.1418590    5.1501320    0.1851360  
C     3.7083000    3.4091760   -0.3573810  
O     4.6219080    4.4402430   -0.4256340  
C     4.0097870    2.0779780   -0.5791040  
H     0.3583080    3.2549210    0.2875830  
H     2.9814060    5.6270840    0.0672470  
H     5.5056000    4.0828230   -0.5985880  
H     5.0252230    1.7766600   -0.8235510  
H     1.1792120   -1.6667400   -0.4073200  
C    -1.3953690   -2.0118830    2.7494510  
C    -0.4031990   -1.4027360    2.0467870  
C    -1.0313540   -0.4719370    1.1340170  
C    -2.4832400   -0.5905090    1.3671400  
N    -2.6401310   -1.5400120    2.3540620  
C    -3.4541750    0.1388380    0.7357580  
C    -3.0135080    1.1212870   -0.2585810  
O    -3.7645160    1.8980790   -0.8217040  
C    -1.4785920    1.1832700   -0.6142690  
O    -1.1379360    1.8644870   -1.5635850  
C    -0.5261540    0.3873330    0.1909420  
H     0.6572370   -1.5684890    2.1589020  
H    -1.3250800   -2.7604740    3.5271680  
H    -3.5349290   -1.8287070    2.7206480  
C    -5.3075090    0.1735620    2.3947270  
C    -6.6543020   -0.0580160    2.4066220  
C    -7.0460070   -0.3698910    1.0601610  
C    -5.8791420   -0.3059020    0.2586630  
N    -4.8119790    0.0269630    1.0940310  
C    -5.8900720   -0.5883990   -1.1118970  
C    -7.1065680   -0.9238420   -1.6850150  
O    -7.1745040   -1.2013560   -3.0188940  
C    -8.2883870   -0.9835980   -0.8990580  
O    -9.4177440   -1.3342600   -1.6140920  
C    -8.2711020   -0.7143140    0.4563620  
H    -7.3003450    0.0097820    3.2716150  
H    -5.0054150   -0.5272890   -1.7340840  
H    -8.1083180   -1.3724110   -3.2305850  
H   -10.1971830   -1.2604200   -1.0439450  
H    -9.1859000   -0.7738290    1.0427870  
H    -4.6435220    0.4946160    3.1852120  
C     3.9788690   -2.1780660   -1.9583870  
C     4.0177150   -1.2200730   -0.9878410  
C     5.3433360   -1.3139840   -0.3787970  
C     6.0597490   -2.4044100   -1.0885410  
N     5.1678260   -2.9014500   -2.0158850  
C     7.3349190   -2.7879340   -0.8221110  
C     8.0584170   -2.1020700    0.2430310  
O     9.2088200   -2.3736860    0.5528220  
C     7.3093600   -0.9634840    1.0289170  
O     7.8954650   -0.3811960    1.9282060  
C     5.9317440   -0.6398280    0.6438190  
H     7.8417460   -3.5862670   -1.3557640  
H     5.4237340    0.1456880    1.1938270  
H     3.1726500   -2.4076450   -2.6426020  
H     5.3899210   -3.5961730   -2.7115280  
