58


C     6.2224830    1.3870730   -1.4583220  
C     5.5021650    0.3712520   -0.9002660  
C     6.4463660   -0.6295550   -0.4273880  
C     7.7890470   -0.1025600   -0.7671380  
N     7.5782050    1.1233890   -1.3786990  
C     8.9514080   -0.7464960   -0.4993610  
C     8.8863130   -2.0460930    0.1709070  
O     9.8787030   -2.6997360    0.4466400  
C     7.4697310   -2.6171770    0.5473010  
O     7.3952650   -3.6972960    1.1089550  
C     6.2856930   -1.8218410    0.2018880  
H     9.9289170   -0.3493170   -0.7548010  
H     5.3123390   -2.2204410    0.4705500  
H     5.8639250    2.3012510   -1.9120920  
H     8.3078300    1.7454370   -1.6907960  
C     3.2995810   -0.6945950   -1.3613020  
C     1.9894650   -0.5075460   -1.0668680  
C     1.8937750    0.6782790   -0.2422070  
C     3.2788470    1.1765640   -0.0781880  
N     4.1024150    0.2962910   -0.7820730  
C     3.6257650    2.2912950    0.6129650  
C     2.5669270    3.0710570    1.2420680  
O     2.7757160    4.1035270    1.8588560  
C     1.0929550    2.5470410    1.1257610  
O     0.2205150    3.1084720    1.7609930  
C     0.8234340    1.3359570    0.3030990  
H     1.1674560   -1.1229050   -1.3995210  
H     4.6481000    2.6403550    0.7078350  
H     3.7687530   -1.4616080   -1.9630160  
C    -1.3942630   -2.3522190    1.4525760  
C    -0.4316660   -1.4227090    1.2260820  
C    -1.0599470   -0.3095330    0.5443930  
C    -2.4815420   -0.6755960    0.3856980  
N    -2.6122610   -1.9353260    0.9229450  
C    -3.4735750    0.1293480   -0.1324430  
C    -3.0373250    1.4504690   -0.6394270  
O    -3.7663910    2.2187920   -1.2345110  
C    -1.5256770    1.8556350   -0.4880880  
O    -1.1643910    2.9166970   -0.9607930  
C    -0.5734870    0.9082730    0.1453850  
H     0.6062090   -1.4902110    1.5138480  
H    -1.3246060   -3.3097880    1.9510120  
H    -3.5117180   -2.3553000    1.1142290  
C    -4.8620600   -0.2796690   -0.1876940  
C    -5.3735650   -1.5445820   -0.3779040  
C    -6.8080900   -1.4016360   -0.3150470  
C    -7.0153210    0.0579390   -0.0411160  
N    -5.8897430    0.7050330    0.0252630  
C    -8.3347980    0.6128160    0.1220180  
C    -9.3888500   -0.2262760   -0.0089430  
O   -10.6708140    0.1470440    0.1061580  
C    -9.2112070   -1.6989470   -0.3049280  
O   -10.2338690   -2.3787190   -0.4029590  
C    -7.8589700   -2.2457710   -0.4493540  
H    -4.8365940   -2.4412300   -0.6578940  
H    -8.4569320    1.6701480    0.3282000  
H   -11.1921000   -0.6744470   -0.0403620  
H    -7.7714180   -3.3090760   -0.6509150  
