58


C     3.5459240   -0.2847110   -0.1686450  
C     4.1275260    0.8572590    0.3617320  
C     5.5457840    0.6694130    0.3815130  
C     5.7915670   -0.6832880   -0.1756550  
N     4.5548530   -1.1949540   -0.4935980  
C     7.0222010   -1.2399030   -0.3130470  
C     8.1875820   -0.4673590    0.1070930  
O     9.3321000   -0.8860790    0.0209360  
C     7.9511670    0.9705030    0.6981700  
O     8.9148690    1.6330050    1.0541740  
C     6.5768430    1.4614900    0.7999730  
H     3.6053080    1.7128350    0.7576600  
H     7.1846310   -2.2328850   -0.7203490  
H     6.4244160    2.4545950    1.2119380  
H     4.3423050   -2.1368730   -0.7945860  
C    -0.2828250    2.0916040   -0.2014230  
C     1.0688400    1.7445370   -0.2264680  
C     1.1171300    0.3406700   -0.3256740  
C    -0.3268200   -0.0783330   -0.3850890  
N    -1.1277380    0.9450350   -0.2905580  
C    -0.7441390   -1.4685360   -0.5289210  
C     0.2872100   -2.3607060   -0.6477500  
O     0.1014440   -3.6738000   -0.8558900  
C     1.7371600   -1.9827340   -0.6036890  
O     2.5297690   -2.9243560   -0.7906470  
C     2.1483730   -0.5961240   -0.3599430  
H     1.9020360    2.4287570   -0.2043060  
H     1.0115530   -4.0464220   -0.9349190  
C    -0.2415160    4.6154150   -0.0963280  
C    -0.8706760    3.3738370   -0.1070870  
C    -2.3054300    3.7102510    0.0076150  
C    -2.3226080    5.1944860    0.0672360  
N    -1.0973340    5.6948510    0.0028460  
C    -3.5302480    5.9418960    0.1866280  
C    -4.6947190    5.2400890    0.2556790  
O    -5.8991640    5.8010510    0.3706900  
C    -4.7154360    3.7312540    0.2128770  
O    -5.8094560    3.1799670    0.2912050  
C    -3.4415910    2.9909410    0.0838050  
H    -3.5040140    7.0250530    0.2240000  
H    -6.5406540    5.0551180    0.4010040  
H    -3.4715290    1.9079610    0.0602710  
H     0.8249710    4.7986110   -0.1650470  
C    -3.1742890   -1.0642320   -1.1013150  
C    -2.1561420   -1.8246890   -0.5895020  
C    -2.8377920   -3.0421550   -0.0986920  
C    -4.2766870   -2.8102410   -0.4333110  
N    -4.4536630   -1.6588050   -1.0243550  
C    -5.3014950   -3.7646400   -0.1102330  
C    -4.9323250   -4.8926210    0.5428770  
O    -5.7780740   -5.8638440    0.9146620  
C    -3.4978520   -5.1444250    0.9214170  
O    -3.2404710   -6.1859020    1.5211730  
C    -2.4619100   -4.1515210    0.5661430  
H    -6.3318720   -3.5614670   -0.3797860  
H    -5.2227310   -6.5381060    1.3650350  
H    -1.4420340   -4.3873150    0.8424940  
H    -3.0802000   -0.0876440   -1.5540940  
