64


C    -0.5498150   -1.6088400   -0.6899580  
C    -0.9893440   -2.8207850   -1.1648510  
C    -2.3491970   -2.9697640   -0.7314450  
C    -2.6830890   -1.7973060   -0.0057930  
N    -1.5732550   -0.9784000    0.0033670  
C    -3.9522750   -1.5997250    0.5628560  
C    -4.8942210   -2.6179110    0.4090450  
O    -6.1331310   -2.4775360    0.9577890  
C    -4.5643410   -3.7961270   -0.3052280  
O    -5.5995970   -4.7079190   -0.3645020  
C    -3.3183790   -3.9801090   -0.8784450  
H    -0.4172880   -3.5040220   -1.7758060  
H    -1.4691870   -0.1297620    0.5388240  
H    -6.6447920   -3.2690850    0.7140270  
H    -5.3583330   -5.4390060   -0.9523320  
H    -3.0932480   -4.8950800   -1.4217540  
C     1.9065350   -1.7347120   -0.6506190  
C     2.9644210   -0.8753710   -0.7845520  
C     2.4300130    0.4473500   -0.9932290  
C     1.0206840    0.3240260   -0.9833300  
N     0.7138560   -1.0252400   -0.7728050  
C     0.1740300    1.4193970   -1.2013060  
C     0.7669800    2.6579370   -1.4017760  
O    -0.0161940    3.7509100   -1.6020620  
C     2.1813350    2.7954850   -1.4026020  
O     2.6151960    4.0857480   -1.6195290  
C     3.0137770    1.7091890   -1.2114040  
H    -0.9063970    1.3417510   -1.2424870  
H     0.5703180    4.5155540   -1.7348320  
H     3.5826500    4.1158520   -1.5766490  
H     4.0943600    1.8249300   -1.2259060  
H     1.8917380   -2.7936880   -0.4424310  
C     4.9152550   -2.1883200   -1.5921650  
C     6.2437040   -2.3143850   -1.2919230  
C     6.5213100   -1.4065510   -0.2146440  
C     5.3028810   -0.7513700    0.1014280  
N     4.3246080   -1.2413400   -0.7595460  
C     5.1972000    0.1885730    1.1354060  
C     6.3481150    0.4877790    1.8482660  
O     6.3020140    1.4028420    2.8630570  
C     7.5787680   -0.1475990    1.5373830  
O     8.6352990    0.2580660    2.3338920  
C     7.6761910   -1.0847950    0.5254510  
H     6.9465420   -2.9709880   -1.7865820  
H     4.2627920    0.6746800    1.3918780  
H     7.1961240    1.4532400    3.2424220  
H     9.4290660   -0.2417300    2.0930030  
H     8.6290250   -1.5652540    0.3103920  
H     4.3149960   -2.6723360   -2.3492780  
C    -4.6488810   -0.3523030    2.6217390  
C    -4.9840670    0.9081990    2.9913210  
C    -4.8570930    1.7497640    1.8211330  
C    -4.4125410    0.8582330    0.7203750  
N    -4.2730710   -0.4131060    1.2736430  
C    -4.2131060    1.2628910   -0.5600640  
C    -4.4467530    2.6689330   -0.8878730  
O    -4.3246370    3.1161210   -2.0176140  
C    -4.8839750    3.6383420    0.2707800  
O    -5.0596930    4.8206030    0.0195540  
C    -5.0738960    3.0749810    1.6094390  
H    -5.2957060    1.2258880    3.9757890  
H    -3.9211560    0.5889230   -1.3583760  
H    -5.4000100    3.7477940    2.3969560  
H    -4.6318530   -1.2623870    3.2053560  
