60


C    -3.3684480    0.9789780   -1.7258900  
C    -4.6442850    1.4300130   -1.7301310  
C    -5.3418150    0.7725250   -0.6464940  
C    -4.3544730   -0.1259240    0.0001900  
N    -3.1523630    0.0280270   -0.7160250  
C    -4.6208380   -0.8630530    1.1031710  
C    -5.9726230   -0.8110170    1.6691570  
O    -6.2915650   -1.4454060    2.6613480  
C    -7.0420250    0.0993250    0.9696800  
O    -8.1750750    0.1426980    1.4214680  
C    -6.6193870    0.8762310   -0.1973650  
H    -5.0717110    2.1346930   -2.4290980  
H    -3.9015940   -1.5151870    1.5815310  
H    -7.3503950    1.5318530   -0.6606740  
H    -2.5488430    1.2169600   -2.3895670  
C     0.9171550    1.6673870   -0.1689060  
C    -0.4381870    1.5859480   -0.4122490  
C    -0.7416430    0.1769110   -0.4313460  
C     0.5749000   -0.4974070   -0.2566820  
N     1.5253380    0.3821220   -0.1001590  
C     0.7374560   -1.9442760   -0.2261910  
C    -0.4396420   -2.6467160   -0.1741490  
O    -0.5052310   -3.9733600    0.0037390  
C    -1.7855640   -2.0200270   -0.3286120  
O    -2.7678320   -2.7655320   -0.3542210  
C    -1.8982950   -0.5447950   -0.4614070  
H    -1.1599760    2.3912080   -0.3844250  
H    -1.4593760   -4.1993410   -0.0596630  
C     0.6723870    5.6684590   -1.9397120  
C     1.7241270    6.2597500   -1.3199940  
C     2.3127470    5.2729240   -0.4377430  
C     1.5003110    4.0472860   -0.5893100  
N     0.5086840    4.3582820   -1.4885320  
C     1.7415440    2.8417070    0.0329170  
C     2.8831020    2.8179160    0.9768240  
O     3.1443870    1.8740870    1.7034690  
C     3.7814950    4.1028760    1.1131110  
O     4.7700610    4.0459330    1.8256270  
C     3.3956370    5.3102570    0.3853260  
H     2.0653300    7.2753290   -1.4574570  
H     4.0136900    6.1944190    0.5065630  
H    -0.0105910    6.0709920   -2.6757240  
H    -0.0922400    3.6622190   -1.9065790  
C     4.5568320   -1.2549730    2.0556280  
C     5.2143400   -2.3772450    1.6181030  
C     4.3503090   -3.0178430    0.6724170  
C     3.1602190   -2.2386670    0.5956960  
N     3.3112780   -1.1845760    1.4720480  
C     2.0585590   -2.6069710   -0.2208570  
C     2.2687640   -3.7236300   -1.0536090  
O     1.3312350   -4.0750040   -1.9751800  
C     3.4575870   -4.4908340   -0.9888140  
O     3.4724680   -5.5636280   -1.8655260  
C     4.4826210   -4.1708920   -0.1241280  
H     6.1972930   -2.7073920    1.9251050  
H     2.7879550   -0.3172480    1.3850950  
H     1.6495010   -4.8886240   -2.4049880  
H     4.3072080   -6.0448660   -1.7700210  
H     5.3826400   -4.7814180   -0.0804260  
H     4.8757620   -0.4742310    2.7314470  
