60


C    -3.4939040   -1.7641940   -0.6886160  
C    -2.2116580   -1.3003850   -0.7901860  
C    -2.2510140    0.1168730   -0.5650170  
C    -3.6053010    0.4617060   -0.3247040  
N    -4.3606240   -0.7070820   -0.4049770  
C    -4.0134510    1.7601780   -0.0088670  
C    -3.0304050    2.7372610    0.0437680  
O    -3.3748550    4.0258990    0.3173930  
C    -1.6721600    2.4180830   -0.1986000  
O    -0.8235100    3.5110180   -0.1250980  
C    -1.2468440    1.1217940   -0.4965500  
H    -1.3407050   -1.9000960   -1.0117560  
H    -5.0491290    2.0316910    0.1532790  
H    -2.5665280    4.5617610    0.2327460  
H    -0.0376220    3.3441690   -0.6687110  
H    -3.8938430   -2.7563410   -0.8444620  
C     0.7011830    0.0193390   -1.7152180  
C     0.1661970    0.8073170   -0.7410600  
C     1.3369080    1.1854310    0.0849170  
C     2.4980400    0.5243840   -0.5771710  
N     2.1083570   -0.1513620   -1.6202360  
C     3.8698880    0.6346970   -0.0658540  
C     3.9978370    1.3776470    1.0812990  
O     5.1791240    1.6321880    1.6858020  
C     2.8501760    2.0178800    1.7745150  
O     3.0837720    2.6725910    2.7952130  
C     1.4864250    1.8839650    1.2239890  
H     4.9449830    2.1948950    2.4593630  
H     0.6794690    2.3760280    1.7565970  
H     0.1759230   -0.4639120   -2.5296520  
C     5.0011290   -0.3101760   -2.1153230  
C     4.9671030   -0.0074760   -0.7766910  
C     6.2591930   -0.5254380   -0.2670920  
C     6.9287010   -1.0809580   -1.4827620  
N     6.1877980   -0.9389280   -2.5491310  
C     8.2246430   -1.7009290   -1.4327760  
C     8.8299400   -1.8060240   -0.2258710  
O    10.0307750   -2.3686400   -0.0241760  
C     8.1705350   -1.2923950    1.0236280  
O     8.7739300   -1.4341880    2.0858530  
C     6.8449090   -0.6441180    0.9406310  
H     8.6759330   -2.0779540   -2.3437620  
H    10.1914850   -2.2986460    0.9430020  
H     6.4238250   -0.2700390    1.8643510  
H     4.2191350   -0.1208170   -2.8355740  
C    -6.4735170   -3.2306690    2.3975000  
C    -7.7500970   -2.9432640    2.0353500  
C    -7.6885020   -1.9669050    0.9666420  
C    -6.2472900   -1.7114620    0.7368950  
N    -5.5637440   -2.5155070    1.6228130  
C    -5.7492690   -0.8420350   -0.1914730  
C    -6.7147070   -0.1122350   -1.0311270  
O    -6.3794940    0.6580050   -1.9135120  
C    -8.2514190   -0.3511240   -0.7691820  
O    -9.0533340    0.2915010   -1.4271250  
C    -8.6477330   -1.3212990    0.2498820  
H    -8.6489170   -3.3614770    2.4641160  
H    -9.7091420   -1.4867840    0.4049760  
H    -6.1112390   -3.9055390    3.1616020  
H    -4.5606100   -2.5166010    1.7305590  
