64


C     3.7527400    1.7102220   -0.1194900  
C     4.9816220    1.2629940   -0.5679210  
C     4.9249390   -0.1649650   -0.6488100  
C     3.6137740   -0.5504210   -0.2578870  
N     2.9276910    0.6046900    0.0483490  
C     3.1744560   -1.8908990   -0.2015990  
C     4.1466970   -2.8442920   -0.5037110  
O     3.8327080   -4.1902450   -0.4123240  
C     5.4560100   -2.4887140   -0.8971120  
O     6.2648860   -3.5770830   -1.1735340  
C     5.8533280   -1.1671350   -0.9913280  
H     5.8200800    1.8915200   -0.8349450  
H     2.0323400    0.6281140    0.5102060  
H     4.6319460   -4.6862540   -0.6679440  
H     7.1493870   -3.2705390   -1.4216780  
H     6.8658540   -0.9154810   -1.2996180  
C     4.0701340    4.1334970    0.4827020  
C     3.2738900    3.0487000    0.1786110  
C     1.9030060    3.5221770    0.2379130  
C     1.9528440    4.8982920    0.5841660  
N     3.2844990    5.2402180    0.7144060  
C     0.8087570    5.6893190    0.7377960  
C    -0.4222210    5.0779980    0.5469730  
O    -1.5710280    5.7919630    0.7052640  
C    -0.4942360    3.7082610    0.1854620  
O    -1.7879710    3.2335940   -0.0090780  
C     0.6404000    2.9359450    0.0145350  
H     3.6280480    6.1475850    0.9877190  
H     0.8520300    6.7391130    1.0094320  
H    -2.3068210    5.1699770    0.5607110  
H    -1.8510730    2.3212020    0.3126370  
H     0.5344490    1.9108160   -0.3283990  
H     5.1454940    4.1901980    0.5716480  
C    -0.7211830   -0.3351790   -1.7056090  
C     0.5877440   -0.6673580   -1.5460430  
C     0.6785350   -1.5853670   -0.4360260  
C    -0.6371190   -1.8025570    0.0367590  
N    -1.4988770   -1.0153810   -0.7541760  
C    -0.9173090   -2.6501480    1.1141930  
C     0.1573640   -3.3375200    1.6641370  
O    -0.0506120   -4.2066330    2.6859740  
C     1.4844080   -3.1447720    1.1974660  
O     2.4267320   -3.8797400    1.8732320  
C     1.7808720   -2.2321830    0.1827850  
H     1.4037990   -0.3253410   -2.1652190  
H    -1.9052780   -2.7887850    1.5346950  
H     0.8248740   -4.5831610    2.8989960  
H     3.0837830   -4.2052450    1.2182120  
H    -1.2075310    0.2821900   -2.4456770  
C    -2.8560590   -0.8162780   -0.6158250  
C    -3.5963100    0.2927180   -0.9373000  
C    -4.9756790   -0.0197870   -0.6719450  
C    -4.9929830   -1.4118810   -0.1590900  
N    -3.6646930   -1.8286020   -0.0940780  
C    -6.1128270   -2.0978540    0.1644430  
C    -7.4037290   -1.4174960    0.0325800  
O    -8.4632260   -1.9585490    0.3053260  
C    -7.4085950    0.0725290   -0.4686460  
O    -8.4799870    0.6525380   -0.5725730  
C    -6.1296610    0.6932830   -0.8006650  
H    -3.2083030    1.2396690   -1.2847690  
H    -6.1060650   -3.1199340    0.5308390  
H    -6.1460410    1.7162620   -1.1638950  
H    -3.3949720   -2.8019040   -0.1318310  
