62


C    -1.4288060    2.6865570    0.1226020  
C    -2.7255390    2.2576560    0.2431180  
C    -2.7180590    0.8284580    0.0976400  
C    -1.3602290    0.4469360   -0.0869170  
N    -0.6071940    1.6020130   -0.0923400  
C    -0.9284170   -0.8896270   -0.2406450  
C    -1.9573580   -1.8285540   -0.1980890  
O    -1.6720410   -3.1682150   -0.3529720  
C    -3.3173060   -1.4903430   -0.0069520  
O    -4.1562910   -2.5817240   -0.0129210  
C    -3.7424810   -0.1643400    0.1141490  
H    -3.5841170    2.8895980    0.4129430  
H     0.3995590    1.6241410   -0.1487400  
H    -2.5335290   -3.6237420   -0.2438480  
H    -4.7984630   -2.4478990    0.7253340  
H    -1.0184200    3.6853730    0.1705770  
C     2.8259490    0.2445330    1.9733830  
C     1.5280560    0.0639840    1.5901990  
C     1.5277120   -0.7282570    0.3821330  
C     2.8782170   -1.0198440    0.0762440  
N     3.6548620   -0.4023060    1.0552700  
C     3.2788040   -1.8208050   -0.9950230  
C     2.2632970   -2.3651460   -1.7655560  
O     2.5599170   -3.1785700   -2.8112460  
C     0.8938720   -2.0918320   -1.4911050  
O     0.0244600   -2.6929980   -2.3719150  
C     0.4952890   -1.2503830   -0.4494060  
H     0.6611920    0.4298600    2.1212800  
H     4.3172060   -2.0387770   -1.2175840  
H     1.6986860   -3.4546820   -3.1807990  
H    -0.7166890   -3.0748240   -1.8499590  
H     3.2600320    0.7661190    2.8137810  
C     5.7266960   -1.4905850    1.8013140  
C     7.0600540   -1.2705140    1.7164570  
C     7.2570580   -0.0442920    0.9651480  
C     5.9067340    0.4495950    0.6047550  
N     5.0161440   -0.4747520    1.1435030  
C     5.6517580    1.5778460   -0.0992070  
C     6.7906040    2.3803700   -0.5427830  
O     6.6678000    3.4164080   -1.1768310  
C     8.2372720    1.8792630   -0.1781160  
O     9.1997040    2.5363730   -0.5407560  
C     8.3711490    0.6365820    0.5901120  
H     7.8392390   -1.8938570    2.1307550  
H     4.6495190    1.9092660   -0.3478610  
H     9.3743730    0.3020010    0.8363280  
H     5.1710460   -2.2899190    2.2725780  
C    -6.2652230    2.7605910   -2.0824260  
C    -5.2657160    1.9351920   -1.6735240  
C    -5.7555040    1.1872650   -0.5385020  
C    -7.1498340    1.6496150   -0.3199130  
N    -7.3866630    2.6191510   -1.2730730  
C    -7.9812060    1.1937150    0.6526340  
C    -7.4801640    0.1437290    1.5192840  
O    -8.1058770   -0.3239450    2.4574390  
C    -6.0565960   -0.4539340    1.2097330  
O    -5.7661240   -1.4960570    1.7963600  
C    -5.1688710    0.2112270    0.2404990  
H    -4.2862040    1.8485940   -2.1158940  
H    -8.9790990    1.5829740    0.8262890  
H    -6.2815660    3.4606840   -2.9071840  
H    -8.2724510    3.0782230   -1.4162360  
