58


C     5.2873550   -0.2964030   -2.8264870  
C     4.6758620   -0.3587190   -1.6048210  
C     5.6390370   -0.9873640   -0.6996400  
C     6.8519670   -1.2693570   -1.5080510  
N     6.5619270   -0.8404960   -2.7894130  
C     7.9836610   -1.8430630   -1.0278940  
C     8.0223360   -2.2312080    0.3796100  
O     8.9980330   -2.7456720    0.9031270  
C     6.7369110   -1.9778900    1.2479370  
O     6.7377840   -2.3129280    2.4211040  
C     5.5771470   -1.3420770    0.6100360  
H     8.8595730   -2.0385520   -1.6389240  
H     4.6958570   -1.1830260    1.2227680  
H     4.9015090    0.1194650   -3.7478950  
H     7.2148790   -0.8412060   -3.5575950  
C     2.1980650   -0.0951800   -2.0641980  
C     3.3190580    0.0793150   -1.3109200  
C     2.8590890    0.9042330   -0.1734550  
C     1.4002920    1.0926490   -0.4246970  
N     1.0322570    0.5247650   -1.5366940  
C     0.5584440    1.8619000    0.4730310  
C     1.1798420    2.4720790    1.5196140  
O     0.5430320    3.2212550    2.4309240  
C     2.6547980    2.3375510    1.7663600  
O     3.1265450    2.9229480    2.7389740  
C     3.4757670    1.5133780    0.8553130  
H     1.2402640    3.5193130    3.0565520  
H     4.5376310    1.4461010    1.0693950  
H     2.1132100   -0.6555320   -2.9881230  
C    -2.5327920   -1.1933970    0.4624200  
C    -3.6754690   -0.5128580    0.1265180  
C    -3.2142000    0.8844590   -0.0360170  
C    -1.7493340    0.8156840    0.2470800  
N    -1.3731380   -0.4014790    0.5382020  
C    -0.8933120    1.9841960    0.2260480  
C    -1.5040700    3.1787530   -0.0079570  
O    -0.8595900    4.3501530   -0.0561360  
C    -2.9809180    3.2835660   -0.2663740  
O    -3.4421660    4.4037830   -0.4732660  
C    -3.8148430    2.0648910   -0.2715800  
H    -1.5531700    5.0224990   -0.2409610  
H    -4.8698580    2.1897300   -0.4802990  
H    -2.4454880   -2.2599000    0.6312780  
C    -5.8667590   -3.7696830    2.2502030  
C    -4.9281750   -2.8389920    1.9445790  
C    -5.4576960   -2.1252000    0.7882660  
C    -6.7713240   -2.7772730    0.5413010  
N    -7.0035820   -3.7418060    1.3893880  
C    -7.6513270   -2.3486540   -0.5159720  
C    -7.2546620   -1.3059890   -1.2791350  
O    -7.9832500   -0.7878810   -2.2851220  
C    -5.9386080   -0.6183900   -1.0587830  
O    -5.6739590    0.3248050   -1.8031700  
C    -5.0023150   -1.0938300    0.0136690  
H    -4.0012140   -2.6401710    2.4622980  
H    -8.6009150   -2.8492750   -0.6691170  
H    -7.4422590   -0.0563400   -2.6525550  
H    -5.8466430   -4.4944710    3.0553010  
