60


C     1.5696240    0.1326000   -0.0363050  
C     0.8993390    1.3330240   -0.0017190  
C     1.9176490    2.3668210    0.1471090  
C     3.1735360    1.7191300    0.1865490  
N     2.9387880    0.3370240    0.0494050  
C     4.3743970    2.3985090    0.4155740  
C     4.3110870    3.7763640    0.5745440  
O     5.4540660    4.4825610    0.7898150  
C     3.0644880    4.4455890    0.5267670  
O     3.1551430    5.8087380    0.7068280  
C     1.8781050    3.7604180    0.3309780  
H     5.3311710    1.9000550    0.5098130  
H     5.2048230    5.4175740    0.8924210  
H     2.2714900    6.2036830    0.6635870  
H     0.9361250    4.2954420    0.3018240  
H     1.1792060   -0.8649280   -0.1446760  
C    -2.1867180   -1.4205690    1.3898140  
C    -3.3487890   -0.8135780    1.0112110  
C    -2.8984240    0.4365440    0.3580480  
C    -1.4112580    0.3872630    0.4371260  
N    -1.0186200   -0.6955770    1.0509440  
C    -0.5556060    1.4516440   -0.0914850  
C    -1.2239050    2.5045340   -0.6610460  
O    -0.6125070    3.5531860   -1.2555500  
C    -2.7052540    2.5986190   -0.7076770  
O    -3.2088280    3.5901540   -1.2438120  
C    -3.5311050    1.5080670   -0.1477730  
H    -1.3509080    4.1190920   -1.5769280  
H    -4.6083960    1.6327230   -0.1886550  
H    -2.0806390   -2.3773180    1.8866470  
C    -5.1833670   -1.8908400    2.3703700  
C    -4.7031490   -1.2589200    1.2571220  
C    -5.8720230   -1.2025130    0.3503010  
C    -6.9687030   -1.8522970    1.1282920  
N    -6.5508110   -2.2513370    2.2995470  
C    -8.2914520   -2.0078140    0.5876070  
C    -8.5170950   -1.5711700   -0.6757990  
O    -9.7002670   -1.6556070   -1.3025210  
C    -7.4255670   -0.9474020   -1.4989050  
O    -7.6992900   -0.5822690   -2.6396210  
C    -6.0730440   -0.7925020   -0.9157010  
H    -9.0678160   -2.4740540    1.1839340  
H    -9.5566910   -1.2718520   -2.1950910  
H    -5.3130860   -0.3533020   -1.5542060  
H    -4.6341690   -2.1090800    3.2787320  
C     3.8636370   -0.6897160    0.0209510  
C     3.7197110   -1.9869010    0.4301170  
C     4.9438930   -2.6742670    0.1154400  
C     5.8329220   -1.6687490   -0.5173190  
N     5.1421870   -0.4594870   -0.4975150  
C     7.0666710   -1.9333970   -1.0053290  
C     7.5842610   -3.2976040   -0.8769890  
O     8.6869480   -3.6246340   -1.2857400  
C     6.6782510   -4.3710130   -0.1707640  
O     7.1045100   -5.5106000   -0.0496750  
C     5.3580100   -3.9595500    0.2979580  
H     2.8662920   -2.3957030    0.9504420  
H     7.7002570   -1.1858200   -1.4728980  
H     4.7335590   -4.7129970    0.7681210  
H     5.3290400    0.2879430   -1.1519210  
