64


C     1.8273920   -0.1306300   -0.9384450  
C     0.8995590    0.6619530   -0.3088450  
C     1.6360840    1.7731080    0.2745700  
C     3.0041200    1.5997430   -0.0395380  
N     3.0951930    0.4281660   -0.7861240  
C     4.0080570    2.4754460    0.3807180  
C     3.6167050    3.5626510    1.1485250  
O     4.5481300    4.4528380    1.5853410  
C     2.2499150    3.7538420    1.4893740  
O     2.0239620    4.8725490    2.2628930  
C     1.2646270    2.8798470    1.0681370  
H     5.0554550    2.3290890    0.1416250  
H     4.0862850    5.1168500    2.1264490  
H     1.0912130    4.9090390    2.5226400  
H     0.2272040    3.0392010    1.3504370  
H     1.7034560   -1.0438840   -1.5013750  
C    -1.5316950   -2.9794910    0.7113590  
C    -0.5030910   -2.0987150    0.4955400  
C    -1.0937360   -0.8482880    0.1112050  
C    -2.5025160   -1.0351680    0.1241340  
N    -2.7339120   -2.3482090    0.4745140  
C    -3.4385310   -0.0265530   -0.2035290  
C    -2.8648620    1.1902060   -0.5685750  
O    -3.6763580    2.2431580   -0.9576570  
C    -1.4687840    1.4048940   -0.5888270  
O    -1.1162770    2.6820760   -0.9947720  
C    -0.5527980    0.4128620   -0.2486970  
H     0.5501590   -2.3130620    0.6044380  
H    -3.6509600   -2.7352560    0.6405930  
H    -3.0815760    2.9766840   -1.2004150  
H    -0.1526180    2.7258350   -1.1087580  
H    -1.5076270   -4.0166490    1.0149630  
C    -6.1839740   -1.8375370    2.8744530  
C    -5.1018990   -1.2995050    2.2264800  
C    -5.5425260   -0.9005400    0.9136420  
C    -6.9248250   -1.2188890    0.8362770  
N    -7.2824220   -1.7982880    2.0371850  
C    -7.7151180   -0.9348070   -0.2835720  
C    -7.0911220   -0.2912820   -1.3386210  
O    -7.7959500    0.0416610   -2.4553100  
C    -5.7078360    0.0359710   -1.2935560  
O    -5.2443530    0.6435580   -2.4427400  
C    -4.9021390   -0.2788910   -0.1975170  
H    -4.1139410   -1.1751680    2.6457270  
H    -8.2123490   -2.1019440    2.2792840  
H    -8.7723810   -1.1733410   -0.3387220  
H    -7.1571060    0.4984560   -3.0357570  
H    -4.6761120    1.3963870   -2.1692170  
H    -6.2676670   -2.2424640    3.8731610  
C     4.8041360    0.1458110   -2.5267310  
C     5.9228590   -0.5912430   -2.7210950  
C     6.1314420   -1.3979460   -1.5322830  
C     5.0249730   -1.0717110   -0.6020320  
N     4.2539190   -0.1165640   -1.2626170  
C     4.8462480   -1.6218530    0.6218980  
C     5.8205780   -2.6163040    1.0727490  
O     5.7482050   -3.1743450    2.1555990  
C     7.0124190   -2.9766840    0.1102300  
O     7.8363780   -3.8010190    0.4717910  
C     7.0836890   -2.3049150   -1.1922240  
H     6.5503420   -0.5820430   -3.6005850  
H     4.0240390   -1.3596970    1.2791050  
H     7.9084350   -2.5646780   -1.8489820  
H     4.3123190    0.8648100   -3.1677190  
