62


C     1.3554200    0.0751570    0.6134410  
C     2.4164390    0.6114000   -0.0742200  
C     2.9008760   -0.3929720   -0.9853880  
C     2.0745960   -1.5280990   -0.8022810  
N     1.1284960   -1.2216000    0.1766880  
C     2.2387670   -2.7055000   -1.5492910  
C     3.2670890   -2.7327370   -2.4803670  
O     3.4719320   -3.8508330   -3.2257480  
C     4.1086320   -1.6011070   -2.6680400  
O     5.0761680   -1.7876080   -3.6288740  
C     3.9325010   -0.4376100   -1.9428960  
H     1.5839860   -3.5641140   -1.4477440  
H     4.2314270   -3.6796450   -3.8098940  
H     5.6588330   -1.0142900   -3.6688400  
H     4.5793970    0.4203500   -2.1060650  
H     0.7526650    0.4996880    1.4027360  
C    -3.3073890   -0.9029430    0.3629440  
C    -1.9678770   -0.6783310    0.0966140  
C    -1.2341700   -1.7662370    0.6504820  
C    -2.1742970   -2.6499630    1.2478050  
N    -3.4234450   -2.0835200    1.0985380  
C    -1.8077990   -3.8610280    1.8439700  
C    -0.4587990   -4.1785730    1.8572120  
O    -0.0427060   -5.3388940    2.4229500  
C     0.5143760   -3.2953360    1.3043630  
O     1.8052600   -3.7345840    1.4481590  
C     0.1417150   -2.0977520    0.7075100  
H    -1.5672250    0.1908910   -0.4046620  
H    -4.2886710   -2.5976830    1.1860210  
H    -2.5251950   -4.5454430    2.2836100  
H     0.9252350   -5.3844820    2.3232110  
H     2.4056930   -3.2270440    0.8757710  
C    -4.4610220   -0.1106680    0.0353990  
C    -4.6408920    0.8136840   -0.9608350  
C    -5.9773390    1.3331920   -0.8567430  
C    -6.5960440    0.6420780    0.2998780  
N    -5.6565830   -0.2759730    0.7659600  
C    -7.8392230    0.8992790    0.7692750  
C    -8.6518310    1.8988150    0.0730460  
O    -9.7838150    2.1900570    0.4254270  
C    -8.0349990    2.6086610   -1.1866740  
O    -8.7082580    3.4364140   -1.7838690  
C    -6.6736160    2.2553160   -1.5803750  
H    -3.9210990    1.0576480   -1.7291130  
H    -8.2745020    0.3915930    1.6248620  
H    -6.2497260    2.7653350   -2.4400770  
H    -5.6347150   -0.5403160    1.7425710  
C     2.1754740    3.0973310   -0.1466520  
C     2.9157560    4.2082900    0.0917410  
C     4.2338890    3.7669680    0.4946610  
C     4.1930940    2.2828530    0.4789260  
N     2.9099420    1.9256260    0.0738120  
C     5.2377910    1.4841860    0.8167790  
C     6.4974630    2.1156010    1.2014540  
O     7.4939740    1.4783350    1.5081010  
C     6.5672270    3.6871000    1.2134990  
O     7.6146800    4.2303120    1.5281340  
C     5.3639460    4.4368580    0.8441200  
H     2.5867270    5.2324310   -0.0084510  
H     5.1829300    0.4012120    0.8125980  
H     5.4196730    5.5210840    0.8656430  
H     1.1492890    3.0079800   -0.4775320  
