60


C     1.8496980   -0.6401790   -1.6435770  
C     1.0615270    0.4521500   -1.4244260  
C     1.5786540    1.1420330   -0.2727200  
C     2.7085070    0.4060910    0.1661480  
N     2.8474540   -0.7094630   -0.6729460  
C     3.5462450    0.8524860    1.1906090  
C     3.2252550    2.0633600    1.7892640  
O     4.0058330    2.5508980    2.7889550  
C     2.0969540    2.8182020    1.3829950  
O     1.9189500    3.9711890    2.1048400  
C     1.2307380    2.3667410    0.3748400  
H     0.2164940    0.7403990   -2.0317860  
H     4.4339900    0.3189810    1.5065250  
H     3.6265530    3.4219350    3.0169950  
H     1.6683430    4.6770480    1.4625100  
H     1.7983000   -1.3914910   -2.4147610  
C    -2.9711560    1.0426110   -0.2236630  
C    -1.6404150    1.1411250    0.0887990  
C    -1.2135060    2.4854790   -0.1826450  
C    -2.4091910    3.1961860   -0.6885010  
N    -3.4610580    2.2901770   -0.6450040  
C    -2.4255980    4.4809700   -1.1220860  
C    -1.1919800    5.2392040   -1.0073250  
O    -1.0613420    6.3895810   -1.3919410  
C     0.0330510    4.5542520   -0.2954870  
O     0.9648610    5.2944080    0.0129170  
C     0.0128130    3.1038820   -0.0208130  
H    -1.0356840    0.3599850    0.5219380  
H    -3.2987020    4.9663230   -1.5457120  
H    -4.2646760    2.3751350   -1.2529580  
C    -3.8548790   -0.0880680   -0.1052360  
C    -3.5566670   -1.4249110   -0.1075390  
C    -4.7907660   -2.1544570    0.0275740  
C    -5.8640220   -1.1355350    0.1182790  
N    -5.2475230    0.1038130   -0.0350150  
C    -7.1730640   -1.4195240    0.3150650  
C    -7.5720910   -2.8250050    0.4122450  
O    -8.7282370   -3.1738770    0.5863540  
C    -6.4565700   -3.9237350    0.2728890  
O    -6.7731120   -5.1011120    0.3395150  
C    -5.0719350   -3.4858370    0.0799630  
H    -2.5732130   -1.8504280   -0.2478040  
H    -7.9468660   -0.6617130    0.3905750  
H    -4.3060270   -4.2515570    0.0041240  
H    -5.6442670    0.9434500    0.3663550  
C     4.4113170   -3.1661190    2.6390300  
C     3.6702370   -2.3053760    1.8933690  
C     4.1921850   -2.3472490    0.5440410  
C     5.3053970   -3.3251300    0.5613660  
N     5.3966310   -3.7681680    1.8659170  
C     6.0454850   -3.7001840   -0.5159210  
C     5.7262940   -3.1084930   -1.8012440  
O     6.3021810   -3.3845750   -2.8423030  
C     4.5525920   -2.0590700   -1.8681040  
O     4.2628900   -1.5789640   -2.9490690  
C     3.8407440   -1.7011250   -0.6133380  
H     2.8496100   -1.7001580    2.2445540  
H     6.8523580   -4.4239280   -0.4635190  
H     4.3222290   -3.4145900    3.6881520  
H     6.0417210   -4.4729260    2.1868970  
