58


C    -0.7020140    1.5920620    0.1478490  
C     0.5832620    1.0610410    0.1237400  
C     0.4796530   -0.3625110    0.1259590  
C    -0.9646160   -0.6628800    0.1327700  
N    -1.6151190    0.5529370    0.1739190  
C    -1.5208230   -1.9128890    0.1000910  
C    -0.5722070   -3.0426400   -0.0086230  
O    -0.9363210   -4.1800180   -0.2440480  
C     0.9605970   -2.7653890    0.1394700  
O     1.6879760   -3.7184810    0.3434310  
C     1.4446930   -1.3625410    0.0961950  
H     1.5016680    1.6091090   -0.0142950  
H    -2.6108150    0.7167410    0.0817900  
C     1.3839140    5.3333360    1.1877750  
C     0.4280430    6.2253360    0.8340500  
C    -0.7123410    5.4672090    0.3612790  
C    -0.3282250    4.0402250    0.4526920  
N     0.9530170    4.0261860    0.9348190  
C    -1.1417370    2.9719270    0.1208650  
C    -2.5280210    3.3172510   -0.2446740  
O    -3.4153410    2.4861460   -0.3970280  
C    -2.9127800    4.8257090   -0.4533110  
O    -4.0187780    5.0822930   -0.8979570  
C    -1.9360040    5.8496520   -0.0924900  
H     0.4936260    7.3014750    0.8980600  
H    -2.2288880    6.8897510   -0.1946050  
H     2.3705260    5.4998610    1.5983140  
H     1.4114710    3.1915380    1.2707320  
C    -4.9555750   -0.6110300   -2.4503860  
C    -3.7159970   -0.8069610   -1.9261910  
C    -3.8651540   -1.6672100   -0.7724020  
C    -5.3138140   -1.9755690   -0.6790260  
N    -5.9163310   -1.2922790   -1.7187910  
C    -5.8797410   -2.7924790    0.2454680  
C    -5.0110750   -3.4188720    1.2332550  
O    -5.4153830   -4.1964990    2.0830570  
C    -3.4834920   -3.0553050    1.2111270  
O    -2.7791420   -3.4458540    2.1235250  
C    -2.9627100   -2.1877420    0.1200990  
H    -2.7931740   -0.4032850   -2.3133690  
H    -6.9413470   -3.0176650    0.2746200  
H    -5.2483410   -0.0268190   -3.3125860  
H    -6.9018180   -1.3170730   -1.9287390  
C     2.8627820   -1.0956170    0.0801190  
C     3.5541070   -0.0542840    0.6608370  
C     4.9387660   -0.2623620    0.3310440  
C     4.9283950   -1.5015780   -0.5134800  
N     3.7313450   -1.9867820   -0.6508980  
C     6.1424660   -2.0341880   -1.0789490  
C     7.3007740   -1.3934150   -0.7967000  
O     8.5057980   -1.7774900   -1.2425920  
C     7.3444420   -0.1542980    0.0685690  
O     8.4505200    0.3570820    0.2597530  
C     6.0987760    0.3804010    0.6182920  
H     3.1624600    0.7024310    1.3254430  
H     6.1086150   -2.9271680   -1.6928840  
H     9.1361210   -1.1205000   -0.8689930  
H     6.1688160    1.2774250    1.2261800  
