62


C     0.6891780   -1.2037810   -0.3369560  
C     0.8709260   -2.5707040   -0.1576050  
C     2.2665480   -2.8263150   -0.2216990  
C     2.9077300   -1.5683360   -0.4423850  
N     1.9345740   -0.6140480   -0.5117400  
C     4.3068060   -1.4533850   -0.5606420  
C     5.0563900   -2.6244410   -0.4692060  
O     6.4094520   -2.5694520   -0.5851680  
C     4.4202410   -3.8828520   -0.2687540  
O     5.3120260   -4.9333680   -0.2142800  
C     3.0530350   -3.9972730   -0.1393670  
H     0.0838930   -3.2962520   -0.0058230  
H     2.0382970    0.3845220   -0.6337970  
H     6.7458940   -3.4761450   -0.4693250  
H     4.8443870   -5.7506980    0.0134730  
H     2.5908010   -4.9697820    0.0126610  
C    -0.4780630   -0.3754620   -0.3696650  
C    -1.8063510   -0.6907190   -0.2155410  
C    -2.5184150    0.5509120   -0.3613120  
C    -1.4452850    1.5648510   -0.6112830  
N    -0.2599730    1.0213760   -0.6124080  
C    -1.7442150    2.9532030   -0.8357880  
C    -3.0466160    3.3151120   -0.8064990  
O    -3.4849890    4.5651020   -0.9942260  
C    -4.1604160    2.3252850   -0.5173530  
O    -5.2877580    2.8028950   -0.4123880  
C    -3.8458960    0.8889330   -0.3297910  
H    -2.2396280   -1.6668360   -0.0525080  
H    -0.9469620    3.6647090   -1.0187050  
H    -4.4606480    4.5118480   -0.8667770  
C    -4.5131300   -1.8513170    3.0886930  
C    -5.7224890   -2.3542390    2.6866910  
C    -6.0362420   -1.7401510    1.4273970  
C    -4.9639850   -0.8648000    1.1127390  
N    -4.0558040   -0.9478040    2.1467250  
C    -4.9426440   -0.0533350   -0.0455760  
C    -6.0378210   -0.1796560   -0.9060340  
O    -6.0581440    0.5127740   -2.0783530  
C    -7.1099190   -1.0575900   -0.6073110  
O    -8.1032970   -1.0642790   -1.5698280  
C    -7.1261530   -1.8277430    0.5397640  
H    -6.3245100   -3.0727970    3.2256540  
H    -3.1675930   -0.4710830    2.1732180  
H    -6.9203550    0.3444420   -2.4968340  
H    -8.8383400   -1.6197800   -1.2715680  
H    -7.9641180   -2.4907070    0.7463980  
H    -3.9298870   -2.0576880    3.9749590  
C     5.7707130    0.1024290   -1.8650910  
C     6.2566110    1.3647720   -1.7828390  
C     5.7429350    1.9472440   -0.5621970  
C     4.9044040    0.8988880    0.0726310  
N     4.9401900   -0.2034880   -0.7782860  
C     4.2653000    1.0473830    1.2614970  
C     4.3939680    2.3223750    1.9645580  
O     3.8649170    2.5412680    3.0436790  
C     5.2566160    3.4551440    1.2973610  
O     5.3609220    4.5316560    1.8648100  
C     5.9082530    3.1650200    0.0184010  
H     6.9098440    1.8473950   -2.4952450  
H     3.6779020    0.2629540    1.7256950  
H     6.5184090    3.9463970   -0.4246450  
H     5.9325770   -0.6522300   -2.6218640  
