58


C     3.5158760   -0.3650520   -0.0892450  
C     4.0542420    0.9003070   -0.2893610  
C     5.4766800    0.8012490   -0.1860230  
C     5.7722880   -0.6261790    0.0897480  
N     4.5543610   -1.2645940    0.1432820  
C     7.0228080   -1.1298960    0.2465250  
C     8.1597430   -0.2180330    0.1415420  
O     9.3186470   -0.5815580    0.2690850  
C     7.8704280    1.2994800   -0.1501670  
O     8.8092880    2.0772540   -0.2405600  
C     6.4790710    1.7228610   -0.3021300  
H     3.5099150    1.7912630   -0.5587280  
H     7.2219830   -2.1782700    0.4449590  
H     6.2902780    2.7728810   -0.5048710  
H     4.3788100   -2.2601970    0.2139930  
C    -0.4109890    1.8009700    0.2633410  
C     0.9320240    1.4396760    0.2889430  
C     1.0475540    0.0651310   -0.0353360  
C    -0.3295890   -0.4067760   -0.2462550  
N    -1.1654300    0.6920930   -0.1357210  
C    -0.6983190   -1.6937040   -0.5114780  
C     0.3710120   -2.6985580   -0.5897270  
O     0.1745900   -3.8590690   -0.8962370  
C     1.8370010   -2.2368960   -0.2746170  
O     2.6680190   -3.1325540   -0.1584440  
C     2.1411100   -0.8042180   -0.1404950  
H     1.7390020    2.1133910    0.5267810  
H    -2.1394970    0.5828130    0.1127080  
C    -0.4626300    4.1182590    1.2447650  
C    -1.0221010    3.0513700    0.5645400  
C    -2.3861260    3.5132540    0.2396760  
C    -2.4468770    4.8830270    0.8271640  
N    -1.3072630    5.2095260    1.4041070  
C    -3.6122180    5.7019050    0.7285430  
C    -4.6841340    5.2007840    0.0577370  
O    -5.8343450    5.8584290   -0.1075080  
C    -4.6507490    3.8361740   -0.5745110  
O    -5.6513780    3.4535460   -1.1754080  
C    -3.4282770    3.0129160   -0.4544400  
H    -3.6211040    6.6906240    1.1731120  
H    -6.4169630    5.2650170   -0.6314160  
H    -3.4468490    2.0512370   -0.9573540  
H     0.5344120    4.1621220    1.6682860  
C    -2.7700130   -1.4974240   -1.8834940  
C    -4.0027760   -2.0513400   -1.9635640  
C    -4.1125370   -3.0270380   -0.8975080  
C    -2.8186970   -2.9999900   -0.1749990  
N    -2.0307730   -2.0336970   -0.8135500  
C    -2.5366580   -3.7549820    0.9129510  
C    -3.5650580   -4.6742080    1.4052140  
O    -3.4029890   -5.3818730    2.3857920  
C    -4.9367530   -4.7335900    0.6414510  
O    -5.8045390   -5.4949830    1.0361000  
C    -5.1217630   -3.8514170   -0.5156070  
H    -4.7589230   -1.8248390   -2.7016330  
H    -1.5858820   -3.7300220    1.4328900  
H    -6.0780910   -3.8851280   -1.0286110  
H    -2.3031390   -0.7561200   -2.5185890  
