58


C     4.7218990    0.0847680   -0.0037640  
C     3.8283950    1.1329260    0.0346970  
C     4.5814320    2.3464820    0.1906310  
C     6.0102140    1.9496080    0.2445150  
N     6.0273950    0.5798900    0.1277210  
C     7.0427540    2.8213330    0.3828470  
C     6.7413800    4.2446390    0.4892930  
O     7.6018500    5.1029640    0.6166770  
C     5.2329060    4.6889490    0.4372060  
O     4.9602740    5.8765040    0.5254620  
C     4.2074090    3.6538310    0.2834580  
H     2.7579160    1.0378160   -0.0488310  
H     8.0830500    2.5130910    0.4192290  
H     3.1695720    3.9708670    0.2474980  
H     6.8508820   -0.0015720    0.0890230  
C     0.9143120   -2.1273610   -0.1994020  
C     1.3652480   -3.4044230   -0.3843020  
C     2.8081450   -3.3132640   -0.4056300  
C     3.0914380   -1.8571700   -0.2117480  
N     1.9934060   -1.1795000   -0.0914580  
C     4.4625670   -1.3343870   -0.1616750  
C     5.4488910   -2.2809120   -0.2872220  
O     6.7676090   -2.0045210   -0.2636200  
C     5.1817140   -3.7396420   -0.4825370  
O     6.1635150   -4.4805120   -0.5871250  
C     3.7988410   -4.2213670   -0.5386650  
H     0.7779330   -4.2981920   -0.5381330  
H     7.2110490   -2.8791190   -0.3814240  
H     3.6430880   -5.2872030   -0.6734570  
C    -2.7965530   -3.8083150    1.5692770  
C    -1.5027500   -3.6451610    1.1971430  
C    -1.4673390   -2.3785780    0.4944620  
C    -2.8867190   -1.8823580    0.5496610  
N    -3.6455400   -2.7379940    1.1747990  
C    -3.3066670   -0.6058360   -0.0226170  
C    -2.2891730    0.1278230   -0.6004850  
O    -2.4328570    1.3154680   -1.1743210  
C    -0.8553660   -0.3593900   -0.6787990  
O    -0.0713290    0.3705810   -1.2774490  
C    -0.4628160   -1.6701850   -0.0950210  
H    -0.6655820   -4.2946700    1.4029220  
H    -1.5336480    1.5513860   -1.5066700  
H    -3.2306180   -4.6322070    2.1233680  
C    -4.6921190   -0.1757730    0.0354840  
C    -5.7589280   -0.8263750    0.6024750  
C    -6.9021000    0.0292680    0.3817830  
C    -6.3478080    1.2046010   -0.3611180  
N    -5.0719390    1.0865240   -0.5619660  
C    -7.1889640    2.3008850   -0.7744850  
C    -8.5049400    2.2328180   -0.4665250  
O    -9.4059960    3.1743980   -0.7844980  
C    -9.0925610    1.0591410    0.2823100  
O   -10.3011170    1.0881790    0.5152780  
C    -8.2166620   -0.0465550    0.6929440  
H    -5.7402170   -1.7779340    1.1075930  
H    -6.7630680    3.1411360   -1.3113370  
H   -10.2612420    2.8423700   -0.4300390  
H    -8.6744460   -0.8728220    1.2282090  
