60


C     1.0919220   -0.5559940   -0.9583720  
C     0.5847510    0.6552210   -0.5174710  
C     1.7165700    1.3863220    0.0213790  
C     2.8511330    0.5500380   -0.1002740  
N     2.4380300   -0.6248300   -0.6949330  
C     4.1540170    0.9257930    0.3152630  
C     4.2676460    2.2281220    0.8218230  
O     5.4820460    2.7170220    1.2097940  
C     3.1364450    3.0691000    0.9622640  
O     3.4380560    4.3004730    1.5040780  
C     1.8712440    2.6651340    0.5894860  
H     3.0706000   -1.3162160   -1.0713100  
H     5.3401450    3.6339060    1.5103140  
H     2.6811300    4.8985050    1.4102050  
H     1.0283250    3.3403870    0.6800830  
H     0.5987230   -1.3515330   -1.4994710  
C    -3.0319750   -1.6460910    0.2784310  
C    -3.9991260   -0.7349160   -0.0654940  
C    -3.2977840    0.4794360   -0.4764470  
C    -1.8560620    0.1841590   -0.3464450  
N    -1.7719950   -1.1350110    0.0833450  
C    -0.8244750    1.0484340   -0.5997000  
C    -1.2301950    2.4119270   -1.0145360  
O    -0.4316770    3.3105930   -1.2193120  
C    -2.7601970    2.7313260   -1.2135360  
O    -3.0678420    3.8522670   -1.5856410  
C    -3.7369370    1.6875310   -0.9268360  
H    -4.7832700    1.9173050   -1.0952970  
H    -3.1624240   -2.6456990    0.6715300  
H    -0.9131830   -1.5496650    0.4172670  
C    -5.4256550   -0.9710410   -0.0041550  
C    -6.1204990   -2.1455480   -0.1326850  
C    -7.5190130   -1.8650200    0.0613790  
C    -7.6107080   -0.4074060    0.3217900  
N    -6.3191100    0.0891290    0.2156590  
C    -8.7606540    0.2503610    0.6051070  
C   -10.0082410   -0.5136890    0.6302200  
O   -11.0907330   -0.0048420    0.8748130  
C    -9.9410770   -2.0537550    0.3181220  
O   -10.9770160   -2.7021650    0.3267410  
C    -8.6339140   -2.6474480    0.0423280  
H    -5.6966590   -3.1036970   -0.3981700  
H    -8.8086300    1.3170600    0.8022250  
H    -8.5973570   -3.7145880   -0.1547760  
H    -6.0350500    0.9689730    0.6214830  
C     5.2874080    0.0135460    0.2112450  
C     5.3009150   -1.3643580    0.1866290  
C     6.6686240   -1.7980240    0.0752930  
C     7.4854940   -0.5597700    0.0316710  
N     6.5941580    0.4901490    0.0964860  
C     8.8395540   -0.5384050   -0.0563320  
C     9.5516870   -1.8122690   -0.1149350  
O    10.7683410   -1.8911540   -0.1934360  
C     8.7052640   -3.1381550   -0.0759130  
O     9.2868420   -4.2120050   -0.1283610  
C     7.2505520   -3.0284820    0.0214180  
H     4.4527790   -2.0152890    0.3386140  
H     9.4216390    0.3774970   -0.0860790  
H     6.6778780   -3.9507470    0.0511050  
H     6.8333540    1.4597710    0.2446730  
