60


C     1.7255500   -0.3115990   -0.0999230  
C     3.0781320   -0.5314500   -0.1049540  
C     3.7082160    0.7857860   -0.1598040  
C     2.6792580    1.7544370   -0.1424290  
N     1.4465520    1.0540840   -0.1040350  
C     2.9364480    3.1238230   -0.2170380  
C     4.2636400    3.5258120   -0.3265460  
O     4.5559540    4.8529830   -0.3993850  
C     5.3038000    2.5708010   -0.3850530  
O     6.5639110    3.1103080   -0.5238880  
C     5.0399150    1.2102280   -0.3043170  
H     2.1400730    3.8537470   -0.2029330  
H     5.5170450    4.9361420   -0.5251040  
H     7.2022890    2.4102660   -0.7269290  
H     5.8521440    0.4937180   -0.3901390  
H     0.9276740   -1.0329220   -0.0869260  
C     0.1751540    1.5639270   -0.0781570  
C    -1.0178500    0.8450530   -0.1127250  
C    -2.0381850    1.8199740   -0.0563800  
C    -1.2953380    3.1282880    0.0232880  
N     0.0038050    2.9549020    0.0032440  
C    -1.9641640    4.3833760    0.1277650  
C    -3.3199530    4.3507810    0.1580260  
O    -4.0880420    5.4309760    0.2465350  
C    -4.1265410    3.0551490    0.0573870  
O    -5.3441330    3.2193670    0.0056610  
C    -3.4269530    1.7650260   -0.0242310  
H    -1.1426020   -0.2240460   -0.1551130  
H    -1.4019830    5.3087260    0.1816140  
H    -5.0130610    5.0798440    0.2076860  
C    -4.1801510    0.5313550   -0.0825920  
C    -3.8337260   -0.6463470   -0.7020670  
C    -4.9114640   -1.5646550   -0.4368980  
C    -5.8668830   -0.7731960    0.4047640  
N    -5.4484780    0.4403150    0.6028910  
C    -7.0871890   -1.3550830    0.9055880  
C    -7.3539640   -2.6384360    0.5696060  
O    -8.4503720   -3.3093670    0.9525300  
C    -6.4167000   -3.4557460   -0.2917840  
O    -6.7538520   -4.6156330   -0.5379280  
C    -5.1753180   -2.8502160   -0.7780050  
H    -2.9729430   -0.8352440   -1.3267160  
H    -7.7589230   -0.7650380    1.5189560  
H    -8.3527410   -4.2031670    0.5518560  
H    -4.5216410   -3.4695070   -1.3845830  
C     6.6292620   -2.0340470    2.0493160  
C     6.6580430   -3.3047560    1.5715330  
C     5.5373880   -3.4502440    0.6670950  
C     4.8549820   -2.1353430    0.6390590  
N     5.5740030   -1.3201150    1.4926580  
C     3.7181230   -1.8422350   -0.0732330  
C     3.0913410   -2.9909050   -0.7699360  
O     1.9877850   -2.9321300   -1.2867350  
C     3.8642660   -4.3605410   -0.8416640  
O     3.4013900   -5.2463370   -1.5432330  
C     5.0805210   -4.5112870   -0.0540160  
H     7.3724300   -4.0730710    1.8285710  
H     5.5764880   -5.4767650   -0.0595800  
H     7.2871010   -1.5510660    2.7598790  
H     5.2983850   -0.3836300    1.7476550  
