60


C    -1.5433740    5.5677030    1.7226900  
C    -0.5760560    6.4870010    1.4750780  
C     0.4700250    5.8190990    0.7286870  
C     0.0199850    4.4234620    0.5467380  
N    -1.2205900    4.3427370    1.1430950  
C     0.7380710    3.4220600   -0.0666100  
C     2.0595470    3.8167740   -0.6193250  
O     2.7630040    3.0753240   -1.2793680  
C     2.5624080    5.2937150   -0.3996330  
O     3.6792010    5.5907900   -0.7934300  
C     1.6758190    6.2463040    0.2626330  
H    -0.5778460    7.5228710    1.7814750  
H     2.0294520    7.2645800    0.3921230  
H    -2.4736560    5.6750100    2.2646170  
H    -1.6745490    3.4626560    1.3444570  
C     0.2448220    2.0640540   -0.1917860  
C    -1.0533080    1.6201660   -0.3163260  
C    -0.9817500    0.1815010   -0.3571350  
C     0.4646620   -0.1146630   -0.2160150  
N     1.1673320    0.9784660   -0.1278600  
C     1.0039140   -1.4785320   -0.1588970  
C     0.0515130   -2.4719130   -0.1995650  
O     0.3029970   -3.7809340   -0.1596300  
C    -1.4241700   -2.1880260   -0.3336600  
O    -2.1614890   -3.1782350   -0.3485170  
C    -1.9349980   -0.8010240   -0.4683500  
H    -1.9478780    2.2153930   -0.4283250  
H    -0.5849210   -4.2054360   -0.2228890  
C     2.4315190   -1.7092160   -0.0752850  
C     3.4470780   -0.8024750   -0.2561270  
C     4.6709210   -1.5473320   -0.0804610  
C     4.2184910   -2.9420860    0.2232200  
N     2.9254270   -3.0384670    0.2251430  
C     5.1637750   -4.0027590    0.4756960  
C     6.4799850   -3.6950160    0.4213280  
O     7.4739500   -4.5732410    0.6301330  
C     6.9654150   -2.2970610    0.1120530  
O     8.1851370   -2.1220320    0.0876230  
C     5.9871960   -1.2331300   -0.1367190  
H     3.3481720    0.2475830   -0.4828000  
H     4.8118700   -5.0046010    0.6954820  
H     8.2996950   -4.0489920    0.5211160  
H     6.3697580   -0.2402840   -0.3525680  
C    -3.7446480    0.4613010   -1.6284430  
C    -3.3351010   -0.5508940   -0.7659170  
C    -4.5529960   -1.1979550   -0.3017640  
C    -5.6373000   -0.5157900   -0.9058530  
N    -5.1063540    0.4810870   -1.7113250  
C    -6.9783600   -0.8329270   -0.6663710  
C    -7.2378590   -1.8716300    0.2136860  
O    -8.5225970   -2.2330610    0.4820180  
C    -6.1675890   -2.5643360    0.8392420  
O    -6.5805810   -3.5705540    1.6884490  
C    -4.8456730   -2.2416030    0.5982650  
H    -5.6401790    1.0706400   -2.3321100  
H    -7.8018440   -0.3053620   -1.1364040  
H    -8.4883080   -2.9853200    1.0985320  
H    -5.8098150   -4.0639420    2.0067150  
H    -4.0498260   -2.8076310    1.0694660  
H    -3.1396120    1.1229860   -2.2309130  
