60


C     2.0212660   -0.4483150   -0.9072550  
C     1.1000440    0.5187440   -0.5270900  
C     1.8821580    1.6878800   -0.1458810  
C     3.2436370    1.3537610   -0.3330280  
N     3.3003230    0.0390730   -0.8114930  
C     4.2996540    2.2263060   -0.0599300  
C     3.9771740    3.4766380    0.4475160  
O     4.9641490    4.3693450    0.7337740  
C     2.6220560    3.8260940    0.6721790  
O     2.4529980    5.0947910    1.1879450  
C     1.5837530    2.9565830    0.3890910  
H     5.3382140    1.9590870   -0.2177040  
H     4.5381310    5.1702030    1.0858060  
H     1.5086370    5.2715140    1.3118980  
H     0.5570800    3.2628070    0.5511680  
H     1.8457050   -1.4660760   -1.2135220  
C    -1.1669790   -3.1920600   -0.0787910  
C    -2.4497300   -2.7558440   -0.1063750  
C    -2.3606200   -1.3144250   -0.2704930  
C    -0.8932860   -1.0431260   -0.3393990  
N    -0.2101950   -2.1450810   -0.2009490  
C    -0.3386320    0.3037470   -0.5207850  
C    -1.2798700    1.2856740   -0.7133080  
O    -0.9589720    2.5684910   -1.0169850  
C    -2.7292830    1.0472080   -0.6738110  
O    -3.4709220    2.0084440   -0.9485670  
C    -3.2782900   -0.3058130   -0.3363200  
H    -3.3487130   -3.3516380   -0.0666520  
H    -1.8223740    3.0167600   -1.1510750  
H    -0.8100660   -4.2106800    0.0134160  
C    -4.7050170   -0.4670840   -0.1071720  
C    -5.3556170   -1.4610090    0.5932760  
C    -6.7609840   -1.1611520    0.5837210  
C    -6.9068970    0.1056880   -0.1761430  
N    -5.6385380    0.4593640   -0.5776930  
C    -8.0915550    0.7333400   -0.3923100  
C    -9.3069240    0.1307150    0.1458060  
O   -10.4166690    0.6209690    0.0020030  
C    -9.1755710   -1.2166080    0.9476570  
O   -10.1811940   -1.7384340    1.4036870  
C    -7.8405530   -1.7968650    1.1195740  
H    -4.8890680   -2.2836360    1.1121650  
H    -8.1811790    1.6610500   -0.9485690  
H    -7.7605150   -2.7246660    1.6780460  
H    -5.3470480    1.3445840   -0.9718670  
C     4.8053560   -1.1311160   -2.3795300  
C     4.4671490   -0.6773240   -1.1404490  
C     5.4997460   -1.1178220   -0.2125230  
C     6.4767670   -1.8710550   -1.0345570  
N     5.9881500   -1.8502700   -2.3307580  
C     7.6040780   -2.4459710   -0.5471150  
C     7.8760720   -2.3331380    0.8851110  
O     8.8638420   -2.8178750    1.4133970  
C     6.8400230   -1.5544600    1.7770120  
O     7.0431970   -1.4627110    2.9760520  
C     5.6622750   -0.9656990    1.1263800  
H     8.3127920   -2.9904710   -1.1635120  
H     4.9571610   -0.4208240    1.7455710  
H     4.2772830   -0.9966920   -3.3139910  
H     6.4459480   -2.2680470   -3.1257140  
