60


C    -1.3800640   -0.4116500   -1.3980320  
C    -2.1810920   -0.8542680   -0.3586040  
C    -1.3153190   -1.6344010    0.5088760  
C    -0.0237690   -1.6218330   -0.0689890  
N    -0.0907750   -0.8508760   -1.2168860  
C     1.0850010   -2.3150220    0.4638860  
C     0.8439910   -3.0487310    1.6271010  
O     1.8682830   -3.6983180    2.2376530  
C    -0.4473400   -3.0795180    2.2151370  
O    -0.5088540   -3.8380940    3.3664080  
C    -1.5169680   -2.3902770    1.6796800  
H     0.6720610   -0.7178300   -1.8630500  
H     1.4949490   -4.1833380    2.9944020  
H    -1.3977720   -3.7771830    3.7470990  
H    -2.4826380   -2.4040780    2.1732800  
H    -1.6321620    0.2345190   -2.2264140  
C     3.7515590    1.0817990   -0.2940160  
C     4.8068350    0.4061690   -0.8581990  
C     4.4664080   -0.9887250   -0.9285620  
C     3.1086610   -1.1055380   -0.3547940  
N     2.6940330    0.1880220   -0.0491130  
C     2.4269830   -2.2680960   -0.1542960  
C     3.0878780   -3.5062640   -0.6342400  
O     2.5428690   -4.5942210   -0.6101260  
C     4.5320900   -3.4024870   -1.2523340  
O     5.0890490   -4.4328760   -1.6032320  
C     5.1435520   -2.0848640   -1.3768860  
H     5.7131320    0.8584390   -1.2354060  
H     6.1430480   -2.0263140   -1.7965980  
H     2.0035530    0.3503840    0.6729500  
C     4.6057980    3.3890260    0.2754210  
C     3.6138550    2.4824740    0.0087860  
C     2.3704800    3.2749590    0.0887170  
C     2.8441550    4.6513830    0.4252220  
N     4.1486750    4.6981510    0.5251580  
C     1.9323120    5.7476170    0.5874270  
C     0.6108570    5.5051530    0.4015170  
O    -0.3469130    6.4336820    0.5160480  
C     0.1047090    4.1383730    0.0222860  
O    -1.1009430    4.0040830   -0.1638950  
C     1.0650240    3.0201250   -0.1218960  
H     2.3084120    6.7321680    0.8417490  
H    -1.1925360    5.9738580    0.3187580  
H     0.6545730    2.0558040   -0.4058220  
H     5.6694040    3.1887720    0.3318440  
C    -5.4638580   -0.6858490   -3.3424640  
C    -4.2810810   -0.8896330   -2.7086510  
C    -4.4650120   -0.5390710   -1.3133460  
C    -5.8786410   -0.1192610   -1.1851410  
N    -6.4192700   -0.2034070   -2.4516110  
C    -6.4887790    0.2560370   -0.0270530  
C    -5.7020230    0.2325270    1.1870110  
O    -6.1418000    0.5133910    2.2936770  
C    -4.1857420   -0.1914460    1.0843980  
O    -3.5314100   -0.1938420    2.1139980  
C    -3.6073360   -0.5580400   -0.2371440  
H    -3.3777320   -1.2751980   -3.1550030  
H    -7.5302530    0.5564710    0.0301800  
H    -5.7271640   -0.8485020   -4.3790460  
H    -7.3885330   -0.0356560   -2.6709240  
