60


C     0.5685370    0.5594750   -0.0915870  
C    -0.0537450   -0.6885420   -0.0206160  
C     0.9646010   -1.6713460    0.0342420  
C     2.2166650   -0.9885130   -0.0002280  
N     1.9491070    0.3560970   -0.0601350  
C     3.4614870   -1.6513970    0.0211060  
C     3.4056200   -3.0472020    0.0803810  
O     4.5531070   -3.7600270    0.1569170  
C     2.1606800   -3.7448820    0.1097940  
O     2.3088710   -5.1147680    0.1763700  
C     0.9537460   -3.0839270    0.0924830  
H    -1.1223900   -0.8382850   -0.0129540  
H     2.6198300    1.0972460   -0.2081440  
H     4.3179240   -4.7039040    0.1104290  
H     1.4443410   -5.5417670    0.0825100  
H     0.0157040   -3.6334150    0.1209120  
C    -3.6400720    1.8298260   -0.1843130  
C    -3.4915870    3.1894400   -0.3029060  
C    -2.0710190    3.4319160   -0.3209160  
C    -1.4608970    2.0739180   -0.2036780  
N    -2.3708550    1.1553840   -0.1228700  
C    -0.0023360    1.8795020   -0.1862370  
C     0.7379110    3.0363870   -0.2727520  
O     2.0979820    3.0486980   -0.2657230  
C     0.1569700    4.3849500   -0.3865170  
O     0.9339730    5.3499110   -0.4610360  
C    -1.3050640    4.5422920   -0.4087260  
H    -4.2683180    3.9389480   -0.3676020  
H     2.3305750    4.0023830   -0.3583100  
H    -1.6964240    5.5516990   -0.4944550  
C    -4.8580310    1.0661930   -0.1190870  
C    -6.1493080    1.5342520   -0.1782810  
C    -6.9930770    0.3726510   -0.0682400  
C    -6.0281200   -0.7696150    0.0563310  
N    -4.7935790   -0.3666450    0.0265220  
C    -6.4878930   -2.1293100    0.1907010  
C    -7.8240950   -2.3437420    0.2007470  
O    -8.3946890   -3.5509820    0.3188080  
C    -8.8197870   -1.2121290    0.0768230  
O   -10.0143390   -1.5109710    0.0972120  
C    -8.3323240    0.1644290   -0.0591000  
H    -6.4788620    2.5582540   -0.2870500  
H    -5.7718510   -2.9386040    0.2790150  
H    -9.3635080   -3.3817470    0.2924960  
H    -9.0763850    0.9503090   -0.1456000  
C     5.1644910    1.4359950    2.6450630  
C     6.3492900    1.6530050    2.0170670  
C     6.3953600    0.7732790    0.8677190  
C     5.1189740    0.0171140    0.8776340  
N     4.4195980    0.4685850    1.9817430  
C     4.7528760   -0.9339720   -0.0321190  
C     5.7072840   -1.1912810   -1.1329100  
O     5.4607600   -1.9407500   -2.0610150  
C     7.0892810   -0.4366380   -1.1287820  
O     7.9024630   -0.7058410   -1.9996100  
C     7.3389120    0.5575800   -0.0880390  
H     7.1181850    2.3491940    2.3186110  
H     8.2878280    1.0847860   -0.1071750  
H     4.7666110    1.8988870    3.5385780  
H     3.5098110    0.1316670    2.2562160  
