62


C     2.3234320    0.9326590    0.3506450  
C     3.1658910   -0.1556540    0.3896890  
C     2.3659000   -1.2861330    0.8220400  
C     1.0528020   -0.8135810    1.0375910  
N     1.0435620    0.5600410    0.7321530  
C     0.0233680   -1.6361680    1.5078580  
C     0.3213240   -2.9756260    1.7174520  
O    -0.6472610   -3.8162330    2.1679450  
C     1.6248130   -3.4762190    1.4632710  
O     1.7567060   -4.8245950    1.6997290  
C     2.6439950   -2.6490350    1.0251660  
H    -0.9701360   -1.2702090    1.7352460  
H    -0.2469290   -4.6969480    2.2744310  
H     2.6708400   -5.1039370    1.5403980  
H     3.6337000   -3.0521620    0.8312730  
H     2.5236130    1.9608060    0.0886380  
C    -0.0214920    1.4472460    0.8188480  
C    -0.0096980    2.7741860    1.1399910  
C    -1.3567660    3.2627930    0.9873630  
C    -2.1678970    2.1095870    0.5715820  
N    -1.3152670    1.0058550    0.5364350  
C    -3.5066610    2.1381330    0.2632360  
C    -4.1239870    3.4898330    0.3072850  
O    -5.2610490    3.7166900   -0.0841940  
C    -3.2995960    4.7076640    0.8732270  
O    -3.8866390    5.7724010    1.0071060  
C    -1.8977660    4.5047610    1.1712870  
H     0.8390330    3.3391070    1.4967090  
H    -1.3171900    5.3542140    1.5154610  
H    -1.4921690    0.2366860   -0.0999690  
C    -4.2840410    0.9746910   -0.1106300  
C    -4.0141580   -0.3905570    0.0246850  
C    -5.1296750   -1.1042180   -0.4917240  
C    -6.0703600   -0.1328490   -0.9419510  
N    -5.5310460    1.1044270   -0.7040820  
C    -7.3012340   -0.4836950   -1.5116420  
C    -7.5886510   -1.8337370   -1.6254800  
O    -8.7703430   -2.2335980   -2.1693870  
C    -6.6597590   -2.8200410   -1.1778680  
O    -7.1004830   -4.1149350   -1.3647430  
C    -5.4475640   -2.4753720   -0.6192160  
H    -3.1626420   -0.8317770    0.5218130  
H    -5.9657850    2.0118960   -0.8197900  
H    -8.0213550    0.2513370   -1.8548150  
H    -8.7851680   -3.2063540   -2.1511620  
H    -6.4460490   -4.7354420   -1.0112560  
H    -4.7543680   -3.2440850   -0.2836870  
C     4.5702680   -0.1380700    0.0538990  
C     5.5897650   -0.9605280    0.4593910  
C     6.8094830   -0.5074180   -0.1570070  
C     6.4362660    0.6632820   -0.9882120  
N     5.0823280    0.8761480   -0.7746960  
C     7.2981430    1.3458510   -1.7801060  
C     8.7001680    0.9299090   -1.8010680  
O     9.5463060    1.4867250   -2.4830540  
C     9.1277950   -0.2805690   -0.8926170  
O    10.2985280   -0.6316150   -0.8907210  
C     8.0979830   -0.9443240   -0.0948740  
H     5.5079290   -1.7588470    1.1819520  
H     7.0070340    2.1961580   -2.3894620  
H     8.4018460   -1.7881700    0.5172580  
H     4.5021100    1.3728940   -1.4358400  
