60


C     0.9122740   -0.8792900   -1.4993080  
C     0.2830290   -0.0434680   -0.5882640  
C     1.3395320    0.7512370    0.0167810  
C     2.5594500    0.3358920   -0.5673570  
N     2.2616680   -0.6451110   -1.4962060  
C     3.8238570    0.8452650   -0.2045900  
C     3.8233400    1.8071820    0.8061480  
O     4.9975890    2.3705830    1.2072930  
C     2.6115210    2.2307170    1.4099700  
O     2.7898710    3.1940530    2.3835930  
C     1.3836460    1.7243790    1.0333320  
H     2.9485190   -1.1418800   -2.0424830  
H     4.7783960    3.0321330    1.8875310  
H     1.9298490    3.5645240    2.6329310  
H     0.4726590    2.0944230    1.4901960  
H     0.4758190   -1.5834300   -2.1925220  
C    -2.7329190   -3.2910720   -0.4537310  
C    -1.5795970   -2.5753190   -0.4635830  
C    -1.9316620   -1.1731780   -0.3489550  
C    -3.4044070   -1.1335640   -0.2494940  
N    -3.8285750   -2.4423670   -0.3415250  
C    -4.1757860   -0.0050860   -0.1173580  
C    -3.4423740    1.2583400    0.0063380  
O    -3.9740990    2.3193580    0.2878080  
C    -1.8756400    1.2521680   -0.1541510  
O    -1.3087430    2.3308950   -0.1138280  
C    -1.1554950   -0.0332550   -0.3437560  
H    -0.5803350   -2.9783030   -0.5153480  
H    -2.8825490   -4.3609190   -0.5100790  
H    -4.7934850   -2.7287880   -0.2861730  
C    -7.2091400   -2.0733360    2.4361610  
C    -6.0498720   -1.6272530    1.8846450  
C    -6.4024060   -0.7339420    0.7959440  
C    -7.8828650   -0.6922750    0.7677160  
N    -8.3081570   -1.5476300    1.7687680  
C    -8.6297200    0.0735210   -0.0704450  
C    -7.9333870    0.9173600   -1.0287570  
O    -8.5039030    1.6789670   -1.7951180  
C    -6.3660600    0.8247690   -1.0907280  
O    -5.7890240    1.3756100   -2.0091480  
C    -5.6427930    0.0037850   -0.0758500  
H    -5.0518240   -1.8645750    2.2209720  
H    -9.7145850    0.1049150   -0.0442260  
H    -7.3573400   -2.7392950    3.2760650  
H    -9.2690600   -1.6631260    2.0506820  
C     5.3256360    0.4307810   -2.2044990  
C     5.0633760    0.3987220   -0.8660850  
C     6.2451020   -0.1887000   -0.2342380  
C     7.2038590   -0.4874990   -1.3256110  
N     6.5759770   -0.1084720   -2.4961680  
C     8.4346120   -1.0313200   -1.1434010  
C     8.8497540   -1.3642030    0.2149650  
O     9.9348410   -1.8595240    0.4804350  
C     7.8394880   -1.0755030    1.3863150  
O     8.1620740   -1.3609490    2.5285110  
C     6.5419810   -0.4731040    1.0584350  
H     9.1233880   -1.2373010   -1.9570930  
H     5.8613620   -0.2580100    1.8747500  
H     4.7087320    0.8233710   -3.0029540  
H     7.0172140   -0.0871540   -3.4022240  
