58


C    -2.5385590    1.7236910    1.4799740  
C    -1.5733950    2.1658090    0.6165600  
C    -2.0837460    3.4179630    0.0449450  
C    -3.4184240    3.6408020    0.6516350  
N    -3.6335630    2.5725370    1.5038390  
C    -4.2269840    4.6970840    0.3838990  
C    -3.7706930    5.6893090   -0.5843790  
O    -4.4268490    6.6713860   -0.8948610  
C    -2.3700590    5.4632000   -1.2600140  
O    -1.9782180    6.2632970   -2.0929740  
C    -1.5812340    4.2859670   -0.8676160  
H    -5.1985130    4.8379740    0.8476220  
H    -0.6019130    4.1682550   -1.3162960  
H    -2.5163460    0.8558190    2.1267090  
H    -4.4222660    2.4836090    2.1258090  
C    -0.7303740   -2.0078690   -0.3987550  
C     0.6483620   -1.9242630   -0.4903120  
C     1.0480890   -0.5819900   -0.2250980  
C    -0.1914010    0.1600450    0.0585320  
N    -1.2287440   -0.7558400   -0.0210000  
C    -0.2981250    1.4982270    0.3330320  
C     0.9696010    2.2337890    0.3985420  
O     1.0415500    3.4269030    0.6415160  
C     2.3234110    1.4553530    0.1893120  
O     3.3480860    2.1038380    0.3254680  
C     2.3046420    0.0233350   -0.1831040  
H     1.3048250   -2.7647430   -0.6548560  
H    -2.1768520   -0.4549450   -0.2025370  
C    -1.3124760   -4.3008310   -1.2747820  
C    -1.5897770   -3.1322400   -0.5995370  
C    -2.9808370   -3.3128210   -0.1319760  
C    -3.3588400   -4.6594000   -0.6409300  
N    -2.3670090   -5.2177930   -1.2990860  
C    -4.6494970   -5.2270600   -0.3927850  
C    -5.5329220   -4.5043740    0.3447200  
O    -6.7709290   -4.9187260    0.6479360  
C    -5.1767690   -3.1569240    0.8967620  
O    -6.0203170   -2.5569010    1.5623230  
C    -3.8353820   -2.5967780    0.6250860  
H    -4.8941500   -6.2085220   -0.7832450  
H    -7.1694450   -4.2020540    1.1883630  
H    -3.6165340   -1.6334500    1.0738290  
H    -0.3914660   -4.5493380   -1.7890230  
C     3.6300820   -1.6774230   -1.4906140  
C     3.5182300   -0.6644150   -0.5595850  
C     4.9121860   -0.5067330   -0.0599400  
C     5.6821530   -1.5366180   -0.8094450  
N     4.9179460   -2.1953460   -1.6501020  
C     7.0861970   -1.7465420   -0.6105090  
C     7.7161550   -0.9796470    0.3144980  
O     9.0199170   -1.0700670    0.6112290  
C     6.9705290    0.0564940    1.1037770  
O     7.6010900    0.7050900    1.9363630  
C     5.5241860    0.2634070    0.8603670  
H     7.6056310   -2.5054520   -1.1848930  
H     9.1764200   -0.3973750    1.3108300  
H     5.0381180    1.0505450    1.4215540  
H     2.8414470   -2.0550730   -2.1289870  
