58


C     5.5944790   -1.0178810   -1.9796650  
C     6.8071940   -1.6194120   -1.9858460  
C     7.5225440   -1.1759160   -0.8107810  
C     6.6148420   -0.2401870   -0.1023860  
N     5.4503940   -0.1612170   -0.8751650  
C     6.9066310    0.3415750    1.0863240  
C     8.2078730    0.0645090    1.6971760  
O     8.5475340    0.5453140    2.7669870  
C     9.1983180   -0.8917600    0.9423860  
O    10.2927450   -1.1204410    1.4334550  
C     8.7523190   -1.4820080   -0.3205500  
H     7.1718730   -2.3107710   -2.7317640  
H     6.2377490    1.0127870    1.6088240  
H     9.4265540   -2.1690830   -0.8228190  
H     4.7760840   -1.1089780   -2.6773130  
C     1.3778010   -1.4722050   -0.8926390  
C     0.6788260   -0.3491990   -0.5161070  
C     1.7369510    0.6822320   -0.3517720  
C     2.9931990   -0.0445420   -0.6629390  
N     2.7645040   -1.2908430   -0.9900670  
C     4.2965340    0.5915230   -0.5976330  
C     4.3284780    1.9116940   -0.2444420  
O     5.4520280    2.6419830   -0.1797000  
C     3.0845210    2.6508420    0.1066850  
O     3.1960770    3.8350780    0.4245490  
C     1.7693770    1.9724930    0.0309170  
H     5.1615840    3.5364630    0.1104400  
H     0.8932390    2.5662920    0.2551930  
H     0.9626760   -2.4364660   -1.1572000  
C    -2.2608820   -3.2440490    1.0963760  
C    -1.1224770   -2.5964330    0.7288490  
C    -1.5097710   -1.3320090    0.1478620  
C    -2.9800430   -1.2968880    0.1999080  
N    -3.3751260   -2.4938450    0.7486460  
C    -3.7903050   -0.2481980   -0.1912540  
C    -3.0816700    0.9249310   -0.7358630  
O    -3.6293630    1.8570960   -1.2901000  
C    -1.5109130    0.9641820   -0.6623540  
O    -0.9727080    2.0287080   -0.9128370  
C    -0.7559640   -0.2700110   -0.3291460  
H    -0.1152920   -2.9489620    0.8855070  
H    -2.3830350   -4.2000600    1.5870970  
H    -4.3246110   -2.6723120    1.0457430  
C    -5.2325740   -0.2829480   -0.0990450  
C    -6.0750430   -1.3690130   -0.2100440  
C    -7.4066530   -0.8540340   -0.0064770  
C    -7.1954800    0.6063210    0.2566900  
N    -5.9384200    0.9347430    0.1958520  
C    -8.2994070    1.4865830    0.5404640  
C    -9.5443080    0.9543190    0.5330530  
O   -10.6640430    1.6506090    0.7687110  
C    -9.7900420   -0.5112540    0.2503830  
O   -10.9593550   -0.8979550    0.2696750  
C    -8.6501510   -1.3925280   -0.0180140  
H    -5.8252440   -2.3728940   -0.5270860  
H    -8.1195640    2.5376690    0.7359770  
H   -11.3956520    0.9971210    0.6918580  
H    -8.8643930   -2.4401970   -0.2059110  
