62


C    -0.2543300    0.1901600    0.9898060  
C    -0.1682040    1.4457790    0.4153260  
C    -1.4735100    1.7149320   -0.1576270  
C    -2.2905230    0.5912260    0.1182190  
N    -1.5206630   -0.3118660    0.8256770  
C    -3.6215550    0.4581060   -0.3328890  
C    -4.1219130    1.5228440   -1.0856890  
O    -5.4139880    1.5004450   -1.5084090  
C    -3.3169480    2.6528100   -1.3746200  
O    -3.9673730    3.6180290   -2.1202380  
C    -2.0131860    2.7612780   -0.9310400  
H    -1.8327060   -1.2212760    1.1288230  
H    -5.5444000    2.2756070   -2.0819800  
H    -3.3419920    4.3204980   -2.3516030  
H    -1.4290810    3.6474760   -1.1548980  
H     0.4974890   -0.3731410    1.5206250  
C     4.0666320    0.2888080    0.0258720  
C     4.6733900    1.5222130    0.1134430  
C     3.6287470    2.4851640    0.2670500  
C     2.3580740    1.6852620    0.2658060  
N     2.6285040    0.4228800    0.1125630  
C     1.0361240    2.2815020    0.4058490  
C     1.0461990    3.6431280    0.5344950  
O    -0.0593890    4.3864830    0.7083180  
C     2.3009470    4.4808200    0.5188430  
O     2.1437960    5.7020880    0.6496940  
C     3.5959860    3.8400310    0.3789250  
H     5.7225550    1.7522440    0.0294670  
H     0.2855120    5.3099080    0.7797020  
H     4.4778710    4.4721420    0.3745730  
C     8.2570740   -1.4081720    0.1522130  
C     7.1761040   -0.5604620    0.2244860  
C     6.0036080   -1.3294750   -0.0718820  
C     6.4457570   -2.6536790   -0.3086070  
N     7.8184930   -2.6697590   -0.1745940  
C     5.5815690   -3.7179860   -0.6001030  
C     4.2274590   -3.4454670   -0.6412220  
O     3.3366400   -4.4389530   -0.9104180  
C     3.7303530   -2.1332530   -0.4083330  
O     2.3818870   -2.0564460   -0.4944430  
C     4.5979260   -1.0389300   -0.1419570  
H     7.2355430    0.4815760    0.4945840  
H     8.4028910   -3.4838360   -0.2838040  
H     5.9340890   -4.7280560   -0.7838700  
H     2.4551550   -4.0221550   -0.9158490  
H     2.1202990   -1.1053840   -0.2946060  
H     9.3074990   -1.2101410    0.3107600  
C    -4.8708900   -1.5734980    3.4205420  
C    -4.3404580   -0.7195390    2.5084830  
C    -4.6947230   -1.2175270    1.1912570  
C    -5.4934890   -2.4457050    1.4200080  
N    -5.5437880   -2.6167010    2.7903430  
C    -6.0632240   -3.1999160    0.4438210  
C    -5.8738760   -2.7846950   -0.9366020  
O    -6.3789900   -3.3615680   -1.8884620  
C    -4.9589220   -1.5353810   -1.2176220  
O    -4.6690150   -1.2828490   -2.3717320  
C    -4.4375000   -0.7428500   -0.0673450  
H    -3.7755120    0.1757010    2.7195770  
H    -6.6680700   -4.0792340    0.6430340  
H    -4.8320650   -1.5348260    4.5012130  
H    -6.0776420   -3.3319870    3.2583880  
