62


C    -1.0647230    1.0828340   -0.4369380  
C    -0.5987340   -0.2217630   -0.4192710  
C    -1.7631260   -1.0576200   -0.1803690  
C    -2.8780590   -0.1942270   -0.0585090  
N    -2.4220100    1.0999450   -0.2383470  
C    -4.1881890   -0.6340620    0.2298170  
C    -4.3467090   -2.0094870    0.4043560  
O    -5.5841280   -2.5211870    0.6338430  
C    -3.2392110   -2.8894240    0.2920280  
O    -3.5702490   -4.2171870    0.4766100  
C    -1.9660140   -2.4388350    0.0051450  
H    -2.9938680    1.9272160   -0.1637730  
H    -5.4810130   -3.4795580    0.7681320  
H    -2.7885350   -4.7686800    0.3233850  
H    -1.1473580   -3.1406850   -0.1106100  
H    -0.5240410    1.9972970   -0.6333460  
C     3.1682190    1.6088180    1.0221280  
C     1.8715190    1.2724260    0.8229590  
C     1.8458480    0.1342160   -0.0721540  
C     3.2616200   -0.1724330   -0.3754420  
N     4.0280730    0.7560010    0.3144340  
C     3.6854920   -1.1854230   -1.1865980  
C     2.6817320   -2.0505450   -1.7691010  
O     2.9389260   -3.0056230   -2.4901900  
C     1.1659750   -1.7606470   -1.4484690  
O     0.3350610   -2.5158020   -1.9263790  
C     0.8039720   -0.5926150   -0.6023040  
H     1.0146540    1.7460020    1.2764170  
H     4.7273510   -1.3554640   -1.4328210  
H     3.5972020    2.3947810    1.6264500  
C     7.0510650   -2.2269100    1.4507300  
C     8.1472460   -1.4293820    1.2568710  
C     7.6679430   -0.1532250    0.8052130  
C     6.2519630   -0.2455790    0.7480390  
N     5.9014820   -1.5116730    1.1633720  
C     5.4454910    0.8363690    0.3444030  
C     6.0895860    2.0254750    0.0031570  
O     5.3538280    3.1060800   -0.3892720  
C     7.5012240    2.1272730    0.0766150  
O     7.9781000    3.3747150   -0.2800970  
C     8.2918390    1.0633560    0.4680710  
H     9.1776490   -1.7124660    1.4209850  
H     4.9725680   -1.9002740    1.1022310  
H     5.9860570    3.8152780   -0.6017850  
H     8.9457960    3.3549030   -0.3151770  
H     9.3731420    1.1704070    0.5201330  
H     6.9847670   -3.2548070    1.7777540  
C    -5.9523320    2.0798460   -2.7204480  
C    -6.9405550    2.6384150   -1.9738690  
C    -6.8654430    2.0542940   -0.6505070  
C    -5.7325430    1.0996810   -0.6893470  
N    -5.1970090    1.1894140   -1.9651060  
C    -5.3302630    0.2985320    0.3397570  
C    -6.0790350    0.4360680    1.6091990  
O    -5.7710910   -0.1581890    2.6264620  
C    -7.3014900    1.4288690    1.6628270  
O    -7.9449330    1.5045690    2.6985160  
C    -7.6124520    2.2201090    0.4745940  
H    -7.6533880    3.3799530   -2.3041450  
H    -8.4537610    2.9043940    0.5268900  
H    -5.6978390    2.2512160   -3.7583130  
H    -4.5283700    0.5292470   -2.3343400  
