58


C     5.9288110    1.3192500   -1.8453400  
C     7.1858230    1.2228190   -1.3585420  
C     7.1019240    0.6718510   -0.0231520  
C     5.6580650    0.4529500    0.2427260  
N     4.9802920    0.8338360   -0.9162600  
C     5.1657060    0.0083020    1.4305760  
C     6.1097950   -0.3251470    2.5002400  
O     5.7470000   -0.7357920    3.5904100  
C     7.6426260   -0.1518640    2.2154460  
O     8.4454870   -0.4618140    3.0791720  
C     8.0443150    0.3874050    0.9112510  
H     8.0912250    1.5124680   -1.8719430  
H     4.1078260   -0.0586970    1.6589900  
H     9.1037550    0.5528700    0.7408500  
H     5.5828220    1.6947010   -2.7957300  
C     2.0779500   -2.3415740   -0.1988600  
C     0.9409290   -1.6968060   -0.6123970  
C     1.3558940   -0.3718570   -1.0727530  
C     2.8189680   -0.3147560   -0.8678990  
N     3.1927960   -1.5514530   -0.3695810  
C     3.5974950    0.7729780   -1.1555160  
C     2.9312330    1.9411760   -1.7730150  
O     3.5409380    2.9432860   -2.0999110  
C     1.3847900    1.8648090   -2.0391080  
O     0.8460940    2.8173390   -2.5746930  
C     0.6701760    0.6510220   -1.6506730  
H    -0.3905160    0.6044100   -1.8710050  
H     2.1739640   -3.3304380    0.2293130  
H     4.1019370   -1.7506460    0.0263220  
C    -0.3922200   -2.2569600   -0.5893300  
C    -0.8019000   -3.5553410   -0.7174570  
C    -2.2306570   -3.5927800   -0.5483360  
C    -2.6553690   -2.1948800   -0.3206840  
N    -1.5173560   -1.4265820   -0.4068330  
C    -3.9440480   -1.7873610   -0.0495340  
C    -4.9394480   -2.8725040    0.0833900  
O    -6.0832660   -2.6935410    0.4814520  
C    -4.5300960   -4.3411960   -0.2936440  
O    -5.4025020   -5.1940750   -0.3144170  
C    -3.1273350   -4.6183770   -0.5705760  
H    -0.1709020   -4.4009320   -0.9507590  
H    -2.8414710   -5.6464840   -0.7684400  
H    -1.4642820   -0.5065000    0.0124560  
C    -4.3206930   -0.3973470    0.1442540  
C    -3.6669380    0.7638760   -0.2256090  
C    -4.4781960    1.8792670    0.1817030  
C    -5.6776230    1.2961080    0.8324750  
N    -5.5116050   -0.0709090    0.7890250  
C    -6.6989430    2.0262920    1.3482160  
C    -6.6221370    3.4822080    1.2661200  
O    -7.4910970    4.2210950    1.7038520  
C    -5.3577250    4.1219690    0.5822110  
O    -5.2770610    5.3390930    0.5081520  
C    -4.3232720    3.2277800    0.0611500  
H    -2.7717640    0.8416740   -0.8237560  
H    -7.5702860    1.5822480    1.8191450  
H    -3.4575530    3.6807290   -0.4130010  
H    -6.1957930   -0.7822670    1.0169790  
