58


C    -3.0194060   -1.7023450    1.9566280  
C    -3.8144350   -2.7372300    2.3041470  
C    -4.9488930   -2.7441930    1.4051840  
C    -4.7585060   -1.6014420    0.4801780  
N    -3.5400780   -0.9872250    0.8622540  
C    -5.6257400   -1.2902300   -0.5110270  
C    -6.8209370   -2.1294390   -0.6799240  
O    -7.6453260   -1.9164850   -1.5530330  
C    -7.0372530   -3.3384220    0.2929050  
O    -8.0242580   -4.0436570    0.1634880  
C    -6.0231350   -3.5690310    1.3255960  
H    -3.6415410   -3.4288430    3.1165550  
H    -5.4787070   -0.4502820   -1.1752180  
H    -6.1679880   -4.4070100    2.0006220  
H    -2.0969250   -1.3702190    2.4088110  
C    -2.9071500    0.1036630    0.3092940  
C    -1.6621700    0.6073830    0.6332220  
C    -1.5058360    1.7587660   -0.1990520  
C    -2.7783810    1.8167340   -0.9970490  
N    -3.5839480    0.8319440   -0.6915100  
C    -3.0453250    2.8552630   -1.9448480  
C    -2.0902830    3.8044950   -2.0973180  
O    -2.1851740    4.8341260   -2.9351620  
C    -0.7724340    3.7671210   -1.3348590  
O     0.0460500    4.6300500   -1.6442200  
C    -0.5246070    2.7063100   -0.3438740  
H    -0.9557260    0.2469120    1.3643420  
H    -3.9774580    2.8718250   -2.4978720  
H    -1.3334440    5.3234220   -2.8404130  
C     2.8170610   -0.2095150    0.1175160  
C     1.6453420    0.4129360   -0.2211400  
C     1.6387190    1.6976350    0.4256830  
C     2.9119900    1.7895650    1.1740710  
N     3.6129720    0.6117480    0.9147720  
C     3.2950410    2.8402390    1.9352270  
C     2.4009960    3.9949400    2.0081730  
O     2.6683340    4.9995680    2.6453190  
C     1.0425830    3.9325000    1.2247610  
O     0.2527750    4.8509460    1.3596550  
C     0.7412210    2.7362500    0.4047480  
H     0.8974690    0.0396450   -0.9033660  
H     4.2414190    2.8857020    2.4650490  
H     4.3241090    0.2514090    1.5355540  
C     2.3571560   -2.5382430   -0.5155810  
C     3.0250630   -3.6749650   -0.8038000  
C     4.4437910   -3.3896200   -0.7186180  
C     4.5611360   -1.9558710   -0.3583540  
N     3.2444970   -1.4809810   -0.2193400  
C     5.7419480   -1.2983200   -0.2539820  
C     6.9836330   -2.0571150   -0.4492390  
O     8.0836810   -1.5393280   -0.3615530  
C     6.8782230   -3.5851660   -0.7815930  
O     7.8984820   -4.2366490   -0.9235380  
C     5.5373100   -4.1666590   -0.9187270  
H     2.5822000   -4.6307820   -1.0443130  
H     5.8339310   -0.2356480   -0.0644490  
H     5.4676330   -5.2154320   -1.1905400  
H     1.2940780   -2.3536440   -0.4557390  
