58


C     3.4971180   -0.4483940    0.9535760  
C     2.6860150   -1.3996910    0.3705680  
C     3.5720610   -2.4906290   -0.0463130  
C     4.9406320   -2.0936350    0.3749400  
N     4.8082800   -0.8581170    0.9811580  
C     6.0672500   -2.8195200    0.1695320  
C     5.9529780   -4.0898510   -0.5396400  
O     6.9079520   -4.8156320   -0.7704520  
C     4.5265790   -4.5182080   -1.0345830  
O     4.4053450   -5.5662460   -1.6500680  
C     3.3853620   -3.6442180   -0.7408380  
H     7.0517060   -2.4938320    0.4916140  
H     2.4116730   -3.9740800   -1.0769840  
H     3.2172890    0.5195640    1.3448320  
H     5.5711060   -0.3103110    1.3499210  
C     0.3906140    2.2590780    0.0681470  
C    -0.8937390    1.7770790   -0.0956340  
C    -0.7861530    0.3412200   -0.0799830  
C     0.6647160    0.0893030    0.0909300  
N     1.3401870    1.2000930    0.1475580  
C     1.2459580   -1.2494840    0.2008410  
C     0.3291870   -2.2661910    0.1988200  
O     0.6560770   -3.5611320    0.3923480  
C    -1.1323110   -2.0551710    0.0266120  
O    -1.8432270   -3.0676820    0.0495530  
C    -1.6970280   -0.6859720   -0.1633140  
H    -1.8161460    2.3402820   -0.0716170  
H    -0.1957470   -4.0492740    0.3350940  
C    -1.1814600    5.9486880   -1.7011070  
C    -0.2845710    6.8397890   -1.2090510  
C     0.6555270    6.0973840   -0.3955000  
C     0.2186000    4.6862890   -0.4417360  
N    -0.9114810    4.6661930   -1.2250570  
C     0.8599920    3.6246020    0.1615810  
C     2.0688430    3.9677700    0.9550000  
O     2.6810050    3.1720710    1.6442810  
C     2.5702400    5.4613460    0.9656050  
O     3.6159330    5.7157640    1.5413890  
C     1.7684810    6.4774510    0.2900740  
H    -0.2667190    7.9042340   -1.3916900  
H     2.1136880    7.5060200    0.3283340  
H    -2.0260550    6.1092250   -2.3577100  
H    -1.3232520    3.8135420   -1.5763030  
C    -3.6061890    0.4947990   -1.2791940  
C    -3.0978480   -0.4994420   -0.4737940  
C    -4.3087470   -1.2356370   -0.0323360  
C    -5.4328200   -0.4976430   -0.6790840  
N    -4.9986700    0.4997610   -1.4135850  
C    -6.8057680   -0.8670780   -0.4914920  
C    -7.0716280   -1.9184740    0.3226560  
O    -8.3011950   -2.3725010    0.5930700  
C    -5.9659840   -2.6748210    1.0078400  
O    -6.2827890   -3.6094270    1.7392050  
C    -4.5579820   -2.2772790    0.7842280  
H    -7.5892700   -0.3054910   -0.9876900  
H    -8.1754380   -3.1294070    1.2076900  
H    -3.7944510   -2.8674810    1.2739940  
H    -3.0269430    1.2190250   -1.8387190  
