62


C    -1.6751430    1.8181750    3.0583150  
C    -2.8976740    1.7674420    2.4391550  
C    -2.7041790    1.1268400    1.1675330  
C    -1.3276940    0.7997200    1.0785670  
N    -0.7266900    1.2301280    2.2446420  
C    -0.7429290    0.1508040   -0.0288810  
C    -1.6133620   -0.1708140   -1.0696660  
O    -1.1442100   -0.8221420   -2.1676870  
C    -2.9937520    0.1568530   -1.0073110  
O    -3.6833220   -0.2124810   -2.1458590  
C    -3.5683390    0.7963440    0.0896430  
H    -3.8292540    2.1291360    2.8507280  
H     0.2629360    1.1751180    2.4312430  
H    -1.8939500   -0.9287250   -2.7790370  
H    -4.6191580    0.0270900   -2.0628330  
H    -1.3982140    2.2195280    4.0229160  
C     1.6068990   -2.4787390    2.5989710  
C     2.8341460   -2.3063440    2.0114920  
C     2.6539130   -1.4082610    0.9061420  
C     1.2788440   -1.0575500    0.8828930  
N     0.6678000   -1.7204750    1.9281420  
C     0.7013170   -0.1839620   -0.0597990  
C     1.5799650    0.3445480   -1.0084070  
O     1.1171800    1.2045380   -1.9548290  
C     2.9559590    0.0113540   -1.0016620  
O     3.6732040    0.6214470   -2.0225510  
C     3.5319550   -0.8462120   -0.0618670  
H     3.7591800   -2.7596240    2.3365380  
H    -0.3252460   -1.7138580    2.1049290  
H     1.8605550    1.3811420   -2.5587380  
H     4.4384180    0.0689510   -2.2466870  
H     1.3206640   -3.0804110    3.4500080  
C    -5.5225730    2.3772470    0.4127540  
C    -4.9999350    1.1497320    0.1167230  
C    -6.1459180    0.2738560   -0.1277110  
C    -7.3625420    1.1093160    0.0421120  
N    -6.9104200    2.3699950    0.3772990  
C    -8.6333980    0.6589100   -0.1088530  
C    -8.8375560   -0.7456560   -0.4541700  
O    -9.9431040   -1.2373040   -0.6186240  
C    -7.5670110   -1.6579470   -0.6133500  
O    -7.7163590   -2.8396290   -0.8790760  
C    -6.2435700   -1.0493090   -0.4347690  
H    -9.5089330    1.2880040    0.0200780  
H    -5.3764490   -1.6940280   -0.5380850  
H    -4.9914670    3.2895850    0.6495500  
H    -7.5010270    3.1696850    0.5437220  
C     5.5509740   -2.3902430    0.1076100  
C     4.9618390   -1.1735120   -0.0827050  
C     6.1122710   -0.2435830   -0.2002850  
C     7.3112230   -1.1215770   -0.0638450  
N     6.9719060   -2.3692490    0.1084550  
C     8.6480030   -0.5909660   -0.1195180  
C     8.7948500    0.7476190   -0.2687720  
O     9.9810570    1.3769030   -0.3272890  
C     7.6081590    1.6605540   -0.3816550  
O     7.8193300    2.8653390   -0.5137580  
C     6.2432250    1.0902640   -0.3408560  
H     9.4982000   -1.2579000   -0.0279830  
H     9.7653890    2.3292230   -0.4342170  
H     5.4136770    1.7817020   -0.4441070  
H     5.0484750   -3.3401720    0.2426270  
