60


C    -3.6725880    0.0837300   -0.0253600  
C    -2.2922660    0.2922330    0.0390680  
C    -2.0538080    1.6895420   -0.0689890  
C    -3.3328310    2.3107320   -0.1755100  
N    -4.2805340    1.3193160   -0.1685080  
C    -3.4993950    3.6963770   -0.2336250  
C    -2.3506840    4.4685310   -0.1487950  
O    -2.4361540    5.8215960   -0.1759700  
C    -1.0576780    3.8805500   -0.0324360  
O    -0.0431630    4.8033420    0.0134390  
C    -0.8701160    2.4948620   -0.0362650  
H    -1.5454570   -0.4577120    0.2487890  
H    -5.2880930    1.4161150   -0.1232690  
H    -4.4715500    4.1718130   -0.3072920  
H    -1.5222450    6.1465320   -0.0562710  
H     0.6004740    4.4886020    0.6921830  
C     0.9329600   -0.6905100   -2.5436100  
C     0.1366110    0.2832370   -2.0259300  
C     0.8246610    0.8496050   -0.8859190  
C     2.1055470    0.1174760   -0.7826460  
N     2.0998970   -0.8151900   -1.8022690  
C     3.0644420    0.3102000    0.1745440  
C     2.8126720    1.4121600    1.1136210  
O     3.6003630    1.7512020    1.9774100  
C     1.5059840    2.2740400    0.9391780  
O     1.4416040    3.2957990    1.6196820  
C     0.4655400    1.8625220   -0.0173970  
H    -0.8211300    0.5994940   -2.4073740  
H     0.7749560   -1.3189090   -3.4103970  
H     2.8727370   -1.4271450   -2.0132370  
C     6.4792820   -0.6061530   -2.5500000  
C     5.3272490   -0.1243380   -2.0115420  
C     5.2148920   -0.6691290   -0.6719900  
C     6.4162640   -1.5150680   -0.4739880  
N     7.1267070   -1.4516450   -1.6601240  
C     6.7252860   -2.1768000    0.6706200  
C     5.8080840   -2.0644640    1.7966360  
O     6.0095930   -2.5880810    2.8809360  
C     4.4835150   -1.2448570    1.5923060  
O     3.6316720   -1.2888440    2.4600260  
C     4.2793360   -0.5045630    0.3162170  
H     4.6460380    0.5693520   -2.4812790  
H     7.6277940   -2.7669760    0.7958570  
H     6.9140240   -0.4125520   -3.5218470  
H     8.0367830   -1.8608030   -1.8042260  
C    -2.5251530   -4.1286530   -0.5726760  
C    -3.7099030   -4.7200510   -0.2712660  
C    -4.6579610   -3.6652050    0.0153670  
C    -3.9165330   -2.3989240   -0.1260980  
N    -2.6188250   -2.7454190   -0.4541290  
C    -4.4467870   -1.1377710    0.0441720  
C    -5.9065160   -1.0993340    0.2849240  
O    -6.5568190   -0.0609850    0.3035290  
C    -6.6935220   -2.4450130    0.5210010  
O    -7.8757530   -2.3652670    0.8211590  
C    -5.9809250   -3.6975060    0.3514360  
H    -3.9128820   -5.7808390   -0.2479720  
H    -6.5311050   -4.6227140    0.4884800  
H    -1.5823730   -4.5798050   -0.8525260  
H    -1.9533770   -2.0887080   -0.8363750  
