58


C     4.3860210    0.1520770    0.1510980  
C     4.2348450   -1.0771580   -0.4504990  
C     5.4999260   -1.7556660   -0.3934300  
C     6.4374200   -0.8340300    0.2947920  
N     5.7089120    0.2919320    0.5964700  
C     7.7431200   -1.1152490    0.5430550  
C     8.2705720   -2.4049400    0.1114300  
O     9.4299650   -2.7474830    0.2907450  
C     7.2937370   -3.3991550   -0.6193330  
O     7.7172630   -4.4850390   -0.9864900  
C     5.9066760   -2.9806400   -0.8309740  
H     3.3182000   -1.4455420   -0.8799160  
H     8.4158490   -0.4286760    1.0476330  
H     5.2410530   -3.6732100   -1.3372660  
H     6.0563530    1.1160770    1.0631030  
C     0.1419850    0.3124310   -0.9059510  
C    -0.2404800    1.5598660   -0.4905800  
C     1.0036530    2.1367090    0.0733720  
C     2.0203090    1.0609330   -0.0974740  
N     1.4972150    0.0151460   -0.6792040  
C     3.4077530    1.2094070    0.3479020  
C     3.6963680    2.4026840    0.9637160  
O     4.9098750    2.7340760    1.4497040  
C     2.6880940    3.4805340    1.1676880  
O     3.0649870    4.5062670    1.7397580  
C     1.3093780    3.2944180    0.6871600  
H     4.7927820    3.6391660    1.8259860  
H     0.6180490    4.1146700    0.8310820  
H    -0.4728810   -0.4209030   -1.4115170  
C    -4.3582480   -0.1563960   -0.0912600  
C    -2.9848540   -0.0177450   -0.1064140  
C    -2.7261260    1.3530430   -0.4432690  
C    -4.0879370    1.9392290   -0.6302240  
N    -5.0307800    1.0674770   -0.4275890  
C    -4.2799490    3.3199150   -0.9873020  
C    -3.1771860    4.0944620   -1.0956630  
O    -3.2057640    5.4013680   -1.3973600  
C    -1.7884580    3.5503080   -0.8805350  
O    -0.8625390    4.3549380   -1.0034350  
C    -1.5833770    2.1108960   -0.5678680  
H    -2.2547880   -0.7552580    0.1909010  
H    -5.2806510    3.7107840   -1.1322270  
H    -2.2667690    5.6900860   -1.4070910  
C    -3.6824240   -4.4979300   -0.8093130  
C    -3.5566340   -3.1404780   -0.7548930  
C    -4.7296980   -2.6200210   -0.1014010  
C    -5.5730710   -3.7958260    0.2084690  
N    -4.8665170   -4.9040420   -0.2238380  
C    -6.8099050   -3.7510990    0.7680440  
C    -7.3654290   -2.4443210    1.0956660  
O    -8.4978250   -2.2899400    1.5235830  
C    -6.4477400   -1.1848460    0.9129230  
O    -6.8054010   -0.1445350    1.4280570  
C    -5.1426130   -1.3339040    0.2009900  
H    -2.7346340   -2.5679010   -1.1530370  
H    -7.4170220   -4.6328420    0.9490750  
H    -3.0064840   -5.2306690   -1.2298820  
H    -5.2097580   -5.8516500   -0.1937390  
