60


C     0.8903980    1.0217250   -0.1885030  
C    -0.4882340    1.0431160   -0.1935020  
C    -0.9576940   -0.3041770   -0.1045900  
C     0.2472150   -1.1468350   -0.0599620  
N     1.3408510   -0.2870240   -0.0365010  
C     0.2926550   -2.5130480   -0.0660340  
C    -1.0219100   -3.1871550   -0.0760360  
O    -1.1621650   -4.3841100    0.0821130  
C    -2.3170960   -2.3181070   -0.2462010  
O    -3.3531980   -2.9236380   -0.4976000  
C    -2.2395390   -0.8517490   -0.0995630  
H    -1.0921570    1.9335800   -0.2595020  
H     2.2534800   -0.5975570   -0.3455970  
C     1.8274500    2.1112210   -0.2683210  
C     1.6437620    3.3843060   -0.7411340  
C     2.8958980    4.0856720   -0.6200110  
C     3.8527170    3.1237170   -0.0223640  
N     3.1670430    1.9211410    0.1149820  
C     5.1326140    3.4210260    0.3048270  
C     5.6251500    4.7711320    0.0258690  
O     6.7626270    5.1277280    0.2853250  
C     4.6407190    5.7947210   -0.6476990  
O     5.0369900    6.9208260   -0.9010760  
C     3.2718490    5.3551840   -0.9374570  
H     0.7351220    3.7721130   -1.1792290  
H     5.8190900    2.7077900    0.7505520  
H     2.5942980    6.0749770   -1.3863400  
H     3.4374880    1.2258470    0.7978790  
C    -3.4509140   -0.0660460   -0.0068750  
C    -3.6380960    1.2215480    0.4697840  
C    -5.0374230    1.5216580    0.4058030  
C    -5.6935040    0.3093500   -0.1451630  
N    -4.6854870   -0.5977310   -0.3799210  
C    -7.0303020    0.1919430   -0.3501440  
C    -7.8884880    1.3241550   -0.0135050  
O    -9.1009670    1.3099930   -0.1641200  
C    -7.2142670    2.6200440    0.5703160  
O    -7.9182890    3.5780780    0.8559920  
C    -5.7632270    2.6259160    0.7484860  
H    -2.8821740    1.8627660    0.8950140  
H    -7.4944850   -0.7032910   -0.7517650  
H    -5.3084840    3.5246200    1.1546100  
H    -4.7784850   -1.5705850   -0.6458400  
C     3.6590650   -2.4520170    2.8439330  
C     4.4314310   -3.4057650    2.2381960  
C     3.7266980   -3.8386590    1.0636030  
C     2.5212160   -3.0943480    1.0032380  
N     2.5154840   -2.2375220    2.0881990  
C     1.5460780   -3.2831610   -0.0051270  
C     1.8365740   -4.2566800   -0.9691780  
O     0.9785730   -4.4501670   -2.0026240  
C     3.0422200   -5.0026190   -0.9212870  
O     3.1714160   -5.9025950   -1.9589980  
C     3.9835930   -4.8042480    0.0706980  
H     5.3896900   -3.7646800    2.5874580  
H     1.7098310   -1.7157520    2.3975170  
H     1.3020570   -5.2129150   -2.5140740  
H     3.9423190   -6.4696800   -1.8089870  
H     4.9018690   -5.3874330    0.0831730  
H     3.8257410   -1.8916580    3.7531250  
