62


C    -1.7575690    0.0933570    2.9506110  
C    -2.9349370   -0.2424240    2.3294030  
C    -2.7607090   -0.0057680    0.9182910  
C    -1.4322100    0.4619280    0.7516860  
N    -0.8478530    0.5124160    2.0027160  
C    -0.8554760    0.7755780   -0.4950490  
C    -1.6794960    0.5763270   -1.6008200  
O    -1.2100570    0.8057130   -2.8514310  
C    -3.0179600    0.1093850   -1.4679760  
O    -3.6725960   -0.0068630   -2.6688210  
C    -3.6014280   -0.1569640   -0.2261760  
H    -3.8061640   -0.6532450    2.8191400  
H     0.0739370    0.8793340    2.1859830  
H    -1.9433870    0.5670750   -3.4521590  
H    -4.1987480   -0.8423640   -2.6325070  
H    -1.4850860    0.0513910    3.9957170  
C     2.8314160   -1.3950690    0.3993690  
C     3.7609440   -0.4024000    0.1080350  
C     2.9886360    0.7605230   -0.3014120  
C     1.6244960    0.3901410   -0.2386690  
N     1.5673570   -0.9216320    0.2060230  
C     0.5531510    1.2269980   -0.6098790  
C     0.9046880    2.4930300   -1.0761190  
O    -0.0621570    3.3799920   -1.4296730  
C     2.2679760    2.8813540   -1.1610190  
O     2.4444500    4.1669090   -1.6334180  
C     3.3014660    2.0463580   -0.7832260  
H     0.7130170   -1.4426410    0.3400760  
H     0.3867350    4.1767310   -1.7626150  
H     3.3912340    4.3653670   -1.6856600  
H     4.3291620    2.3890750   -0.8330110  
H     3.0022140   -2.3897330    0.7843490  
C    -6.7117780    1.4580390    2.4093220  
C    -7.7487790    0.6364590    2.1061820  
C    -7.2840230   -0.2777650    1.0842790  
C    -5.8661970    0.0802360    0.8218250  
N    -5.5926660    1.1484670    1.6425850  
C    -5.0269240   -0.5387940   -0.0784450  
C    -5.6645050   -1.5650870   -0.9018210  
O    -5.1290750   -2.0861100   -1.8826380  
C    -7.1290850   -2.0404850   -0.5721640  
O    -7.5724690   -3.0008160   -1.1803920  
C    -7.8922550   -1.2987320    0.4246090  
H    -8.7410220    0.6652830    2.5318470  
H    -8.9151040   -1.6055530    0.6178470  
H    -6.6649090    2.2744290    3.1178240  
H    -4.6663370    1.5308090    1.7695590  
C     6.4747720   -3.8666870   -0.6532810  
C     5.3775820   -3.0685550   -0.6550470  
C     5.8190360   -1.8044190   -0.0704680  
C     7.2532530   -2.0318610    0.2143850  
N     7.6341450   -3.2384920   -0.1154400  
C     8.0942890   -1.0049580    0.7795930  
C     7.5325790    0.1980470    1.0277680  
O     8.2012950    1.2576830    1.5272430  
C     6.0821190    0.4671820    0.7528280  
O     5.6730120    1.5995930    1.0107290  
C     5.1954270   -0.6195490    0.2139630  
H     4.3957510   -3.2923340   -1.0465000  
H     9.1417020   -1.2065250    0.9754840  
H     7.5303720    1.9695870    1.6055410  
H     6.5595290   -4.8833680   -1.0183600  
