62


C    -0.5886350   -1.8598650   -0.4732510  
C    -1.1549940   -3.1194030   -0.5609240  
C    -2.5635210   -2.9729320   -0.3404930  
C    -2.8135000   -1.5877330   -0.1302390  
N    -1.6018010   -0.9588050   -0.1828830  
C    -4.0984080   -1.0287060    0.0769340  
C    -5.1407030   -1.9622380    0.1262610  
O    -6.4409930   -1.5508630    0.3297180  
C    -4.9129150   -3.3471550   -0.0531760  
O    -6.0690830   -4.1096050    0.0289230  
C    -3.6531060   -3.8633980   -0.2966450  
H    -0.6301850   -4.0333080   -0.8022190  
H    -1.4354650    0.0199540   -0.0249220  
H    -6.9990440   -2.3418640    0.2083370  
H    -5.9081670   -4.9825750   -0.3586250  
H    -3.5147170   -4.9327310   -0.4406880  
C     1.9547920   -1.9564470   -0.4222900  
C     0.7514490   -1.3333740   -0.6520920  
C     1.0614440    0.0370020   -1.0244010  
C     2.4643580    0.1829500   -0.9706510  
N     3.0029310   -1.0585720   -0.5977310  
C     3.1022290    1.3849560   -1.3072940  
C     2.3000570    2.4690910   -1.6431450  
O     2.8673320    3.6706060   -1.9421670  
C     0.8865580    2.3407460   -1.6971550  
O     0.2134470    3.4761130   -2.0582390  
C     0.2721810    1.1301310   -1.4300490  
H     4.1796620    1.5001080   -1.3138680  
H     2.1337590    4.2827730   -2.1340520  
H    -0.7380220    3.3898660   -1.8378060  
H    -0.7929290    1.0428030   -1.6122910  
H     2.1653460   -2.9546180   -0.0676690  
C     4.9633370   -2.5392240   -0.8937680  
C     4.3497590   -1.4005760   -0.4696780  
C     5.3751830   -0.6782430    0.3155090  
C     6.5709430   -1.5565710    0.2089220  
N     6.3193950   -2.6314550   -0.4904520  
C     7.8162090   -1.2046100    0.8369720  
C     7.8575020   -0.0726790    1.5820900  
O     8.9515690    0.3632510    2.2336440  
C     6.6536280    0.8015790    1.7504480  
O     6.7610940    1.8100510    2.4487100  
C     5.3905850    0.4376760    1.0681570  
H     8.6794320   -1.8514050    0.7244460  
H     8.6734160    1.1934970    2.6783140  
H     4.5468170    1.1079560    1.1966300  
H     4.5295120   -3.3380420   -1.4822510  
C    -6.5681520    1.5907770    2.7097590  
C    -6.0848670    2.8044800    2.3243680  
C    -5.1138810    2.5680320    1.2871190  
C    -5.0670890    1.0915210    1.1049930  
N    -5.9395570    0.5555430    2.0358430  
C    -4.2648780    0.4329610    0.2098930  
C    -3.5445560    1.3366770   -0.7212480  
O    -3.0506620    0.9545860   -1.7711900  
C    -3.3912670    2.8595550   -0.3735120  
O    -2.4995410    3.4929010   -0.9402150  
C    -4.2970440    3.4214120    0.5963950  
H    -6.3666070    3.7668800    2.7260890  
H    -4.2591950    4.4874660    0.7957010  
H    -7.3242890    1.3639320    3.4505150  
H    -6.3475750   -0.3623670    1.8806120  
