60


C     1.7819400   -0.6102900    0.3613780  
C     0.7573740    0.2940720    0.4168040  
C     1.3323550    1.6190840    0.4357360  
C     2.7349850    1.4527040    0.3908890  
N     2.9983300    0.0721920    0.3432080  
C     3.6165590    2.5383440    0.4616140  
C     3.0640940    3.8097910    0.5320350  
O     3.8822400    4.8920500    0.5858680  
C     1.6550840    3.9912340    0.5546750  
O     1.2677380    5.3078360    0.6311620  
C     0.7889460    2.9138650    0.5215590  
H     4.6936580    2.4291700    0.4849760  
H     3.3214160    5.6869340    0.6196040  
H     0.3060370    5.3805820    0.5360080  
H    -0.2860320    3.0661410    0.5585500  
H     1.7588390   -1.6859770    0.2768930  
C    -1.1687720   -0.9340280    1.4026250  
C    -2.4962680   -1.1089260    1.1850190  
C    -2.8619270   -0.2827920    0.0515090  
C    -1.6132120    0.3817120   -0.3884630  
N    -0.6104060   -0.0350090    0.4884050  
C    -1.5039990    1.1880120   -1.4760830  
C    -2.7083860    1.4669540   -2.2477190  
O    -2.7122310    2.1613750   -3.2522940  
C    -4.0665170    0.8655490   -1.7423290  
O    -5.1006320    1.2470710   -2.2568230  
C    -4.0519350   -0.0916070   -0.6000660  
H    -3.1535870   -1.7578590    1.7439240  
H    -0.5650030    1.6150930   -1.8093180  
H    -0.5283250   -1.3706850    2.1573310  
C    -6.3708180   -0.1283500    3.1710100  
C    -7.4235310   -0.8880660    2.7759790  
C    -7.1912700   -1.2629450    1.3958550  
C    -5.8933220   -0.6534700    1.0154670  
N    -5.4445040    0.0100960    2.1409850  
C    -5.3189590   -0.7350030   -0.2223930  
C    -6.0365530   -1.5454880   -1.2327250  
O    -5.5644630   -1.7923260   -2.3279240  
C    -7.4298850   -2.1659210   -0.8559510  
O    -8.0461260   -2.7828630   -1.7097650  
C    -7.9251120   -1.9857320    0.5080860  
H    -8.2807360   -1.1600310    3.3743060  
H    -8.8845750   -2.4265110    0.7607080  
H    -6.1835430    0.3431570    4.1267610  
H    -4.6072900    0.5700580    2.1747530  
C     4.2279060   -0.5632920    0.2995540  
C     4.5826090   -1.7813960    0.8065350  
C     5.9537780   -2.0187790    0.4335390  
C     6.3833440   -0.8285390   -0.3399890  
N     5.3044630    0.0559780   -0.3430770  
C     7.5997040   -0.6829020   -0.9126810  
C     8.5817130   -1.7564200   -0.7345940  
O     9.7036490   -1.7071600   -1.2112910  
C     8.1644680   -3.0085700    0.1191650  
O     8.9781420   -3.9049710    0.2846750  
C     6.8107410   -3.0502060    0.6689230  
H     3.9682410   -2.4156350    1.4282710  
H     7.8944650    0.1925730   -1.4831640  
H     6.5272830   -3.9278050    1.2417300  
H     5.1666250    0.7383130   -1.0766300  
