58


C     4.7258880   -0.0179390    0.1890690  
C     4.5963810   -1.1984460   -0.5072890  
C     5.8510640   -1.8946890   -0.4344380  
C     6.7587640   -1.0363580    0.3667820  
N     6.0247960    0.0731710    0.7119410  
C     8.0473860   -1.3504930    0.6611390  
C     8.5860010   -2.6118620    0.1652200  
O     9.7314390   -2.9807860    0.3794680  
C     7.6407170   -3.5389950   -0.6856370  
O     8.0743200   -4.6007790   -1.1078140  
C     6.2704630   -3.0897000   -0.9380180  
H     3.7007280   -1.5229120   -1.0101770  
H     8.6982370   -0.7100850    1.2483850  
H     5.6268600   -3.7358980   -1.5273390  
H     6.3547030    0.8588050    1.2519830  
C     0.5432440    0.2795750   -1.0796490  
C     0.1475710    1.4909820   -0.5836090  
C     1.3667760    2.0058140    0.0887870  
C     2.3826240    0.9352100   -0.1128670  
N     1.8850530   -0.0528320   -0.8041530  
C     3.7475710    1.0339720    0.4124260  
C     4.0135930    2.1748290    1.1281520  
O     5.2020150    2.4547480    1.7014070  
C     3.0046290    3.2478520    1.3583270  
O     3.3594590    4.2212290    2.0268940  
C     1.6517280    3.1170210    0.7916460  
H     5.0723290    3.3324480    2.1344050  
H     0.9647100    3.9391060    0.9456690  
H    -0.0422320   -0.4060890   -1.6787650  
C    -3.9152160   -0.2916060   -0.4538550  
C    -2.5604880   -0.0766870   -0.4171560  
C    -2.3361830    1.3234380   -0.6389840  
C    -3.6749270    1.9284960   -0.8047780  
N    -4.6030590    0.9019650   -0.6474530  
C    -3.9212630    3.2352930   -1.0579910  
C    -2.7781050    4.1364780   -1.1253100  
O    -2.8820640    5.3332430   -1.3335560  
C    -1.3413810    3.5401290   -0.8918420  
O    -0.4020870    4.3198900   -0.9187190  
C    -1.1806060    2.0840950   -0.6753790  
H    -1.8122060   -0.8136690   -0.1716920  
H    -4.9171950    3.6475400   -1.1849360  
H    -5.5396890    0.9469540   -1.0237390  
C    -4.0429020   -2.7338450   -0.6942460  
C    -4.9243240   -3.7372000   -0.5024270  
C    -6.1462580   -3.1614700    0.0239880  
C    -5.9056530   -1.7030340    0.1393330  
N    -4.6003280   -1.4850840   -0.3389770  
C    -6.8003780   -0.8295430    0.6624550  
C    -8.1093500   -1.3411540    1.0884090  
O    -8.9684500   -0.6166850    1.5602990  
C    -8.3983640   -2.8727810    0.9265380  
O    -9.4874020   -3.3119910    1.2522640  
C    -7.3250170   -3.7211390    0.3934000  
H    -4.7549190   -4.7827050   -0.7164280  
H    -6.6055700    0.2245620    0.8192290  
H    -7.5135350   -4.7879140    0.3222820  
H    -3.0391850   -2.7590830   -1.0935120  
