58


C    -0.0456300    0.1937260    0.3745100  
C     0.3369710    1.5113710    0.5425450  
C    -0.8346620    2.3298580    0.4507790  
C    -1.9728740    1.4071470    0.2386550  
N    -1.4405250    0.1564470    0.2098530  
C    -3.2949590    1.7969120    0.1022130  
C    -3.5282880    3.2526670    0.0555840  
O    -4.6123460    3.7588680   -0.2138230  
C    -2.3419670    4.2365660    0.3594640  
O    -2.5870710    5.4313070    0.4267310  
C    -1.0089840    3.6817520    0.5317510  
H     1.3261260    1.8758130    0.7673170  
H    -0.1899550    4.3702120    0.7140830  
H    -1.9208800   -0.7191270    0.0432200  
C     4.3413780   -0.6534810    0.0219440  
C     3.0845880   -0.0635510    0.0326280  
C     2.1125430   -1.0692150    0.2838500  
C     2.8645410   -2.3334610    0.4279940  
N     4.1975100   -2.0217070    0.2373630  
C     2.3189420   -3.5441030    0.7036460  
C     0.8706170   -3.6288390    0.8072230  
O     0.2720740   -4.6553760    1.0788410  
C     0.0303010   -2.3334650    0.5285140  
O    -1.1837010   -2.4745250    0.4330430  
C     0.7211080   -1.0296450    0.3902350  
H     2.9075890    0.9740710   -0.1807730  
H     2.9013590   -4.4493680    0.8417000  
H     4.9588070   -2.6304490    0.4979740  
C    -4.3979390    0.8623560   -0.0190990  
C    -4.4703420   -0.4912230    0.2696790  
C    -5.8065670   -0.9319860   -0.0057890  
C    -6.5457420    0.2632630   -0.4807970  
N    -5.6414720    1.2984500   -0.4752860  
C    -7.8571080    0.2614870   -0.8350270  
C    -8.5977180   -0.9940700   -0.7509100  
O    -9.7786220   -1.0915550   -1.0495830  
C    -7.8332340   -2.2752750   -0.2525280  
O    -8.4401350   -3.3340950   -0.1781210  
C    -6.4210420   -2.1460390    0.1028180  
H    -3.7034070   -1.1125340    0.7062380  
H    -8.3823040    1.1473770   -1.1779980  
H    -5.9027400   -3.0358590    0.4473100  
H    -5.8224570    2.2837780   -0.6311940  
C     8.4093120   -2.1759970   -1.1088720  
C     7.0651940   -2.1401440   -0.8770590  
C     6.7739120   -0.7637960   -0.5341790  
C     8.1151830   -0.0892000   -0.6216270  
N     9.0611930   -0.9299430   -0.9415360  
C     8.2790370    1.3128280   -0.3793460  
C     7.1707510    2.0393310   -0.0991000  
O     7.1846890    3.3589730    0.1204130  
C     5.8031130    1.4144210   -0.0013840  
O     4.8722920    2.1753460    0.2497400  
C     5.6411110   -0.0625220   -0.1907430  
H     6.3690820   -2.9534110   -1.0194040  
H     9.2627390    1.7639820   -0.4444660  
H     6.2532720    3.6184680    0.2922250  
H     8.9991170   -3.0332650   -1.4123710  
