60


C     0.0765880   -0.1183340    0.2025940  
C     0.5621580    1.1825690    0.1666750  
C    -0.5593950    2.0486920    0.0625970  
C    -1.7266930    1.2341500    0.0208430  
N    -1.3147350   -0.0675830    0.1000130  
C    -3.0395840    1.7675530   -0.0664850  
C    -3.1175290    3.1701450   -0.0571560  
O    -4.3313660    3.7977750   -0.1100350  
C    -1.9586560    3.9880010   -0.0172930  
O    -2.2470600    5.3384660   -0.0377390  
C    -0.6900270    3.4518570    0.0299900  
H     1.6037050    1.4564450    0.2295260  
H    -1.9072620   -0.8717950    0.2482210  
H    -4.1598360    4.7573550   -0.1039730  
H    -1.4266580    5.8515970    0.0068530  
H     0.1870550    4.0940780    0.0590190  
C     4.3879080   -0.9463080    0.2943990  
C     4.3876420   -2.3038720    0.5034380  
C     2.9987150   -2.6981040    0.5607300  
C     2.2462130   -1.4220540    0.3582900  
N     3.0511020   -0.4194350    0.1984730  
C     0.7791870   -1.3763820    0.3411850  
C     0.1626760   -2.5932700    0.4837390  
O    -1.1846030   -2.7493280    0.4797150  
C     0.8880900   -3.8723120    0.6851350  
O     0.2110100   -4.8994230    0.8166980  
C     2.3567520   -3.8757310    0.7202310  
H     5.2330900   -2.9478680    0.7053200  
H    -1.3233210   -3.7151690    0.6213800  
H     2.8500480   -4.8326460    0.8606160  
C     8.3267320   -1.6240640   -1.4926390  
C     8.8640170   -0.3878070   -1.3453830  
C     7.8704110    0.4356970   -0.6872030  
C     6.7012200   -0.4387360   -0.4463700  
N     7.0504880   -1.6770130   -0.9308470  
C     5.5073250   -0.0432250    0.1172820  
C     5.4303290    1.3749160    0.5501190  
O     4.4917350    1.8437040    1.1659140  
C     6.6513720    2.3227790    0.2532560  
O     6.5487300    3.5071070    0.5278270  
C     7.8597320    1.7502170   -0.3387410  
H     9.8459460   -0.0691890   -1.6631980  
H     8.7018310    2.4125920   -0.5146490  
H     8.7481950   -2.5107620   -1.9469650  
H     6.3837810   -2.4244530   -1.0636750  
C    -4.2153330    0.9111760   -0.1643020  
C    -4.3140320   -0.3965880   -0.5870880  
C    -5.6929420   -0.7933200   -0.5030130  
C    -6.4280570    0.3900460    0.0095070  
N    -5.4826570    1.3696500    0.2113600  
C    -7.7698620    0.4281750    0.2151500  
C    -8.5517980   -0.7679020   -0.0791980  
O    -9.7635090   -0.8263840    0.0734670  
C    -7.7922410   -2.0374740   -0.6167040  
O    -8.4355750   -3.0483050   -0.8633560  
C    -6.3455990   -1.9530210   -0.7986120  
H    -3.5177820   -1.0041320   -0.9890820  
H    -8.2910360    1.3041070    0.5892340  
H    -5.8330920   -2.8337990   -1.1740110  
H    -5.6708530    2.3405980    0.4126190  
