60


C     2.0610430   -0.3598400    0.4340770  
C     3.3628090    0.0783730    0.2817940  
C     3.2754570    1.4912240   -0.0409070  
C     1.9030250    1.8313400   -0.0752770  
N     1.1696090    0.6835970    0.2298100  
C     1.4415270    3.1131470   -0.3982940  
C     2.3925630    4.0791870   -0.6832580  
O     2.0037280    5.3486410   -0.9928920  
C     3.7759440    3.7597570   -0.6480380  
O     4.6006320    4.8263750   -0.9451690  
C     4.2226710    2.4900950   -0.3407490  
H     0.3880970    3.3667720   -0.4344790  
H     2.8142870    5.8689320   -1.1330400  
H     5.5223820    4.5772900   -0.7793620  
H     5.2848810    2.2769670   -0.2937650  
H     1.6913980   -1.3205210    0.7640330  
C    -1.0308380    1.3253100    1.1658760  
C    -0.2259600    0.5865360    0.3494240  
C    -1.0803830   -0.3207980   -0.4003500  
C    -2.4597850   -0.0463030    0.0572010  
N    -2.3606700    0.9793140    0.9811770  
C    -3.5709130   -0.7191250   -0.3640230  
C    -3.3637300   -1.7558660   -1.4040350  
O    -4.2886880   -2.3350080   -1.9426270  
C    -1.8996510   -2.0712210   -1.8801450  
O    -1.7237100   -2.9677150   -2.6896600  
C    -0.8066980   -1.2709720   -1.3323330  
H     0.2002630   -1.4741390   -1.6815270  
H    -0.7528470    2.0946500    1.8731700  
H    -3.1378820    1.3461370    1.5081630  
C    -6.1877070    2.8989840   -0.2638870  
C    -5.1537840    2.0366330   -0.4549610  
C    -5.5592060    0.7510590    0.0776430  
C    -6.9365950    0.9405910    0.5961620  
N    -7.2459920    2.2715620    0.3779470  
C    -7.7053470   -0.0356640    1.1418230  
C    -7.1439170   -1.3771270    1.2416650  
O    -7.7638450   -2.3309920    1.6837860  
C    -5.6602070   -1.5943660    0.7749780  
O    -5.1272090   -2.6639560    1.0046840  
C    -4.9320350   -0.4663460    0.1333030  
H    -4.2174480    2.2632900   -0.9420700  
H    -8.7211390    0.1260180    1.4890400  
H    -6.2677380    3.9423480   -0.5395400  
H    -8.1475910    2.6864070    0.5551240  
C     4.1038320   -4.0348740   -1.0427410  
C     5.3568470   -4.2190820   -0.5506800  
C     5.7460750   -2.9922610    0.1098150  
C     4.5992620   -2.0665260   -0.0319990  
N     3.6209570   -2.7754810   -0.7089640  
C     4.5508210   -0.7712490    0.4170420  
C     5.7711320   -0.2921390    1.1003750  
O     5.8822380    0.8360650    1.5545430  
C     6.9992480   -1.2692490    1.2715630  
O     7.9993200   -0.8375510    1.8264280  
C     6.8907160   -2.6222810    0.7494750  
H     5.9549350   -5.1148040   -0.6340040  
H     7.7398130   -3.2876530    0.8697060  
H     3.4798760   -4.7152650   -1.6074430  
H     2.8043650   -2.3379270   -1.1097620  
