60


C     2.3126780    5.2495970    1.5605830  
C     1.8888650    4.0065470    1.1961050  
C     0.6379050    4.1604620    0.4951990  
C     0.3514080    5.6115770    0.4967700  
N     1.4209360    6.2170660    1.1304520  
C    -0.7717350    6.1931240   -0.0009620  
C    -1.7876700    5.3279780   -0.5792970  
O    -2.8663700    5.7369620   -0.9805320  
C    -1.4707860    3.7939450   -0.7095700  
O    -2.2268420    3.1210410   -1.3832530  
C    -0.2346180    3.2488610   -0.0723310  
H     2.3890330    3.0790020    1.4239470  
H    -0.9629310    7.2608930    0.0448670  
H     3.2005460    5.5365670    2.1082200  
H     1.4793910    7.2011460    1.3414950  
C     0.0150430    1.8240010   -0.1027410  
C     1.2174820    1.1555980   -0.1637820  
C     0.8989590   -0.2434610   -0.1432430  
C    -0.5916550   -0.2790820   -0.0439530  
N    -1.0929050    0.9178330   -0.0244130  
C    -1.3390670   -1.5356980    0.0457550  
C    -0.5540280   -2.6643920    0.0944070  
O    -1.0726060   -3.9177940    0.1763460  
C     0.9171480   -2.6715580   -0.0154760  
O     1.4732710   -3.7762210   -0.0550190  
C     1.6592200   -1.3839780   -0.1268660  
H     2.2037450    1.5833050   -0.2530300  
H    -0.2813210   -4.5061050    0.1376590  
C     3.1082540   -1.3897330   -0.2182380  
C     3.8926770   -0.5767560   -0.9947490  
C     5.2564520   -0.9799840   -0.7306880  
C     5.1224140   -2.0758380    0.2814500  
N     3.8792550   -2.3174240    0.5726460  
C     6.2801610   -2.7371990    0.8296420  
C     7.4977630   -2.3497310    0.3827300  
O     8.6582850   -2.8802220    0.7968740  
C     7.6619800   -1.2584510   -0.6472490  
O     8.8093050   -0.9707330   -0.9891750  
C     6.4691270   -0.5883720   -1.1846970  
H     3.5652880    0.1610280   -1.7135200  
H     6.1575850   -3.5242400    1.5652080  
H     9.3555060   -2.3998500    0.2969870  
H     6.6276640    0.1966220   -1.9179480  
C    -2.7810130   -1.5469680    0.0643360  
C    -3.6901420   -0.4987000   -0.0912810  
C    -4.9928090   -1.0509850   -0.0214150  
C    -4.8470290   -2.4566240    0.1808250  
N    -3.5056130   -2.7271920    0.2296750  
C    -5.9457540   -3.3177060    0.2947230  
C    -7.2081610   -2.7537190    0.2017240  
O    -8.3134960   -3.5414260    0.3029840  
C    -7.3734380   -1.3501570   -0.0010720  
O    -8.6965950   -0.9577170   -0.0699930  
C    -6.2939110   -0.5028840   -0.1116970  
H    -3.4152220    0.5327110   -0.2466410  
H    -3.0708320   -3.6330880    0.3258240  
H    -5.8448620   -4.3870700    0.4474410  
H    -9.0899780   -2.9626310    0.2061500  
H    -8.7420120   -0.0039520   -0.2334790  
H    -6.4372510    0.5642450   -0.2672100  
