58


C    -3.8127280    0.3490160    0.0184340  
C    -2.4279370    0.3731030    0.0285740  
C    -2.0034060    1.7237310   -0.1743120  
C    -3.2418540    2.5290550   -0.2802610  
N    -4.2905060    1.6393190   -0.1850040  
C    -3.2723780    3.8789450   -0.4209220  
C    -2.0037620    4.5965980   -0.4727770  
O    -1.9280330    5.8117930   -0.5640740  
C    -0.6722910    3.7637490   -0.4259090  
O     0.3851670    4.3435470   -0.6045770  
C    -0.7530960    2.2965980   -0.2370230  
H    -1.7689190   -0.4453080    0.2688710  
H    -4.1923960    4.4521740   -0.4752430  
H    -5.2756660    1.8548410   -0.0857090  
C    -3.1758360   -3.9936690   -0.3813530  
C    -4.3974130   -4.4328310    0.0037350  
C    -5.2039710   -3.2624980    0.2847270  
C    -4.3314350   -2.0889220    0.0464720  
N    -3.1182540   -2.5960570   -0.3357240  
C    -4.7191880   -0.7681570    0.1885200  
C    -6.1443070   -0.5475990    0.4950880  
O    -6.6730680    0.5575200    0.4983870  
C    -7.0558410   -1.7813380    0.8327800  
O    -8.2006240   -1.5728160    1.1951240  
C    -6.4963110   -3.1229320    0.6821370  
H    -4.7193240   -5.4606910    0.0832510  
H    -7.1453550   -3.9686990    0.8859460  
H    -2.3005240   -4.5529990   -0.6826110  
H    -2.3694860   -2.0395620   -0.7247980  
C     0.8405650   -1.2291020   -2.4380380  
C     0.0815490   -0.1903640   -2.0054930  
C     0.8097230    0.4497130   -0.9275840  
C     2.0816240   -0.3011300   -0.7856500  
N     2.0439150   -1.2879350   -1.7460970  
C     3.1225600    0.0034480    0.0808920  
C     2.8738370    1.1767480    0.9208840  
O     3.7058020    1.6826100    1.6730560  
C     1.4713740    1.8805250    0.9049400  
O     1.2192960    2.6529330    1.8089210  
C     0.4947950    1.5347130   -0.1520040  
H    -0.8617980    0.1375920   -2.4142320  
H     0.6466270   -1.9420930   -3.2289820  
H     2.5803670   -2.1393490   -1.6129640  
C     7.3654490    1.2995980    0.5044600  
C     7.9857450    0.0958470    0.4406260  
C     6.9514650   -0.9047680    0.3063630  
C     5.6553810   -0.1659020    0.2833330  
N     5.9854290    1.1640270    0.3684560  
C     4.4030860   -0.7443490    0.1457370  
C     4.4176950   -2.2117170    0.0637850  
O     3.4061380   -2.8976090   -0.0796750  
C     5.7777100   -3.0075950    0.1237910  
O     5.7261100   -4.2257170    0.0642660  
C     7.0183190   -2.2583840    0.2211100  
H     9.0487520   -0.0913200    0.4810630  
H     7.9539110   -2.8082020    0.2381560  
H     7.7902620    2.2874280    0.6254510  
H     5.3084230    1.8218420    0.7485850  
