60


C     0.1149830    1.9002840    0.3414660  
C     1.3967510    1.4266000    0.1905830  
C     1.2917890    0.0309760   -0.1500730  
C    -0.0910540   -0.2703360   -0.2168020  
N    -0.7888120    0.8846160    0.0911880  
C    -0.6114110   -1.5280300   -0.5761350  
C     0.3461610   -2.4938840   -0.8908230  
O    -0.0447420   -3.7339930   -1.2771740  
C     1.7414230   -2.2223630   -0.8415220  
O     2.5148120   -3.3006660   -1.1829540  
C     2.2518040   -0.9830550   -0.4438570  
H     2.2949480    2.0248720    0.2373290  
H    -1.7774370    0.9197000    0.2922310  
H     0.7791930   -4.2160870   -1.4903580  
H     3.2542760   -2.9624780   -1.7460520  
C     0.2550100    3.9665310    1.7083190  
C    -0.3698010    5.1610630    1.8301320  
C    -1.4434820    5.1895950    0.8577020  
C    -1.3806670    3.8953910    0.1346520  
N    -0.3302060    3.1761310    0.7056260  
C    -2.2074560    3.5523030   -0.8864900  
C    -3.2541340    4.4915980   -1.2824380  
O    -4.0523220    4.2525650   -2.1758270  
C    -3.3519590    5.8585680   -0.5150680  
O    -4.2239390    6.6531120   -0.8260960  
C    -2.3790880    6.1246970    0.5505980  
H    -0.1228170    5.9448320    2.5313890  
H    -2.1244280    2.6221020   -1.4365300  
H    -2.4419950    7.0806020    1.0616240  
H     1.0903020    3.5599970    2.2615910  
C     4.5232480    0.7411480    2.8933560  
C     5.7675120    0.7775680    2.3543250  
C     5.6734120    0.2152010    1.0225370  
C     4.2461320   -0.1455000    0.8241640  
N     3.6099300    0.1975480    1.9926830  
C     3.7045870   -0.7220890   -0.3034190  
C     4.6801360   -1.0993080   -1.3253250  
O     4.4140110   -1.8120900   -2.2948400  
C     6.1721250   -0.6150090   -1.2005390  
O     6.9183350   -0.7983730   -2.1472380  
C     6.5986360    0.0063290    0.0498640  
H     6.6668520    1.1389230    2.8309060  
H     7.6406830    0.2927710    0.1484380  
H     4.1877890    1.0542240    3.8732080  
H     2.6169350    0.0974320    2.1408290  
C    -2.9790140   -1.0641660   -1.3564130  
C    -2.0595600   -1.7860890   -0.6493510  
C    -2.8082740   -2.8425790    0.0317760  
C    -4.2309570   -2.6605370   -0.3454900  
N    -4.2638680   -1.5599520   -1.1806000  
C    -5.2496730   -3.4483550    0.0834760  
C    -4.9382770   -4.5494950    0.9896950  
O    -5.7850800   -5.3104840    1.4324120  
C    -3.4378410   -4.7505950    1.4171780  
O    -3.1584320   -5.6540970    2.1888640  
C    -2.4270090   -3.8359460    0.8734160  
H    -6.2846670   -3.2985720   -0.2081800  
H    -1.3929610   -3.9992550    1.1556600  
H    -2.8152270   -0.2212810   -2.0158640  
H    -5.0862020   -1.2170910   -1.6526400  
