60


C    -1.8931080   -1.1603830    2.7435080  
C    -0.7234600   -0.7655770    2.1497760  
C    -1.0729060    0.0553400    1.0238460  
C    -2.4900160    0.1240220    0.9974870  
N    -2.9629700   -0.6152440    2.0592380  
C    -3.1908270    0.8766780    0.0363580  
C    -2.4314060    1.5738770   -0.9013480  
O    -3.0580950    2.3172980   -1.8565530  
C    -1.0162270    1.5185760   -0.8784380  
O    -0.4416980    2.2440710   -1.9002660  
C    -0.3101880    0.7714420    0.0637810  
H     0.2724090   -1.0128880    2.4875870  
H    -3.9349600   -0.8225540    2.2311270  
H    -2.3624950    2.6975680   -2.4225160  
H     0.5234370    2.1480100   -1.8791330  
H    -2.0599250   -1.7853270    3.6091380  
C     1.9091420   -0.4377400    0.0728010  
C     1.1622740    0.7031810    0.0459260  
C     2.1099280    1.8124600    0.0233460  
C     3.4654010    1.2119170    0.0299840  
N     3.2817580   -0.1745670    0.0899800  
C     4.6115250    1.9285510   -0.0539240  
C     4.5211760    3.3895010   -0.1099840  
O     5.5054120    4.1057480   -0.1974960  
C     3.0993200    4.0481170   -0.0514260  
O     3.0055940    5.2649470   -0.0595970  
C     1.9328620    3.1620540   -0.0024890  
H     5.5981260    1.4845580   -0.0618440  
H     0.9511920    3.6243500    0.0167980  
H     1.5696040   -1.4622140    0.0700180  
C     3.5429660   -3.7327890   -2.3516950  
C     4.7238400   -4.2546450   -1.9513380  
C     5.2215430   -3.3419430   -0.9254210  
C     4.1650030   -2.2887650   -0.8415340  
N     3.1915740   -2.5190830   -1.6691710  
C     4.2803790   -1.1659880    0.0789920  
C     5.3752120   -1.1378120    0.8931640  
O     5.5923950   -0.1942600    1.8222560  
C     6.4483090   -2.1789410    0.8102820  
O     7.3986890   -2.0709920    1.5839810  
C     6.3200750   -3.2948380   -0.1490960  
H     5.2144190   -5.1505520   -2.3051270  
H     6.4535060   -0.4316190    2.2358550  
H     7.1212300   -4.0272040   -0.1662900  
H     2.8591040   -4.1140830   -3.0996570  
C    -5.3386560    2.1581270    0.0454320  
C    -6.6735760    1.9274880    0.0404260  
C    -6.8641890    0.4942050    0.0000280  
C    -5.5028120   -0.1010420   -0.0240110  
N    -4.6068500    0.9607580    0.0248940  
C    -5.2565620   -1.4370020   -0.0947610  
C    -6.3934030   -2.3537680   -0.1293490  
O    -6.2656260   -3.5675330   -0.1924200  
C    -7.8414780   -1.7441320   -0.0791150  
O    -8.8021040   -2.4981810   -0.0875510  
C    -7.9761320   -0.2865980   -0.0268210  
H    -7.4529890    2.6753650    0.0578910  
H    -4.2585880   -1.8565480   -0.1571460  
H    -8.9805280    0.1260170   -0.0166200  
H    -4.7987170    3.0938650    0.0601970  
