60


C     1.6600190   -0.8393180    0.0724870  
C     2.9489230   -0.4630330   -0.2113900  
C     2.9293420    0.9727420   -0.4233440  
C     1.5962900    1.4119720   -0.2595420  
N     0.8365230    0.2842040    0.0420970  
C     1.2011550    2.7443370   -0.4033150  
C     2.1883530    3.6635660   -0.7254750  
O     1.8680990    4.9780050   -0.8718660  
C     3.5351690    3.2460460   -0.9068980  
O     4.3927570    4.2744710   -1.2336130  
C     3.9118160    1.9229730   -0.7674030  
H     0.1748540    3.0704270   -0.2778650  
H     2.6874200    5.4545430   -1.0926500  
H     5.3020620    3.9433320   -1.2816010  
H     4.9462850    1.6263830   -0.9194860  
H     1.2454360   -1.8067060    0.3161320  
C    -1.0855710    0.3830250    1.5643730  
C    -2.4220730    0.1789930    1.4952460  
C    -2.7577080   -0.0992310    0.1096250  
C    -1.4871950   -0.0492490   -0.6455880  
N    -0.5074660    0.2809240    0.2898280  
C    -1.3401950   -0.3130860   -1.9662730  
C    -2.5354410   -0.6659570   -2.7233610  
O    -2.5160840   -0.9597350   -3.9078110  
C    -3.9159080   -0.6519860   -1.9740190  
O    -4.9344580   -0.7925800   -2.6242430  
C    -3.9409470   -0.4040040   -0.5048870  
H    -3.1164030    0.2142610    2.3210230  
H    -0.3824650   -0.2892160   -2.4745300  
H    -0.4476490    0.6066010    2.4085780  
C    -6.3753520    2.5095990    1.8461690  
C    -5.3981170    1.9117510    1.1157740  
C    -5.8111540    0.5441160    0.8778440  
C    -7.1338830    0.3967280    1.5350670  
N    -7.4059660    1.6189700    2.1208810  
C    -7.8940280   -0.7279110    1.5144980  
C    -7.3815050   -1.8910210    0.8029920  
O    -7.9963850   -2.9411510    0.7035450  
C    -5.9577890   -1.7883420    0.1480430  
O    -5.4593090   -2.7929960   -0.3260870  
C    -5.2367320   -0.4889480    0.1867040  
H    -4.4866310    2.3741880    0.7693390  
H    -8.8695620   -0.7992680    1.9854840  
H    -6.4324110    3.5267310    2.2109070  
H    -8.2710820    1.8533970    2.5819750  
C     4.1391230   -2.5460180   -1.0007810  
C     4.0942840   -1.3690310   -0.3114500  
C     5.3990150   -1.2228850    0.3294310  
C     6.1956260   -2.4147640   -0.0581650  
N     5.3649850   -3.1842520   -0.8474150  
C     7.4772950   -2.6417630    0.3272480  
C     8.1266780   -1.6613400    1.1920980  
O     9.2775590   -1.7756650    1.5852130  
C     7.2938730   -0.4031610    1.6364890  
O     7.8177820    0.4282830    2.3612940  
C     5.9154380   -0.2733410    1.1532840  
H     8.0431620   -3.5198150    0.0311670  
H     5.3485020    0.5951500    1.4723410  
H     3.3701110   -2.9932280   -1.6169960  
H     5.6393560   -4.0335200   -1.3159040  
