62


C    -2.4837080   -1.0575470    1.1639020  
C    -1.3387160   -0.3133030    1.0762430  
C    -1.5826230    0.7464420    0.1307020  
C    -2.9174790    0.5917230   -0.3183230  
N    -3.4571300   -0.5228650    0.3209380  
C    -3.5406970    1.4962380   -1.1833370  
C    -2.7918100    2.5890810   -1.5860100  
O    -3.3346750    3.5262410   -2.4058030  
C    -1.4436870    2.7677320   -1.1639180  
O    -0.8495560    3.8894180   -1.6822670  
C    -0.7976760    1.8422270   -0.3400990  
H    -0.4332020   -0.4894740    1.6395160  
H    -4.5624660    1.3799320   -1.5248810  
H    -2.6425410    4.2056880   -2.5228190  
H    -0.2938560    4.2816030   -0.9644960  
H    -2.6981510   -1.9523520    1.7313410  
C     2.3736990   -1.1605070   -0.5946840  
C     3.4328280   -0.4851350   -0.0631610  
C     2.9344630    0.8531630    0.2570920  
C     1.5014920    0.8763280   -0.1242770  
N     1.2334920   -0.3637600   -0.6457620  
C     0.6401720    1.9451210    0.0094520  
C     1.2676260    3.1832580    0.4554500  
O     0.7084400    4.2835230    0.4373550  
C     2.7563910    3.1637800    0.9640300  
O     3.2039960    4.1768970    1.4752470  
C     3.5424750    1.9452620    0.7832500  
H     4.5741690    1.9447490    1.1137220  
H     2.3297560   -2.1839040   -0.9441410  
H     0.3066080   -0.6768250   -0.8973080  
C     6.1473080   -2.3419960   -3.0030610  
C     7.2022320   -2.5813810   -2.1625660  
C     6.8246980   -2.1008480   -0.8630160  
C     5.5097590   -1.5809340   -0.9791190  
N     5.1163510   -1.7548040   -2.2909040  
C     4.8059850   -0.9959410    0.0962090  
C     5.4842570   -0.9482280    1.3156310  
O     4.8700740   -0.4135090    2.4138090  
C     6.7991990   -1.4633940    1.4480470  
O     7.3125190   -1.3389570    2.7265140  
C     7.4708790   -2.0395420    0.3870690  
H     8.1393080   -3.0473270   -2.4347370  
H     4.2735840   -1.3705960   -2.6893210  
H     5.5027890   -0.4735140    3.1509900  
H     8.2089030   -1.7045600    2.7526440  
H     8.4788260   -2.4282680    0.5174580  
H     6.0338490   -2.5498920   -4.0576810  
C    -6.6383230   -0.9483230    3.2125330  
C    -7.5655570   -1.5645900    2.4352320  
C    -6.9934990   -1.7111790    1.1120190  
C    -5.6371450   -1.1192990    1.1927870  
N    -5.4746990   -0.6915100    2.4910500  
C    -4.7582030   -1.0443680    0.1514570  
C    -5.1767000   -1.6074020   -1.1426660  
O    -4.4502300   -1.6379130   -2.1203980  
C    -6.6299700   -2.2092270   -1.2483960  
O    -7.0023000   -2.6329360   -2.3304460  
C    -7.4700060   -2.2322900   -0.0504470  
H    -8.5498540   -1.8859030    2.7427220  
H    -8.4616900   -2.6647740   -0.1381920  
H    -6.6967120   -0.6598610    4.2536440  
H    -4.6675420   -0.1857750    2.8240530  
