62


C    -0.5337410    1.5203620    0.5243080  
C     0.8208660    1.5139680    0.3003040  
C     1.1942770    0.1479860    0.0738690  
C     0.0127820   -0.6313190    0.1533240  
N    -1.0281240    0.2279680    0.4421960  
C    -0.0094150   -2.0318530   -0.0223250  
C     1.2210280   -2.6306260   -0.3031740  
O     1.2819310   -3.9681170   -0.5317300  
C     2.4098490   -1.8630730   -0.3985150  
O     3.5289640   -2.6139190   -0.6790770  
C     2.4324380   -0.4803080   -0.2158290  
H     1.4691960    2.3772820    0.2779080  
H    -1.9862290   -0.0434340    0.6043510  
H     2.2223100   -4.2035550   -0.6252630  
H     4.3174390   -2.0536280   -0.5698550  
C     4.7914680    1.9486350    2.7666450  
C     3.8435820    1.1644050    2.1615870  
C     4.2521980    0.9869150    0.7964450  
C     5.4734510    1.6934850    0.6335160  
N     5.7747840    2.2713130    1.8495870  
C     6.1781370    1.7294180   -0.5761740  
C     5.6379320    1.0382170   -1.6481510  
O     6.2727320    1.0484800   -2.8551770  
C     4.4214050    0.3189770   -1.5088490  
O     4.0102120   -0.3072990   -2.6674820  
C     3.7122610    0.2740430   -0.3067870  
H     2.9603060    0.7557480    2.6307060  
H     6.5918860    2.8291160    2.0419380  
H     7.1085620    2.2736340   -0.7022310  
H     5.7141160    0.5514660   -3.4780940  
H     3.0983710   -0.6236840   -2.5500460  
H     4.8530760    2.3073290    3.7844540  
C    -1.0591720    3.6090080    1.7489190  
C    -2.0275090    4.5544510    1.8005180  
C    -3.0680800    4.1614100    0.8733230  
C    -2.6132350    2.8906760    0.2561950  
N    -1.3806230    2.5894500    0.8395330  
C    -3.3066650    2.2138640   -0.6940490  
C    -4.5939320    2.7503950   -1.1321900  
O    -5.2811080    2.2051710   -1.9823190  
C    -5.1042990    4.0835310   -0.4763570  
O    -6.1812070    4.5416970   -0.8231100  
C    -4.2538110    4.7281500    0.5288770  
H    -2.0301710    5.4342390    2.4274640  
H    -2.9624830    1.2940340   -1.1522420  
H    -4.6070670    5.6574470    0.9654390  
H    -0.1297130    3.5341980    2.2968300  
C    -4.0839630   -1.8966690   -1.8756970  
C    -2.7774330   -1.6374830   -1.6196760  
C    -2.3958830   -2.5874360   -0.5781990  
C    -3.6425820   -3.3788700   -0.3437050  
N    -4.6230900   -2.9681800   -1.0980360  
C    -3.6876620   -4.4587550    0.6077500  
C    -2.5602360   -4.7271380    1.3044940  
O    -2.4576760   -5.6978820    2.2268190  
C    -1.3022010   -3.9127210    1.1368080  
O    -0.3742930   -4.1588690    1.8993160  
C    -1.2479860   -2.8220330    0.1097760  
H    -2.1352440   -0.9124580   -2.0989330  
H    -4.6031670   -5.0227190    0.7472440  
H    -1.5483160   -5.6173500    2.5898470  
H    -4.7331550   -1.3932810   -2.5822920  
