64


C     0.4583910   -2.6343080    1.1788950  
C     0.9745200   -2.5712110    2.4503170  
C     2.0165410   -1.5833200    2.4270430  
C     2.0715040   -1.0648660    1.1089390  
N     1.0965250   -1.7090250    0.3659650  
C     2.9804750   -0.0743470    0.6950420  
C     3.8667940    0.3919140    1.6669330  
O     4.7762570    1.3575360    1.3495540  
C     3.8216770   -0.1087120    2.9934120  
O     4.7548800    0.4695810    3.8363820  
C     2.9141910   -1.0766480    3.3855340  
H     0.6200230   -3.1328040    3.3027900  
H     1.0431230   -1.6984870   -0.6420940  
H     5.3100350    1.5167630    2.1470880  
H     4.7052410    0.0485260    4.7070740  
H     2.9021120   -1.4370440    4.4122200  
C    -0.6524840   -4.8277220    1.0125570  
C    -1.7286750   -5.3742400    0.3746130  
C    -2.3185760   -4.3394400   -0.4284290  
C    -1.5482010   -3.1648070   -0.2312920  
N    -0.5185380   -3.4853170    0.6571950  
C    -1.8651420   -1.9471430   -0.8482410  
C    -2.9692000   -1.9217640   -1.6877720  
O    -3.3221030   -0.7582100   -2.3109830  
C    -3.7405840   -3.0913530   -1.9074470  
O    -4.8014670   -2.9091900   -2.7763890  
C    -3.4307040   -4.2888930   -1.2897550  
H    -2.0589610   -6.4008200    0.4555740  
H    -1.3021790   -1.0354750   -0.6863210  
H    -4.1287520   -0.9435900   -2.8218970  
H    -5.3384900   -3.7147740   -2.8007350  
H    -4.0405210   -5.1732110   -1.4649070  
H     0.0694670   -5.2686500    1.6839690  
C     0.0537670    2.5500410   -1.2822850  
C     0.6393850    2.5718980   -2.5329210  
C     1.8248310    1.7723690   -2.4742440  
C     1.9141120    1.2667660   -1.1524490  
N     0.8149060    1.7276870   -0.4552990  
C     2.9643470    0.4474860   -0.6968960  
C     3.9545240    0.1439570   -1.6304710  
O     5.0018410   -0.6515300   -1.2755790  
C     3.8776780    0.6334530   -2.9626560  
O     4.9313600    0.2264580   -3.7615300  
C     2.8346960    1.4295800   -3.3959020  
H     0.2358660    3.0693220   -3.4047130  
H     0.7376120    1.6922300    0.5504920  
H     5.5825540   -0.7224440   -2.0528460  
H     4.8394680    0.6212660   -4.6410350  
H     2.8034730    1.7868390   -4.4233770  
C    -1.6066840    4.4276550   -1.2843520  
C    -1.1269580    3.2438440   -0.7992880  
C    -2.0456340    2.8370000    0.2664940  
C    -3.0896340    3.8922480    0.3438060  
N    -2.7775170    4.8078020   -0.6383960  
C    -4.1223850    3.8964270    1.2253800  
C    -4.2387950    2.7894990    2.1664240  
O    -5.1293350    2.7086430    2.9994700  
C    -3.1600790    1.6493850    2.0932470  
O    -3.2341160    0.7130040    2.8718610  
C    -2.0910930    1.7583470    1.0912760  
H    -4.8715700    4.6816410    1.2595760  
H    -1.3755400    0.9440780    1.0483650  
H    -1.1896140    5.0528500   -2.0620930  
H    -3.2651400    5.6768760   -0.7887330  
