58


C    -3.8751490    1.5614990   -1.6599270  
C    -5.1170690    2.0950740   -1.6398040  
C    -5.8971240    1.3608740   -0.6672890  
C    -4.9993750    0.3209360   -0.1113620  
N    -3.7611240    0.4727830   -0.7735710  
C    -5.3524290   -0.5150410    0.8907830  
C    -6.7190160   -0.4332490    1.4228830  
O    -7.1102790   -1.1555990    2.3235080  
C    -7.6982470    0.6242340    0.8069220  
O    -8.8417290    0.6930570    1.2249090  
C    -7.1786530    1.5046790   -0.2438860  
H    -5.4700120    2.9096100   -2.2561700  
H    -4.6986690   -1.2656440    1.3158020  
H    -7.8429360    2.2665680   -0.6399440  
H    -3.0222750    1.8230570   -2.2699830  
C     0.4414610    1.7066000   -0.2858430  
C    -0.9220880    1.7527580   -0.4342960  
C    -1.3447420    0.3819140   -0.4946380  
C    -0.0909050   -0.4146910   -0.3784770  
N     0.9420810    0.3718230   -0.2502300  
C    -0.0701540   -1.8795880   -0.3654140  
C    -1.3054930   -2.4818320   -0.4521540  
O    -1.5106900   -3.7950680   -0.4953430  
C    -2.5907750   -1.7059570   -0.5787010  
O    -3.6215270   -2.3581080   -0.7351250  
C    -2.5705990   -0.2231960   -0.5666700  
H    -1.5520730    2.6302950   -0.4405150  
H    -2.4837820   -3.9072690   -0.6020760  
C     1.3851020    2.7800610   -0.1377400  
C     1.2063640    4.1455230   -0.1880140  
C     2.4850260    4.7614170    0.0296020  
C     3.4558830    3.6509820    0.2193800  
N     2.7273270    2.4884030    0.0972480  
C     4.7797590    3.8273700    0.4604040  
C     5.2989700    5.1901500    0.5347230  
O     6.4747070    5.4452160    0.7449700  
C     4.2915660    6.3804790    0.3305430  
O     4.7072770    7.5277530    0.3864130  
C     2.8833150    6.0648750    0.0801950  
H     0.2731430    4.6594920   -0.3679970  
H     5.4755310    3.0058640    0.5993700  
H     2.1962440    6.8946050   -0.0557850  
H     3.0630370    1.5436680    0.2118630  
C     1.1776010   -2.6135870   -0.2636000  
C     2.4499510   -2.1657280   -0.5135300  
C     3.3181490   -3.2953670   -0.2733860  
C     2.3877890   -4.3917930    0.1452660  
N     1.1508900   -3.9973110    0.1481450  
C     2.8751540   -5.7026540    0.4925560  
C     4.2097430   -5.9171240    0.4163760  
O     4.8040460   -7.0833270    0.7031550  
C     5.1720970   -4.8329050   -0.0112920  
O     6.3670470   -5.1229580   -0.0502400  
C     4.6529080   -3.5008240   -0.3529050  
H     2.7414960   -1.1782370   -0.8307330  
H     2.1812160   -6.4781910    0.7966450  
H     5.7642870   -6.9297910    0.5561230  
H     5.3756380   -2.7469640   -0.6499630  
