62


C     0.8304450    1.9352090    0.1633780  
C     1.5805460    0.7747780    0.1419230  
C     2.9179010    1.1209840   -0.2120430  
C     2.9443990    2.5382340   -0.3596860  
N     1.6694200    2.9998000   -0.1344630  
C     4.1029030    3.2468170   -0.6857530  
C     5.2592960    2.5061830   -0.8889170  
O     6.4160740    3.1397610   -1.2407550  
C     5.2494090    1.0991790   -0.7501590  
O     6.4993540    0.4999550   -0.9730560  
C     4.1083910    0.3685710   -0.4048410  
H     1.2140430   -0.2091990    0.3832240  
H     1.3786790    3.9638190   -0.0643270  
H     4.1229710    4.3247450   -0.8067930  
H     7.0766830    2.4425250   -1.3992800  
H     6.3668930   -0.2946970   -1.5171880  
C    -2.4339610   -0.8313130   -0.7512960  
C    -3.4944640   -0.0878810   -0.2560820  
C    -2.9139470    1.1515230    0.2287750  
C    -1.5152740    1.0659030    0.0222780  
N    -1.2554120   -0.1526080   -0.5747020  
C    -0.6058340    2.0946970    0.3689900  
C    -1.1825360    3.2573420    0.8855670  
O    -0.3927050    4.3380110    1.1896170  
C    -2.5765790    3.3544430    1.1063670  
O    -2.9670700    4.5673260    1.6453390  
C    -3.4424690    2.3216250    0.8075610  
H    -0.3664670   -0.4164280   -0.9795220  
H    -0.9895120    5.0372980    1.5117330  
H    -3.9319610    4.6429350    1.5983970  
H    -4.5100400    2.4360340    0.9563630  
H    -2.4432750   -1.7768950   -1.2753490  
C    -5.1809840   -4.0267210    0.6252510  
C    -6.5000290   -3.7751350    0.4109650  
C    -6.6179360   -2.3841110    0.0332890  
C    -5.2425170   -1.8395660    0.0357580  
N    -4.4136170   -2.9000170    0.3697850  
C    -4.8881060   -0.5413810   -0.2305910  
C    -6.0143030    0.3675030   -0.5376000  
O    -5.8663080    1.5542700   -0.7849450  
C    -7.4889650   -0.1992960   -0.5591850  
O    -8.3962860    0.5833780   -0.8045470  
C    -7.6969560   -1.6075300   -0.2698140  
H    -7.3124980   -4.4810830    0.5038200  
H    -8.7126770   -1.9899290   -0.2842640  
H    -4.6989750   -4.9453890    0.9334740  
H    -3.4427710   -2.7800940    0.6197960  
C     6.8694370   -2.3156740    1.7782820  
C     6.2277500   -3.5002590    1.6072270  
C     5.0543960   -3.2386970    0.8037490  
C     5.0671290   -1.7803310    0.5179350  
N     6.1735800   -1.2732550    1.1755060  
C     4.1273000   -1.1011910   -0.2209290  
C     3.0644870   -1.9476570   -0.8136950  
O     2.2304620   -1.5257700   -1.6000240  
C     2.9814800   -3.4747530   -0.4299820  
O     2.0072300   -4.1079780   -0.8108620  
C     4.0554800   -4.0512840    0.3627710  
H     6.5245230   -4.4590190    2.0067980  
H     4.0091650   -5.1097700    0.5991670  
H     7.7863520   -2.1045090    2.3131890  
H     6.5897310   -0.3906730    0.9047860  
