60


C     0.8778270   -0.2684540   -1.5217190  
C     0.1899960    0.4517560   -0.5731020  
C     1.1591690    1.0631290    0.3005420  
C     2.4285170    0.6640590   -0.1838780  
N     2.2283480   -0.1378330   -1.2883340  
C     3.6271060    1.0801490    0.4297180  
C     3.5210320    1.9213510    1.5361450  
O     4.6484620    2.3660720    2.1543400  
C     2.2483160    2.3340040    2.0128160  
O     2.3255110    3.1636990    3.1088570  
C     1.0737180    1.9133810    1.4201480  
H     2.9546850   -0.6383440   -1.7782290  
H     4.3673950    2.9408800    2.8887190  
H     1.4412050    3.4749340    3.3542280  
H     0.1109440    2.2453070    1.7984900  
H     0.5046650   -0.8561070   -2.3478000  
C    -2.0638000   -0.5588730   -0.2825530  
C    -3.3819760   -0.1986930   -0.2532470  
C    -3.4038880    1.2590060   -0.4195700  
C    -1.9893880    1.6840790   -0.5493720  
N    -1.2150420    0.5297220   -0.4598790  
C    -1.5762730    2.9649120   -0.7286350  
C    -2.5830630    4.0201490   -0.7548770  
O    -2.3075780    5.2029720   -0.8924220  
C    -4.0859540    3.6015780   -0.5787490  
O    -4.9440000    4.4691330   -0.5608980  
C    -4.4045910    2.1747700   -0.4338670  
H    -0.5336750    3.2393880   -0.8443800  
H    -5.4509970    1.9035720   -0.3646210  
H    -1.6309790   -1.5472970   -0.2066710  
C    -3.9903370   -3.6242120    2.5080990  
C    -3.5095400   -2.5226950    1.8740320  
C    -4.4735140   -2.1463780    0.8602400  
C    -5.5760160   -3.1314530    0.9655540  
N    -5.2101880   -4.0096770    1.9671100  
C    -6.7092930   -3.1245190    0.2152020  
C    -6.8653860   -2.0690030   -0.7691920  
O    -7.8547550   -1.9406480   -1.4742760  
C    -5.6947000   -1.0290370   -0.9375220  
O    -5.8021860   -0.1838140   -1.8095150  
C    -4.5004650   -1.1230950   -0.0583020  
H    -2.5885500   -2.0104080    2.1057210  
H    -7.5032370   -3.8568180    0.3227690  
H    -3.5610010   -4.1874110    3.3260070  
H    -5.7828250   -4.7693200    2.3002190  
C     5.9240620    1.5785640   -0.4330680  
C     7.0187680    0.9156280   -0.8757690  
C     6.7309820   -0.5001540   -0.7933170  
C     5.3526040   -0.6085720   -0.2500880  
N     4.8978230    0.6925000   -0.0658620  
C     4.7232420   -1.7869860    0.0047390  
C     5.4294270   -3.0317140   -0.2893300  
O     4.9394540   -4.1338790   -0.0941150  
C     6.8802640   -2.9381210   -0.8866390  
O     7.4777110   -3.9683950   -1.1546800  
C     7.4580230   -1.6074640   -1.0955220  
H     7.9399320    1.3606640   -1.2229010  
H     3.7344710   -1.8519750    0.4453840  
H     8.4692800   -1.5542480   -1.4874250  
H     5.7519330    2.6405410   -0.3325910  
