64


C     3.0609490    0.4937780   -0.7111390  
C     1.7260410    0.8076940   -0.7940800  
C     1.5287660    2.0152090   -0.0332230  
C     2.7964430    2.3824750    0.4909710  
N     3.7100350    1.4266630    0.0817270  
C     3.0045190    3.5318130    1.2581460  
C     1.9018130    4.3427680    1.4761830  
O     2.0287920    5.4959300    2.1875200  
C     0.6179550    3.9963480    0.9755090  
O    -0.3722470    4.8931310    1.3187240  
C     0.3921770    2.8256600    0.2465000  
H     0.9840530    0.2431060   -1.3391440  
H     4.7132940    1.5028240    0.1567480  
H     3.9756470    3.8135230    1.6515480  
H     1.1393380    5.8991650    2.1876750  
H    -0.9156690    5.0597960    0.5182770  
C     3.6233410   -0.9413820   -2.6451720  
C     4.4464840   -1.9983740   -2.9106160  
C     5.1629530   -2.2965430   -1.7011100  
C     4.7213340   -1.3770990   -0.7163500  
N     3.7768540   -0.5418320   -1.3170230  
C     5.1900550   -1.4033480    0.6038610  
C     6.1390960   -2.3618520    0.9275610  
O     6.6294350   -2.4274380    2.2005270  
C     6.6052880   -3.2788920   -0.0497250  
O     7.5515800   -4.1680610    0.4244220  
C     6.1280850   -3.2590550   -1.3476050  
H     4.5419710   -2.5022640   -3.8626770  
H     4.8344770   -0.7246870    1.3709410  
H     7.2705710   -3.1585490    2.2236940  
H     7.8168830   -4.7679710   -0.2881560  
H     6.4907870   -3.9792510   -2.0785420  
H     2.9399580   -0.3999800   -3.2828740  
C    -1.7344360   -0.9832180    0.8237740  
C    -2.9325450   -0.6679060    0.2008920  
C    -2.7787820    0.6900190   -0.2857550  
C    -1.4799850    1.1232390    0.0820020  
N    -0.8766460    0.0843620    0.7635270  
C    -0.9712740    2.4184460   -0.1777920  
C    -1.8645690    3.2720370   -0.8206170  
O    -1.4886900    4.5696950   -1.1090420  
C    -3.1667510    2.8645190   -1.1964280  
O    -3.8944110    3.8555950   -1.8304010  
C    -3.6361410    1.5930460   -0.9423250  
H     0.0955390    0.0758170    1.0363210  
H    -2.2307400    4.9765120   -1.5938890  
H    -4.6905500    3.4689920   -2.2249560  
H    -4.6262240    1.2910110   -1.2646640  
H    -1.4122680   -1.9214680    1.2539210  
C    -4.6600070   -3.3713250    3.1778330  
C    -5.6562080   -3.9307430    2.4412030  
C    -5.6059130   -3.3349850    1.1239280  
C    -4.4786990   -2.3777590    1.1494770  
N    -3.9193150   -2.4787100    2.4151530  
C    -4.0937840   -1.5580720    0.1201150  
C    -4.9116370   -1.6621110   -1.1085140  
O    -4.7103100   -0.9821290   -2.1025530  
C    -6.1034920   -2.6972810   -1.1634320  
O    -6.7592690   -2.7576340   -2.1938080  
C    -6.3750600   -3.5082220    0.0117920  
H    -6.3579420   -4.6815860    2.7742980  
H    -7.2001880   -4.2121530   -0.0303170  
H    -4.3898480   -3.5470260    4.2110300  
H    -3.2707410   -1.7952080    2.7788060  
