58


C     1.4308880    5.1632830   -0.7572660  
C     2.7527620    5.2107370   -1.0272650  
C     3.2736760    3.8628010   -0.9376900  
C     2.1243580    2.9894540   -0.6021880  
N     1.0004570    3.8485650   -0.4900380  
C     2.2274470    1.6487930   -0.4483510  
C     3.5542810    1.0299280   -0.5698510  
O     3.7323400   -0.1628150   -0.3824630  
C     4.7782910    1.9392020   -0.9247970  
O     5.8859190    1.4415770   -1.0325370  
C     4.5284820    3.3743700   -1.1008300  
H     3.3207190    6.0974940   -1.2707060  
H     1.3821620    1.0120290   -0.2341130  
H     5.3745240    4.0077910   -1.3490790  
H     0.7092830    5.9662730   -0.7355860  
C    -0.2852010    3.5446090   -0.1124680  
C    -1.3336980    4.4024030    0.1422730  
C    -2.4272420    3.5535330    0.5047470  
C    -1.8647390    2.1647880    0.4109970  
N    -0.6138460    2.1750290    0.0554270  
C    -2.6581650    0.9849130    0.6884960  
C    -3.9395960    1.1993260    1.1028400  
O    -4.7925610    0.2268500    1.4255690  
C    -4.5301970    2.5906900    1.2111940  
O    -5.7019030    2.6438390    1.5943410  
C    -3.7169520    3.7530970    0.8888600  
H    -1.3500240    5.4810960    0.1070410  
H    -5.6290390    0.6966020    1.6633020  
H    -4.1809190    4.7296180    0.9779090  
C    -0.8013530   -0.6452060    0.8743910  
C    -0.3847110   -1.8137200    0.3104950  
C    -1.4911050   -2.2801470   -0.5268730  
C    -2.5703760   -1.2732480   -0.4005990  
N    -2.0989320   -0.2934780    0.4839280  
C    -3.7497240   -1.3290810   -1.0655580  
C    -4.0032400   -2.4763860   -1.9361140  
O    -5.0384300   -2.6084660   -2.5704450  
C    -2.8961470   -3.5826210   -2.0405170  
O    -3.1053370   -4.5689620   -2.7275430  
C    -1.6437970   -3.3823010   -1.3013830  
H    -4.5285210   -0.5835160   -0.9714760  
H    -0.8604960   -4.1200460   -1.4301230  
H    -0.2560230    0.0149680    1.5326910  
C     1.8742670   -2.7656770    3.9624130  
C     3.0254540   -3.2191780    3.4076270  
C     2.8666780   -3.1566490    1.9675600  
C     1.5081870   -2.6172130    1.7277970  
N     0.9724750   -2.3619930    2.9775980  
C     0.9355100   -2.4294650    0.4999070  
C     1.7617660   -2.7871780   -0.6719460  
O     1.3737290   -2.6457450   -1.8197350  
C     3.2003960   -3.3746360   -0.4344530  
O     3.8482810   -3.7336650   -1.4029980  
C     3.6861440   -3.4992740    0.9396060  
H     3.9029720   -3.5619810    3.9362620  
H     4.6869450   -3.8920960    1.0885470  
H     1.6042960   -2.6704610    5.0059350  
H    -0.0073230   -2.1752220    3.1311420  
