60


C    -0.8900020   -1.5824660   -0.9496250  
C     0.4888340   -1.6301200   -1.0045680  
C     0.9756490   -0.3086910   -0.7496140  
C    -0.1622480    0.5200600   -0.5617100  
N    -1.2760870   -0.2681970   -0.7251020  
C    -0.0857300    1.9019930   -0.2657580  
C     1.2122840    2.3873960   -0.0515600  
O     1.4039330    3.6691830    0.3549940  
C     2.3610320    1.5740240   -0.2417450  
O     3.5409290    2.2700760   -0.0604440  
C     2.2800520    0.2351490   -0.6105500  
H     1.0802230   -2.5247070   -1.1413370  
H    -2.1782450    0.0273570   -0.3672560  
H     2.3660040    3.8034320    0.4257440  
H     4.2967550    1.6623060   -0.0538100  
C    -1.8362820   -3.7331860   -1.8853520  
C    -1.8750230   -2.6479670   -1.0584810  
C    -3.0972310   -2.7832870   -0.2664490  
C    -3.7622120   -4.0288980   -0.7222340  
N    -2.9298110   -4.5712010   -1.6793410  
C    -4.9460140   -4.4862790   -0.2384490  
C    -5.6156360   -3.7160830    0.8052830  
O    -6.6815880   -4.0466470    1.3019940  
C    -4.9196860   -2.3986740    1.3082950  
O    -5.4833780   -1.7135470    2.1504520  
C    -3.6264950   -2.0279510    0.7306160  
H    -5.4161150   -5.4037600   -0.5788890  
H    -3.1407450   -1.1380480    1.1168060  
H    -1.0966170   -3.9848330   -2.6334090  
H    -3.1464210   -5.3841970   -2.2343660  
C     3.7398590   -1.3397470   -1.9552650  
C     3.4843820   -0.5800600   -0.8487310  
C     4.6357570   -0.7565940    0.0343680  
C     5.5763780   -1.6649520   -0.6705530  
N     4.9625740   -1.9910440   -1.8638740  
C     6.7760630   -2.0630070   -0.1786100  
C     7.1840780   -1.5792860    1.1386300  
O     8.2505980   -1.8739730    1.6543820  
C     6.1921460   -0.6434030    1.9204330  
O     6.5022640   -0.2490860    3.0325140  
C     4.9239720   -0.2781330    1.2771330  
H     7.4483180   -2.7292710   -0.7106860  
H     4.2382230    0.3470620    1.8412280  
H     3.1235010   -1.4642000   -2.8356880  
H     5.3691200   -2.5696510   -2.5821110  
C    -4.1266900    1.5979240    1.6415680  
C    -4.5880770    2.8571820    1.4826340  
C    -3.5670210    3.5502690    0.7083330  
C    -2.4819570    2.5262350    0.5125950  
N    -2.8367600    1.3892050    1.0445610  
C    -1.2469280    2.8219970   -0.2059120  
C    -1.2325580    4.0354120   -0.8432970  
O    -0.2536330    4.4370210   -1.6605290  
C    -2.3197830    5.0651040   -0.6894430  
O    -2.1822150    6.1287900   -1.2931040  
C    -3.4943690    4.7695640    0.1442340  
H    -5.5263030    3.2724620    1.8227260  
H    -0.5067930    5.3465040   -1.9383690  
H    -4.2575770    5.5368280    0.2291710  
H    -4.6072880    0.7557050    2.1271920  
