58


C     5.5357760   -2.3583590   -2.3084450  
C     6.6234800   -2.7348000   -1.5890590  
C     6.7551410   -1.8031210   -0.4877770  
C     5.6332570   -0.8435240   -0.6223790  
N     4.9227860   -1.2478210   -1.7357510  
C     5.4156510    0.2348070    0.1924670  
C     6.3523940    0.4008620    1.3308390  
O     6.1841480    1.2360500    2.1998720  
C     7.5653040   -0.5888470    1.4650730  
O     8.3683210   -0.4115700    2.3668370  
C     7.6747030   -1.6887250    0.5082800  
H     7.2776210   -3.5679830   -1.8004470  
H     8.5131920   -2.3702440    0.6140560  
H     5.1203400   -2.7955500   -3.2068240  
H     4.1514300   -0.7341530   -2.1329930  
C     0.9580490   -0.1399350   -0.0629180  
C     2.3094330   -0.3853080    0.0577600  
C     2.9949590    0.8711580   -0.0577470  
C     1.9419870    1.9002820   -0.2479480  
N     0.7444270    1.2187810   -0.2701780  
C     2.1695640    3.2358440   -0.3433160  
C     3.5436570    3.7084620   -0.2616700  
O     3.8518710    4.8896860   -0.2939890  
C     4.6890080    2.6403660   -0.1484350  
O     5.8433710    3.0074470   -0.2657350  
C     4.3294620    1.2035320    0.0151720  
H     2.7639070   -1.3486980    0.2345730  
H     1.3763480    3.9684360   -0.4532350  
H    -0.1814570    1.6197670   -0.3136920  
C    -0.1673960   -1.0319450    0.0055230  
C    -0.2153590   -2.3744790    0.2592180  
C    -1.6149750   -2.7224030    0.2228320  
C    -2.3208950   -1.4358450   -0.0840270  
N    -1.4703300   -0.4600990   -0.2023690  
C    -3.7791350   -1.3456640   -0.2015400  
C    -4.4434250   -2.5291560   -0.0099870  
O    -5.7786910   -2.6590820   -0.1109560  
C    -3.7612200   -3.8244770    0.3022330  
O    -4.4752090   -4.8219370    0.4373370  
C    -2.2992930   -3.8714400    0.4163530  
H     0.6073230   -3.0437540    0.4685950  
H    -5.9520820   -3.6143690    0.0596280  
H    -1.8431750   -4.8285880    0.6485180  
C    -3.8687040    0.9480550   -1.2583860  
C    -4.4119590   -0.0720450   -0.5210280  
C    -5.7336990    0.4548520   -0.1135980  
C    -5.7876780    1.8139410   -0.7350110  
N    -4.6974680    2.0810830   -1.4040990  
C    -6.9177130    2.6866890   -0.5746890  
C    -7.9468180    2.2547700    0.1934040  
O    -9.0580960    2.9623750    0.4380110  
C    -7.9128640    0.9061230    0.8596840  
O    -8.8782260    0.5859920    1.5494180  
C    -6.7427210    0.0228620    0.6671160  
H    -6.9190390    3.6602000   -1.0520460  
H    -9.6084160    2.3957490    1.0227360  
H    -6.7747420   -0.9452780    1.1499550  
H    -2.8948830    0.9539600   -1.7263660  
