60


C     0.6690770   -0.5357320    0.3712520  
C     1.3971450   -1.7054950    0.2111390  
C     2.8035340   -1.2893010    0.2690600  
C     2.8128150    0.1123020    0.4953640  
N     1.4883640    0.5484200    0.5458780  
C     3.9771370    0.8725920    0.6380810  
C     5.1908140    0.2157670    0.5088210  
O     6.3592220    0.9047540    0.6359090  
C     5.2139910   -1.1735760    0.2407140  
O     6.4864790   -1.6987290    0.1176930  
C     4.0558330   -1.9201050    0.1192870  
H     3.9570960    1.9378090    0.8370680  
H     7.0837420    0.2685750    0.5061980  
H     6.4252710   -2.6534470   -0.0342050  
H     4.1175710   -2.9828400   -0.0733490  
H    -0.3948760   -0.4011370    0.3174450  
C    -2.8474780   -2.6775630   -0.5710330  
C    -2.7762410   -4.0196200   -0.8099100  
C    -1.3941180   -4.3802520   -0.6058040  
C    -0.7019250   -3.0901200   -0.2609940  
N    -1.5684880   -2.1195660   -0.2299250  
C     0.7511990   -3.0042790    0.0053130  
C     1.3623820   -4.2343760    0.0639910  
O     2.6554690   -4.4257140    0.4060350  
C     0.6886900   -5.5269430   -0.2462090  
O     1.3703930   -6.5578970   -0.1742560  
C    -0.7304110   -5.5531660   -0.6090540  
H    -3.5823460   -4.7018270   -1.0428550  
H     2.7747990   -5.4032220    0.3461920  
H    -1.1777030   -6.5165980   -0.8323780  
C    -5.1501710   -2.0037760   -1.3274020  
C    -3.9854540   -1.7859390   -0.6335860  
C    -4.1325690   -0.4762810    0.0025930  
C    -5.4683280    0.0339360   -0.3938100  
N    -6.0318970   -0.9527780   -1.1850210  
C    -5.9815670    1.2323190   -0.0216610  
C    -5.1689310    2.0947820    0.8339420  
O    -5.5334980    3.1953100    1.2148790  
C    -3.7588740    1.5660860    1.2818220  
O    -3.0596370    2.2854980    1.9868120  
C    -3.3308210    0.2442450    0.8307690  
H    -6.9633580    1.5845750   -0.3220100  
H    -2.3660110   -0.1258830    1.1511360  
H    -5.4144030   -2.8496160   -1.9483130  
H    -6.9187870   -0.8732460   -1.6591750  
C     0.0270420    2.1725660    1.6601200  
C     0.9948150    1.8498910    0.7552230  
C     1.2620550    3.0378510   -0.0417050  
C     0.3510350    4.0820700    0.4971590  
N    -0.3438780    3.5008620    1.5448230  
C     0.2599580    5.3415030    0.0016950  
C     1.1032940    5.7071880   -1.1335080  
O     1.0880860    6.8165850   -1.6444020  
C     2.0699710    4.6137290   -1.7197960  
O     2.7708110    4.8975040   -2.6781830  
C     2.0841580    3.2871270   -1.0942900  
H    -0.4122270    6.0915160    0.4068530  
H     2.7537330    2.5400130   -1.5070760  
H    -0.4545770    1.5421690    2.3927970  
H    -1.2235750    3.8415130    1.9100090  
