60


C     1.9422310   -0.4885430    0.1021940  
C     3.2673690   -0.1350670   -0.0493110  
C     3.2755010    1.2935470   -0.3147200  
C     1.9293290    1.7251450   -0.3403520  
N     1.1202480    0.6169650   -0.0634170  
C     1.5576330    3.0530050   -0.5728110  
C     2.5743330    3.9663690   -0.8014350  
O     2.2737480    5.2741290   -1.0323580  
C     3.9325510    3.5513920   -0.7894980  
O     4.8286980    4.5729680   -1.0257410  
C     4.2908390    2.2383270   -0.5541460  
H     0.5255490    3.3805320   -0.6026080  
H     3.1148850    5.7448040   -1.1656520  
H     5.7332320    4.2395530   -0.9275080  
H     5.3364290    1.9524660   -0.5129070  
H     1.5086620   -1.4567300    0.3079890  
C    -1.1313560   -0.6085020    3.4037530  
C    -2.3941060   -0.4564200    2.9183060  
C    -2.2769330    0.0517110    1.5704690  
C    -0.8306890    0.1832500    1.3089610  
N    -0.1901120   -0.2374840    2.4555130  
C    -0.2742470    0.6136370    0.1360380  
C    -1.1893660    0.9764310   -0.9537560  
O    -0.8163230    1.2768890   -2.0729840  
C    -2.7369200    0.9579710   -0.6611770  
O    -3.4881130    1.4282430   -1.4952810  
C    -3.2074230    0.4047200    0.6257790  
H    -3.3104440   -0.6916500    3.4381280  
H    -0.8080690   -0.9683600    4.3713450  
H     0.8116040   -0.2277150    2.5806330  
C    -5.1968900    1.0355140    1.9850110  
C    -6.5397290    0.8591330    1.9844190  
C    -6.8694790    0.0401640    0.8373650  
C    -5.5862140   -0.2479050    0.1522050  
N    -4.5877420    0.3897740    0.8980190  
C    -5.4719130   -1.0317720   -0.9463590  
C    -6.6877860   -1.6134580   -1.5160700  
O    -6.6749360   -2.3424370   -2.4953790  
C    -8.0613940   -1.2933300   -0.8238740  
O    -9.0861030   -1.7642640   -1.2915440  
C    -8.0486890   -0.4494980    0.3734580  
H    -7.2388580    1.2685410    2.6993810  
H    -4.5301770   -1.2429990   -1.4391140  
H    -8.9977900   -0.2521770    0.8625580  
H    -4.5763080    1.6013020    2.6667430  
C     3.8063550   -4.2236760   -1.6908610  
C     3.3437760   -2.9813210   -1.3974040  
C     4.3332650   -2.3327870   -0.5599810  
C     5.4320600   -3.3133000   -0.3983430  
N     5.0377340   -4.4458160   -1.0808040  
C     6.5889450   -3.0936590    0.2839660  
C     6.7759790   -1.7939020    0.8954060  
O     7.7844260   -1.4645240    1.5039270  
C     5.6146330   -0.7346980    0.7658310  
O     5.7705810    0.3442660    1.3139110  
C     4.3817620   -1.0816960    0.0113750  
H     2.4233370   -2.5446250   -1.7527040  
H     7.3778890   -3.8332360    0.3779170  
H     3.3601740   -4.9970840   -2.3016860  
H     5.6125950   -5.2635300   -1.2107240  
