58


C     3.7687030   -1.5307890   -0.3799220  
C     2.6285490   -0.8349860   -0.0796170  
C     1.6059760   -1.7948410    0.2382300  
C     2.2289010   -3.1242900    0.0824300  
N     3.5431660   -2.9098750   -0.3411840  
C     1.6095940   -4.3099470    0.2868940  
C     0.1969060   -4.2868040    0.6567370  
O    -0.4653550   -5.3011300    0.7997820  
C    -0.4910480   -2.8929090    0.8779170  
O    -1.6069320   -2.8838690    1.3606060  
C     0.2747660   -1.6534940    0.5720230  
H     2.4930480    0.2304690   -0.1666620  
H     2.0922280   -5.2718680    0.1436150  
H     4.2797210   -3.5650920   -0.1127630  
C    -0.3831180   -0.3626520    0.6850930  
C     0.1238200    0.8216220    1.1512060  
C    -0.9465070    1.7863370    1.0223370  
C    -2.0789050    0.9984070    0.4410080  
N    -1.7488240   -0.2386190    0.2354190  
C    -3.3595960    1.6120540    0.1288460  
C    -3.4638270    2.9478800    0.3629800  
O    -4.5746350    3.6611620    0.1342520  
C    -2.3369310    3.7617380    0.9463120  
O    -2.5459870    4.9616830    1.1286930  
C    -1.0612990    3.1101480    1.2681690  
H     1.0932980    1.0017470    1.5938380  
H    -4.3494210    4.5790810    0.4076920  
H    -0.2696440    3.7339220    1.6717850  
C    -5.5027800   -1.7658860    1.9096870  
C    -6.3437880   -2.1388370    0.9189180  
C    -6.0979380   -1.1904320   -0.1635790  
C    -5.0196380   -0.2993420    0.3739790  
N    -4.6953860   -0.6231790    1.5879190  
C    -4.4689900    0.7973700   -0.4066710  
C    -5.0268300    1.0144640   -1.6275470  
O    -4.6339080    1.9831420   -2.4695460  
C    -6.1280990    0.1481960   -2.1775740  
O    -6.5539920    0.4210840   -3.2997180  
C    -6.6400940   -0.9780600   -1.3780060  
H    -7.0529200   -2.9547280    0.9112640  
H    -5.2105890    1.8824860   -3.2597050  
H    -7.4374510   -1.5734250   -1.8124680  
H    -5.3755380   -2.2210720    2.8842820  
C     5.8901030   -1.7723450   -1.6268550  
C     7.0228610   -1.0714340   -1.8500990  
C     6.9366810    0.1633230   -1.0960330  
C     5.6320600    0.1329590   -0.3941180  
N     5.0221440   -1.0820900   -0.7524950  
C     5.1998180    1.1022710    0.4457370  
C     6.0610150    2.2711240    0.6620060  
O     5.7489480    3.1823920    1.4092260  
C     7.4304070    2.3379820   -0.0997880  
O     8.1493690    3.3108250    0.0511240  
C     7.7929990    1.2071190   -0.9625000  
H     7.8404360   -1.3705560   -2.4901860  
H     4.2615470    1.0614080    0.9844590  
H     8.7537790    1.2447360   -1.4665740  
H     5.5711290   -2.7187500   -2.0407300  
