58


C     0.5355290    1.2946490   -0.1367970  
C     1.7585020    0.6706670   -0.2157630  
C     2.7695800    1.6869920   -0.1909320  
C     2.0453700    2.9725340   -0.1030900  
N     0.6878170    2.6689760   -0.0016110  
C     2.6144520    4.1998310   -0.1317480  
C     4.0650920    4.2742070   -0.2669310  
O     4.6761110    5.3283740   -0.2944720  
C     4.8756180    2.9333520   -0.3790080  
O     6.0754960    3.0207750   -0.5726100  
C     4.1559320    1.6405080   -0.2532820  
H     1.9162360   -0.3931580   -0.2882810  
H     2.0513310    5.1251640   -0.0619290  
H    -0.0337330    3.3239540   -0.2710060  
C    -0.9826640   -0.4791620   -0.8942590  
C    -2.2932700   -0.7930140   -0.8390310  
C    -2.9684230    0.2293570   -0.0621840  
C    -1.9269830    1.1974290    0.3451100  
N    -0.7186940    0.7260610   -0.2047610  
C    -2.1533790    2.2884720    1.1185470  
C    -3.5278620    2.5640500    1.5384320  
O    -3.8264140    3.5411810    2.2032400  
C    -4.6489090    1.5527040    1.1267840  
O    -5.7702320    1.7090280    1.5677530  
C    -4.2825970    0.3849100    0.2744100  
H    -2.7619530   -1.6445360   -1.3088400  
H    -1.3817110    2.9659220    1.4629970  
H    -0.1708020   -0.9754550   -1.4060410  
C    -5.0855380   -3.9501720    1.0285220  
C    -4.5279280   -2.7098600    0.9932770  
C    -5.4036050   -1.8648840    0.2112740  
C    -6.5377250   -2.7283750   -0.2065300  
N    -6.2699140   -3.9840310    0.3084090  
C    -7.6074250   -2.3127310   -0.9295500  
C    -7.6609950   -0.9136920   -1.3396520  
O    -8.5887530   -0.4379540   -1.9728020  
C    -6.4549950    0.0152070   -0.9582460  
O    -6.4259410    1.1503610   -1.3983790  
C    -5.3570360   -0.5379820   -0.1260870  
H    -3.6089810   -2.4116020    1.4743770  
H    -8.4329560   -2.9618700   -1.2044900  
H    -4.7299180   -4.8452640    1.5217940  
H    -6.8899120   -4.7762670    0.2421180  
C     4.9154890    0.4101630   -0.2245630  
C     6.1848730    0.1393890   -0.6764810  
C     6.4832330   -1.2377020   -0.3945010  
C     5.2948740   -1.7849140    0.2995920  
N     4.3437910   -0.7717910    0.3140210  
C     5.2104820   -3.0416330    0.7981440  
C     6.3467120   -3.9424020    0.6100760  
O     6.3542400   -5.0938600    1.0172800  
C     7.6002750   -3.3991230   -0.1685320  
O     8.5506870   -4.1458680   -0.3494350  
C     7.5780710   -2.0131450   -0.6361680  
H     6.8299380    0.8458290   -1.1724060  
H     4.3361690   -3.4232810    1.3172180  
H     8.4576060   -1.6394190   -1.1514060  
H     3.6676480   -0.7145720    1.0638890  
