62


C     3.8080620    0.2695780   -1.0413590  
C     4.5835060    1.4036600   -1.0363780  
C     3.7390890    2.4788040   -0.5980980  
C     2.4589100    1.9281640   -0.3372630  
N     2.5243260    0.5775920   -0.6226810  
C     1.3593650    2.6745930    0.1367720  
C     1.5977870    4.0333900    0.3496650  
O     0.6121620    4.8269700    0.8455560  
C     2.8729030    4.6051150    0.0850310  
O     2.9331180    5.9590070    0.3546720  
C     3.9369080    3.8565390   -0.3795740  
H     5.6378440    1.4497420   -1.2711290  
H     1.7354330   -0.0517950   -0.6384740  
H     0.9631850    5.7337050    0.8824360  
H     3.8073480    6.2999390    0.1148840  
H     4.9023400    4.3228540   -0.5641880  
C     0.3050930   -0.7326770    2.7388940  
C    -1.0219310   -0.8205110    2.4102480  
C    -1.3060180    0.2408700    1.4827920  
C    -0.0907420    0.9391700    1.2719490  
N     0.8752710    0.3214440    2.0454320  
C     0.0463910    2.0309970    0.3880930  
C    -1.1166940    2.4155130   -0.2802620  
O    -1.0761260    3.4346850   -1.1807530  
C    -2.3511490    1.7499390   -0.0607000  
O    -3.3917890    2.3024370   -0.7822650  
C    -2.4776260    0.6592790    0.7981890  
H    -1.7084840   -1.5766820    2.7633060  
H     1.8004860    0.6922070    2.2004140  
H    -1.9815720    3.5529900   -1.5177110  
H    -4.2084690    1.8023000   -0.6302040  
H     0.9131530   -1.3685030    3.3672800  
C     4.8385070   -1.4566490   -2.5140030  
C     5.1004840   -2.7867770   -2.4968550  
C     4.5542350   -3.3209570   -1.2663750  
C     3.9509180   -2.1696830   -0.5524730  
N     4.1413780   -1.0531590   -1.3665250  
C     3.3525710   -2.2494400    0.6628860  
C     3.2760040   -3.5498610    1.3181450  
O     2.7566700   -3.7099720    2.4140110  
C     3.8918310   -4.7900080    0.5734130  
O     3.8310890   -5.8889380    1.1017050  
C     4.5225330   -4.5706390   -0.7326150  
H     5.6118290   -3.3477990   -3.2655340  
H     2.9169340   -1.3961290    1.1675310  
H     4.9549940   -5.4324930   -1.2317330  
H     5.0727900   -0.7118020   -3.2625530  
C    -4.3363310   -0.3031220    2.2258910  
C    -3.7730070   -0.0109590    1.0153000  
C    -4.6978110   -0.5282640    0.0070960  
C    -5.8401900   -1.1254460    0.7457860  
N    -5.5518300   -0.9580540    2.0854810  
C    -6.9154730   -1.7093390    0.1598600  
C    -6.9668090   -1.7687470   -1.2987750  
O    -7.8991280   -2.2633650   -1.9128720  
C    -5.7573090   -1.1686540   -2.1039840  
O    -5.7691850   -1.2290620   -3.3229140  
C    -4.6550310   -0.5557540   -1.3541290  
H    -7.7394180   -2.1407170    0.7201610  
H    -3.8210500   -0.1585400   -1.9241380  
H    -3.9518980   -0.0801410    3.2122730  
H    -6.1378030   -1.2667250    2.8453180  
