60


C    -1.9958000    0.1449510    1.1800830  
C    -3.3283920    0.1863290    0.8525100  
C    -3.5271230    1.2953940   -0.0439680  
C    -2.2619200    1.9022900   -0.2179260  
N    -1.3328480    1.1834060    0.5368430  
C    -2.0687700    3.0101440   -1.0508450  
C    -3.1796810    3.5141310   -1.7074660  
O    -3.0488290    4.5905980   -2.5287760  
C    -4.4607700    2.9168740   -1.5371020  
O    -5.4586130    3.5357890   -2.2569580  
C    -4.6467470    1.8204430   -0.7178740  
H    -1.1052540    3.4880610   -1.1815340  
H    -3.9304280    4.7971310   -2.8848500  
H    -6.3000570    3.0762360   -2.1172570  
H    -5.6301510    1.3713300   -0.6030330  
H    -1.4656920   -0.5144010    1.8525990  
C     1.9874690   -1.2938620   -0.6153420  
C     3.0408480   -0.5222040   -0.1862070  
C     2.4487400    0.6962830    0.3840630  
C     0.9852390    0.5397690    0.2437870  
N     0.7787640   -0.6852570   -0.3575240  
C     0.0516340    1.4476490    0.6498470  
C     0.5306350    2.6891960    1.2779510  
O    -0.2173000    3.5515220    1.7024790  
C     2.0873740    2.8840390    1.4023220  
O     2.5010340    3.9251050    1.8819320  
C     2.9818110    1.8148120    0.9372410  
H     4.0518710    1.9441430    1.0413570  
H     2.0085800   -2.2608360   -1.0997500  
H    -0.1289470   -1.0458830   -0.6149250  
C     4.4377710   -0.8596330   -0.2894320  
C     5.0224360   -1.9851380   -0.8178420  
C     6.4382170   -1.8005160   -0.6645200  
C     6.5662200   -0.4582640    0.0028310  
N     5.4016720    0.0806190    0.2172110  
C     7.8479230    0.1026470    0.3361760  
C     8.9459770   -0.6261030    0.0255310  
O    10.2016980   -0.2405510    0.2712250  
C     8.8511520   -1.9845470   -0.6481340  
O     9.9157070   -2.5577140   -0.8830960  
C     7.5378670   -2.5327290   -0.9765760  
H     4.5366820   -2.8430040   -1.2621640  
H     7.9129960    1.0723790    0.8167090  
H    10.7663730   -0.9742390   -0.0657370  
H     7.5080220   -3.5054100   -1.4573890  
C    -4.7877280   -0.7269170    2.6697510  
C    -5.7344950   -1.6838980    2.8392900  
C    -5.9257530   -2.3307770    1.5589330  
C    -4.9935270   -1.6600890    0.6177690  
N    -4.3215090   -0.6874370    1.3499920  
C    -4.8595650   -1.9855060   -0.6934920  
C    -5.6840720   -3.0653520   -1.2272460  
O    -5.6268600   -3.4343050   -2.3910710  
C    -6.6876480   -3.7841810   -0.2510570  
O    -7.3897620   -4.6849220   -0.6839390  
C    -6.7351990   -3.3416960    1.1447060  
H    -6.2535500   -1.9170410    3.7576770  
H    -4.1719090   -1.4783230   -1.3617260  
H    -7.4265710   -3.8496670    1.8103940  
H    -4.3758670   -0.0251950    3.3830230  
