60


C    -0.5832900    1.3596360   -0.0061560  
C    -1.6981050    0.6335100   -0.3709480  
C    -2.8247650    1.2191890    0.2867070  
C    -2.3438380    2.3194000    1.0462040  
N    -0.9830410    2.3987910    0.8287830  
C    -3.1727450    3.1351810    1.8236430  
C    -4.5259550    2.8328290    1.8493580  
O    -5.3752410    3.5807320    2.6041530  
C    -5.0382830    1.7417010    1.1005320  
O    -6.3986760    1.5573890    1.2033920  
C    -4.2115490    0.9462650    0.3143260  
H    -1.7055100   -0.1987060   -1.0596010  
H    -0.3489510    2.9725070    1.3646240  
H    -2.7996940    3.9740260    2.4016010  
H    -6.2618570    3.1870160    2.5263130  
H    -6.6161520    0.6496690    0.9341740  
C     1.4344570   -0.0435320   -0.5120900  
C     0.8128250    1.1581280   -0.3584340  
C     1.8109570    2.1919350   -0.6484810  
C     3.0712260    1.4898640   -0.9766570  
N     2.7672950    0.1284050   -0.9170210  
C     4.2443340    2.0923660   -1.2776940  
C     4.2771000    3.5565350   -1.3074710  
O     5.2841940    4.1925240   -1.5678430  
C     2.9438120    4.3295210   -1.0020970  
O     2.9403650    5.5481120   -1.0383870  
C     1.7418510    3.5472100   -0.6794950  
H     5.1545980    1.5479990   -1.5052660  
H     0.8256210    4.0962230   -0.4870420  
H     1.0512310   -1.0444090   -0.3671820  
C     4.0244790   -1.5475540   -2.1962600  
C     4.9706950   -2.4828510   -1.9560180  
C     5.2858350   -2.4435630   -0.5380310  
C     4.4340360   -1.3877670    0.0560040  
N     3.6826690   -0.8787500   -1.0061730  
C     4.4245830   -1.0344680    1.3618280  
C     5.3262850   -1.7475580    2.2701280  
O     5.3924310   -1.5036350    3.4630100  
C     6.2435510   -2.8743020    1.6684260  
O     7.0016700   -3.4785450    2.4079460  
C     6.1502200   -3.1551890    0.2296000  
H     5.4150480   -3.1439410   -2.6859820  
H     3.7898530   -0.2549960    1.7695350  
H     6.7882600   -3.9356570   -0.1736030  
H     3.5282180   -1.2629230   -3.1140570  
C    -5.6458280    0.0840550   -1.5522990  
C    -5.9348560   -1.0868780   -2.1701580  
C    -5.2242100   -2.1345200   -1.4665350  
C    -4.4876330   -1.4654500   -0.3652770  
N    -4.7965200   -0.1072860   -0.4482170  
C    -3.6887800   -2.1084470    0.5234680  
C    -3.5247620   -3.5545930    0.3870860  
O    -2.8055500   -4.2132400    1.1226090  
C    -4.3061620   -4.2862800   -0.7651430  
O    -4.1858610   -5.4949980   -0.8874700  
C    -5.1462040   -3.4783550   -1.6537150  
H    -6.5722440   -1.2157130   -3.0331000  
H    -3.1563030   -1.5998070    1.3194260  
H    -5.6806740   -3.9921070   -2.4471120  
H    -5.9665960    1.0898810   -1.7897100  
