62


C     0.5450910    1.8242230   -0.1572180  
C     1.4451240    0.7744890   -0.1496880  
C     2.7381750    1.3096650   -0.4154460  
C     2.5772470    2.7156580   -0.5794020  
N     1.2461120    3.0140830   -0.3733680  
C     3.6340040    3.5796350   -0.8760020  
C     4.8926130    3.0116790   -0.9954550  
O     5.9623520    3.7915100   -1.3042320  
C     5.0821060    1.6192350   -0.7926550  
O     6.4121130    1.2195170   -0.9012150  
C     4.0431190    0.7414450   -0.4914870  
H     1.1894220   -0.2557620    0.0445680  
H     0.8047600    3.8560250   -0.7160380  
H     3.5050100    4.6468580   -1.0212160  
H     6.7272660    3.1975970   -1.4085960  
H     6.4367920    0.3195380   -1.2689480  
C    -0.8716590    1.8239530    0.0663260  
C    -1.7891600    0.8131280   -0.0818520  
C    -3.0820790    1.3184800    0.2735120  
C    -2.8725600    2.7351380    0.6513410  
N    -1.5250030    3.0119710    0.4506490  
C    -3.8355740    3.5649240    1.1202790  
C    -5.1921220    3.0457690    1.1827550  
O    -6.1383510    3.6808640    1.6214330  
C    -5.4601120    1.6075120    0.6079780  
O    -6.6441580    1.2965570    0.4580990  
C    -4.3343880    0.7277230    0.2757620  
H    -1.5774610   -0.1747120   -0.4599520  
H    -3.6519800    4.5847280    1.4432800  
H    -1.0521210    3.7172950    1.0003610  
C    -2.3345010   -2.9790820    1.8506620  
C    -2.7427220   -1.6864310    1.6432880  
C    -3.7329390   -1.7089330    0.6005350  
C    -3.8920070   -3.0700260    0.2258690  
N    -3.0197630   -3.8161520    0.9927870  
C    -4.8183660   -3.4980100   -0.7303690  
C    -5.6225320   -2.5243170   -1.2998280  
O    -6.5652710   -2.8640810   -2.2205670  
C    -5.4940120   -1.1541360   -0.9454570  
O    -6.3578810   -0.3275890   -1.6263060  
C    -4.5338100   -0.7082010   -0.0304760  
H    -2.3824080   -0.8210290    2.1794100  
H    -2.9227400   -4.8181820    0.9504930  
H    -4.9421960   -4.5391110   -1.0107210  
H    -7.0221400   -2.0284370   -2.4393320  
H    -6.7123150    0.3137220   -0.9649230  
H    -1.6084140   -3.3779780    2.5449830  
C     6.8828820   -1.3195190    2.1919910  
C     6.5339400   -2.6092240    1.9573550  
C     5.4727620   -2.5939450    0.9724740  
C     5.2285260   -1.1639570    0.6498120  
N     6.0942120   -0.4438140    1.4484330  
C     4.2971210   -0.6977780   -0.2460330  
C     3.5126610   -1.7319400   -0.9574590  
O     2.6987980   -1.4667240   -1.8259410  
C     3.7328150   -3.2488990   -0.5946710  
O     3.0364120   -4.0836710   -1.1494380  
C     4.7555300   -3.5902760    0.3893690  
H     6.9570370   -3.4871060    2.4232490  
H     4.9044210   -4.6393110    0.6259200  
H     7.6375220   -0.9221680    2.8579910  
H     6.3174930    0.5264550    1.2804450  
