60


C    -4.2115050   -0.3319600   -0.1493920  
C    -5.0324880    0.7870270   -0.2922900  
C    -4.1886110    1.9153450   -0.5043220  
C    -2.8480230    1.4398580   -0.4840760  
N    -2.8966840    0.0883440   -0.2625650  
C    -1.7215830    2.2735310   -0.6638100  
C    -1.9971490    3.6267120   -0.8698830  
O    -0.9755730    4.5026160   -1.0829850  
C    -3.3326960    4.1191680   -0.8850600  
O    -3.4068600    5.4803900   -1.1018110  
C    -4.4221660    3.2917950   -0.7109680  
H    -6.1120700    0.7865060   -0.3475890  
H    -2.1286240   -0.5697700   -0.2403880  
H    -1.3702740    5.3829090   -1.2149100  
H    -4.3343920    5.7561530   -1.1438360  
H    -5.4324140    3.6947780   -0.7320890  
C     0.0769150    0.6157990   -1.3153860  
C    -0.3532310    1.7298310   -0.6543690  
C     0.7992130    2.2156020    0.1063210  
C     1.9211830    1.3026570   -0.1953570  
N     1.4268350    0.3751790   -1.0773400  
C     3.1823980    1.3700780    0.3579610  
C     3.4291080    2.5000060    1.2859680  
O     4.5289040    2.7898970    1.7160520  
C     2.2186900    3.4201420    1.6800010  
O     2.3835320    4.2726380    2.5373370  
C     0.9365800    3.2313700    0.9968570  
H     0.1261110    3.9069690    1.2435680  
H    -0.4719650   -0.0366220   -1.9818710  
H     1.9247200   -0.4679970   -1.3284880  
C     4.2213260    0.4091100    0.0513000  
C     4.4453050   -0.2653180   -1.1282940  
C     5.5764870   -1.1254550   -0.8813670  
C     5.9194420   -0.8699820    0.5560790  
N     5.1397740    0.0214680    1.0913570  
C     6.9984390   -1.5687500    1.2073410  
C     7.7139500   -2.4470810    0.4670210  
O     8.7492710   -3.1611960    0.9313290  
C     7.4038080   -2.7099810   -0.9901870  
O     8.1150100   -3.5298410   -1.5740570  
C     6.2910140   -2.0025030   -1.6272970  
H     3.9726640   -0.0974370   -2.0869510  
H     7.2208170   -1.3723870    2.2501370  
H     9.0536820   -3.6969200    0.1639240  
H     6.0910110   -2.2261500   -2.6707580  
C    -7.8223100   -2.3007900    1.4024120  
C    -7.4644340   -3.5980500    1.2225130  
C    -6.1276300   -3.6046140    0.6680870  
C    -5.7401340   -2.1883850    0.5209460  
N    -6.8233200   -1.4437050    0.9458420  
C    -4.5279930   -1.7330270    0.0528250  
C    -3.5258880   -2.7849620   -0.2164580  
O    -2.3509700   -2.5475150   -0.4764990  
C    -3.9579960   -4.3004880   -0.1653840  
O    -3.1395340   -5.1347730   -0.5216720  
C    -5.2902350   -4.6223920    0.3156070  
H    -8.0613210   -4.4683520    1.4532920  
H    -5.5706820   -5.6682850    0.3854720  
H    -8.7353850   -1.8888740    1.8113920  
H    -6.7470820   -0.4669950    1.1924290  
