58


C     1.9551260   -0.0669500   -0.6971660  
C     1.0723460    0.7653660   -0.0800550  
C     1.8199550    1.9844220    0.2674500  
C     3.2127780    1.7773170   -0.1855740  
N     3.2267390    0.5162050   -0.7813720  
C     4.2301460    2.6571760   -0.0368360  
C     3.9447790    3.9246500    0.6353240  
O     4.7886290    4.7866120    0.8170700  
C     2.4794910    4.1685780    1.1453020  
O     2.2202700    5.2054250    1.7313760  
C     1.4670480    3.1280680    0.9029860  
H     5.2402290    2.4655570   -0.3827710  
H     0.4555990    3.3302340    1.2348100  
H     1.7980670   -1.0471590   -1.1260760  
C    -0.9363350   -2.8215650    1.5933970  
C    -0.0249710   -1.9054170    1.1704340  
C    -0.7541420   -0.7399680    0.7208580  
C    -2.1847790   -1.0512730    0.9313580  
N    -2.2247820   -2.3196780    1.4834380  
C    -3.2418710   -0.2325920    0.6345850  
C    -2.8936600    1.0794560    0.0643560  
O    -3.7246490    1.9273340   -0.2128050  
C    -1.3793120    1.4306270   -0.1872460  
O    -1.1291730    2.5004620   -0.7171590  
C    -0.3356460    0.4595240    0.1927280  
H     1.0477880   -2.0210710    1.1947080  
H    -0.7751990   -3.8132090    1.9950510  
H    -3.0741710   -2.8564520    1.5772090  
C    -5.1200080   -1.0674590    2.1035230  
C    -4.6379320   -0.5798290    0.9193960  
C    -5.7920090   -0.4866900    0.0178050  
C    -6.9633460   -0.9680570    0.7886710  
N    -6.4815380   -1.3141790    2.0393380  
C    -8.2309940   -1.0391100    0.3109550  
C    -8.4733710   -0.6319900   -1.0702570  
O    -9.5767130   -0.6643810   -1.5920830  
C    -7.2430370   -0.1436580   -1.9170680  
O    -7.4137050    0.1726060   -3.0824740  
C    -5.9222260   -0.0932670   -1.2732140  
H    -9.0727470   -1.3905210    0.8997450  
H    -5.0936020    0.2823780   -1.8621950  
H    -4.5851640   -1.2378980    3.0293420  
H    -7.0587840   -1.5798110    2.8223470  
C     4.7218280    0.0311200   -2.6702240  
C     5.7523990   -0.8046510   -2.9305020  
C     6.0491300   -1.5386290   -1.7121490  
C     5.0948300   -1.0573900   -0.6869430  
N     4.3250780   -0.0835900   -1.3236030  
C     5.0182980   -1.5139780    0.5850130  
C     5.9504440   -2.5670790    0.9911720  
O     5.9474010   -3.0609620    2.1066710  
C     6.9931760   -3.0808830   -0.0685620  
O     7.7848050   -3.9505270    0.2540750  
C     6.9643940   -2.4966210   -1.4159880  
H     6.2692940   -0.9065620   -3.8738470  
H     4.3101120   -1.1366410    1.3151820  
H     7.6835400   -2.8663410   -2.1405430  
H     4.2064620    0.7381450   -3.3061310  
