58


C     4.0380390    0.6359880   -0.3641650  
C     4.6696840    1.8435970   -0.2229990  
C     3.6665760    2.8468420    0.0345200  
C     2.3682380    2.1361020    0.0358300  
N     2.6593700    0.7996260   -0.1713870  
C     1.1443500    2.7227110    0.1849120  
C     1.1392780    4.1801400    0.4484300  
O     0.1228650    4.7892460    0.7289080  
C     2.5075690    4.9537320    0.4413770  
O     2.4941820    6.1638820    0.6078710  
C     3.7368830    4.1919340    0.2403290  
H     5.7383240    2.0048460   -0.2333430  
H     4.6749130    4.7384770    0.2351990  
H     1.9683290    0.1328150   -0.4840440  
C     5.7004270   -0.9751900   -1.3513720  
C     4.5751350   -0.6833870   -0.6258540  
C     4.0389650   -1.9624720   -0.1618120  
C     4.9498860   -3.0077140   -0.6868300  
N     5.9377420   -2.3328640   -1.3879930  
C     4.7963170   -4.3379810   -0.4785100  
C     3.6607600   -4.7890830    0.3290740  
O     3.4403310   -5.9650300    0.5661490  
C     2.6988930   -3.6968230    0.9192760  
O     1.7548470   -4.0417560    1.6136950  
C     2.9739760   -2.2899330    0.6155410  
H     5.4760330   -5.0883550   -0.8700480  
H     2.3031150   -1.5539420    1.0442880  
H     6.3584630   -0.2930080   -1.8732960  
H     6.6777240   -2.7763290   -1.9109000  
C    -0.4606630   -0.8935950    2.2544320  
C     0.2840150    0.1862460    1.8929630  
C    -0.4417700    0.8887610    0.8526020  
C    -1.7032730    0.1382760    0.6627120  
N    -1.6590240   -0.9205030    1.5553550  
C    -2.6946720    0.4520820   -0.2239500  
C    -2.4842130    1.6679740   -1.0348230  
O    -3.3476610    2.1399480   -1.7516410  
C    -1.1018200    2.4034800   -0.9455830  
O    -0.8485110    3.2560440   -1.7758880  
C    -0.1293290    1.9920400    0.0992250  
H     1.2331500    0.4781420    2.3160510  
H    -0.2362260   -1.6731880    2.9703710  
H    -2.3071830   -1.6936900    1.5418560  
C    -5.9826770   -0.4748770    2.5684870  
C    -6.7757340   -1.2098810    1.7491270  
C    -6.1123430   -1.2915640    0.4633420  
C    -4.8446950   -0.5363300    0.6084860  
N    -4.8043170   -0.1008800    1.9222160  
C    -3.9345270   -0.3252080   -0.3879590  
C    -4.2318390   -0.9424690   -1.6998020  
O    -3.4470490   -0.9106780   -2.6307200  
C    -5.5826420   -1.7270390   -1.8766290  
O    -5.8461400   -2.1983960   -2.9711230  
C    -6.4635100   -1.8677200   -0.7171030  
H    -7.7282920   -1.6514310    2.0034240  
H    -7.3910720   -2.4158540   -0.8505620  
H    -6.1424960   -0.1830870    3.5981700  
H    -4.1758130    0.6190430    2.2478370  
