60


C     0.1514710    0.2761820   -0.7913480  
C    -0.1860120    1.5545390   -0.3719390  
C     1.0297380    2.1206400    0.1901570  
C     2.0400440    1.1376430    0.0714640  
N     1.4738410    0.0351620   -0.5431610  
C     3.3605310    1.2974310    0.5653800  
C     3.6159330    2.4997670    1.2418480  
O     4.8446690    2.7454350    1.7645220  
C     2.6112390    3.4903520    1.3679150  
O     3.0388360    4.6182370    2.0379600  
C     1.3409690    3.3233240    0.8534240  
H     1.9552750   -0.8415210   -0.6866460  
H     4.8250180    3.6487630    2.1300060  
H     2.3525080    5.3011490    2.0023400  
H     0.6034470    4.1122310    0.9471630  
H    -0.4618490   -0.4601560   -1.2891620  
C    -4.3015420   -0.1878170   -0.1176840  
C    -2.9390630   -0.0221760   -0.0251830  
C    -2.6770680    1.3495090   -0.3852420  
C    -4.0233310    1.9108700   -0.6657170  
N    -4.9640000    1.0256200   -0.5199130  
C    -4.2143610    3.2892000   -1.0462630  
C    -3.1148480    4.0690980   -1.1230110  
O    -3.1365340    5.3759790   -1.4429860  
C    -1.7335910    3.5358650   -0.8461860  
O    -0.8088130    4.3455410   -0.9444370  
C    -1.5323950    2.1005760   -0.4951380  
H    -2.2299420   -0.7704630    0.2844910  
H    -5.2107240    3.6674870   -1.2454100  
H    -2.1958270    5.6582300   -1.4303120  
C    -2.9889860   -4.2765890    0.8172980  
C    -4.1628150   -4.9327900    0.9448900  
C    -5.1859890   -3.9246600    0.7041900  
C    -4.4177800   -2.6614530    0.4363130  
N    -3.1376610   -2.8876140    0.5031110  
C    -5.0784840   -1.3846310    0.1389390  
C    -6.4590710   -1.4318380    0.1265790  
O    -7.2637940   -0.3952890   -0.1028640  
C    -7.2344570   -2.6972950    0.3926480  
O    -8.4632690   -2.6229440    0.3576290  
C    -6.5298010   -3.9531740    0.6825830  
H    -4.3301240   -5.9758800    1.1739190  
H    -8.1757690   -0.7655750   -0.0376910  
H    -7.1338930   -4.8366820    0.8648850  
H    -1.9860120   -4.6724330    0.9230150  
C     4.3886050    0.2868780    0.3735640  
C     5.4755960   -0.0462200    1.1331230  
C     6.1707650   -1.1300090    0.4903090  
C     5.4187990   -1.4185850   -0.7517450  
N     4.2934290   -0.5879070   -0.7478020  
C     5.7949400   -2.3281670   -1.6795600  
C     7.0047580   -3.1158090   -1.4302110  
O     7.4131300   -3.9614150   -2.2101330  
C     7.7888630   -2.8646810   -0.0908530  
O     8.7899070   -3.5285320    0.1368420  
C     7.2895730   -1.8352250    0.8177240  
H     5.7454620    0.4159830    2.0698070  
H     5.2391180   -2.5201090   -2.5926740  
H     7.8514870   -1.6507640    1.7282170  
H     3.9661230   -0.2077120   -1.6294620  
