58


C    -0.9257680    0.8859830    1.7238860  
C    -2.2318420    0.5821640    1.5413750  
C    -2.3824740    0.0494490    0.1967530  
C    -1.0356270    0.0580250   -0.4116510  
N    -0.1926230    0.6044410    0.5602030  
C    -0.7178710   -0.4150980   -1.6398030  
C    -1.7982100   -0.9725020   -2.4492280  
O    -1.6214490   -1.4646360   -3.5509310  
C    -3.2584530   -0.9172750   -1.8736890  
O    -4.1843440   -1.2187960   -2.6015180  
C    -3.4706170   -0.4325530   -0.4787010  
H    -3.0195440    0.6945070    2.2712560  
H     0.2913870   -0.4239170   -2.0368580  
H    -0.4076220    1.2888550    2.5834830  
C     2.0698280   -0.3271060    0.6362440  
C     3.3497310    0.0861650    0.4000410  
C     3.2661740    1.4947840   -0.0134010  
C     1.8324680    1.8642080    0.0261970  
N     1.1625490    0.7177410    0.4491580  
C     1.3144720    3.0719750   -0.2955240  
C     2.2348140    4.1178040   -0.7371910  
O     1.8702500    5.2425490   -1.0393920  
C     3.7580210    3.7525310   -0.8263980  
O     4.5486760    4.5990380   -1.2090940  
C     4.1838290    2.3987330   -0.4420210  
H     0.2532880    3.2927240   -0.2555790  
H     5.2419710    2.1803540   -0.4958620  
H     1.7083580   -1.3070600    0.9069850  
C    -6.1894860    2.7343740    0.9845840  
C    -7.2630870    1.9721410    1.3116570  
C    -6.9171600    0.5943150    1.0270800  
C    -5.5285010    0.6179120    0.5045650  
N    -5.1377660    1.9425030    0.5275900  
C    -4.8337470   -0.4769970    0.0731600  
C    -5.5147540   -1.7851850    0.1873120  
O    -4.9562940   -2.8375320   -0.0669910  
C    -6.9925330   -1.8236270    0.7192670  
O    -7.5669330   -2.8988650    0.7738620  
C    -7.6150600   -0.5673100    1.1363290  
H    -8.2049030    2.3239380    1.7066010  
H    -8.6355300   -0.6066730    1.5047900  
H    -6.0641800    3.8074790    1.0437940  
H    -4.2861830    2.2886720    0.1132110  
C     3.6927080   -4.1987940   -0.3921920  
C     5.0096140   -4.4306530   -0.1995640  
C     5.5721550   -3.1413500    0.1892920  
C     4.4019850   -2.2067060    0.1655430  
N     3.3133450   -2.8325460   -0.1701110  
C     4.5258960   -0.7836160    0.4863180  
C     5.7724480   -0.3794940    0.8739060  
O     6.0659110    0.8690830    1.2789090  
C     6.9577050   -1.2990560    0.9072340  
O     8.0331500   -0.8221590    1.2687440  
C     6.8009370   -2.7165050    0.5343580  
H     5.5493120   -5.3614270   -0.3039890  
H     7.0288090    0.8527610    1.4846500  
H     7.6861960   -3.3437270    0.5730570  
H     2.9228170   -4.9013360   -0.6865340  
