60


C     1.1738410    2.5153060   -0.3590250  
C     0.1218920    1.7005500    0.0192300  
C     0.6937280    0.3943330    0.2855800  
C     2.0839090    0.4946160    0.0570610  
N     2.3419780    1.8010220   -0.3247220  
C     2.9775060   -0.5992750    0.1899660  
C     2.3925700   -1.8285800    0.5341640  
O     3.1603450   -2.9409790    0.6508620  
C     1.0021190   -1.9300860    0.7967630  
O     0.5971490   -3.1908510    1.1731210  
C     0.1579880   -0.8418630    0.6974300  
H     3.2400940    2.1199270   -0.6620880  
H     2.5742940   -3.6714830    0.9205800  
H    -0.3730750   -3.2339360    1.2064690  
H    -0.8913820   -0.9495940    0.9515950  
H     1.1638790    3.5478130   -0.6773280  
C    -1.2726760    2.0665580    0.0937520  
C    -1.9017260    3.2726730    0.2696890  
C    -3.3258810    3.0492850    0.2529860  
C    -3.5060090    1.5942630    0.0577480  
N    -2.2370830    1.0428820    0.0158920  
C    -4.6985310    0.9402950   -0.0551110  
C    -5.9192180    1.7678570    0.0767570  
O    -7.0369510    1.2872920    0.1081730  
C    -5.7522410    3.3217670    0.2623700  
O    -6.7599870    4.0096880    0.3225810  
C    -4.4042820    3.8753890    0.3664670  
H    -1.4139760    4.2210010    0.4457910  
H    -4.3109190    4.9481530    0.5046810  
H    -2.0575830    0.1835090   -0.4857210  
C    -3.1074530   -2.4490510    2.2681980  
C    -3.4949440   -3.4795850    1.4687700  
C    -4.2311200   -2.9077290    0.3543830  
C    -4.2109150   -1.4408780    0.5579690  
N    -3.4894520   -1.2281450    1.7241490  
C    -4.7931650   -0.5152140   -0.2627080  
C    -5.4902660   -1.0472960   -1.4589370  
O    -5.9387320   -0.3268320   -2.3305230  
C    -5.5867300   -2.6059050   -1.6479930  
O    -6.2289560   -3.0438780   -2.5880540  
C    -4.8829250   -3.4699780   -0.6976420  
H    -3.3418690   -4.5325970    1.6578230  
H    -4.9278530   -4.5426160   -0.8592100  
H    -2.5823380   -2.4735940    3.2147580  
H    -3.4315580   -0.3363740    2.1924110  
C     4.4123300   -0.4558420   -0.0151130  
C     5.3477090   -1.3441330   -0.4636480  
C     6.6289760   -0.6855270   -0.4921310  
C     6.3935590    0.6888080    0.0032610  
N     5.0140330    0.8172390    0.2084860  
C     7.3655870    1.6080420    0.1998190  
C     8.7455580    1.2420490   -0.1324290  
O     9.6832750    2.0093240    0.0108440  
C     9.0109740   -0.1948160   -0.7121250  
O    10.1535990   -0.5072490   -1.0104920  
C     7.8727650   -1.1027620   -0.8555830  
H     5.1484590   -2.3597330   -0.7681380  
H     7.1793350    2.6097670    0.5757100  
H     8.0690390   -2.1015780   -1.2331140  
H     4.6935990    1.3686120    0.9975390  
