60


C     0.8582920   -1.6978300   -0.0364470  
C     2.1996500   -1.4534070   -0.0583310  
C     2.3755490   -0.0283410   -0.1128300  
C     1.0858100    0.5521100   -0.1263490  
N     0.1521220   -0.4932510   -0.0921320  
C     0.8828640    1.9343440   -0.0783180  
C     2.0034500    2.7499500   -0.0536500  
O     1.8491850    4.1019250   -0.0319450  
C     3.3083800    2.2000080   -0.0609190  
O     4.3022160    3.1466260   -0.0680350  
C     3.5231440    0.8123240   -0.0895610  
H     2.9741290   -2.2055140   -0.0361180  
H    -0.0985550    2.3901580   -0.0829650  
H     2.7380430    4.4972220   -0.0613640  
H     5.1699880    2.7125550   -0.1810290  
H     0.3159760   -2.6313140   -0.0303590  
C    -2.9518760   -2.4876830    2.3223160  
C    -1.7342620   -2.0722730    1.8978100  
C    -2.0130320   -1.1384130    0.8118550  
C    -3.4998610   -1.1058080    0.7325820  
N    -4.0406650   -1.9045590    1.6065480  
C    -4.2137160   -0.2778420   -0.2259750  
C    -3.4529880    0.4387170   -1.0940340  
O    -3.9625400    1.2509810   -2.0348400  
C    -1.9549130    0.4108150   -1.0701360  
O    -1.3605720    1.0583170   -1.9267850  
C    -1.2451110   -0.4101120   -0.0376240  
H    -0.7625160   -2.3474420    2.2811120  
H    -3.1908760    1.6069350   -2.5257130  
H    -3.1752700   -3.1828300    3.1226300  
C    -7.0695380    1.1486100    2.7851470  
C    -8.2628810    0.8690190    2.2140650  
C    -7.9338740    0.2806060    0.9190670  
C    -6.4350050    0.2683840    0.8964500  
N    -5.9386940    0.7891750    1.9777040  
C    -5.6903770   -0.2421860   -0.2428300  
C    -6.4219160   -0.6622640   -1.3097250  
O    -5.8861700   -1.1536510   -2.4358420  
C    -7.9283200   -0.6479180   -1.3134350  
O    -8.4938720   -1.0645310   -2.3228150  
C    -8.6557730   -0.1508740   -0.1326470  
H    -9.2542430    1.0466480    2.6069000  
H    -6.6526360   -1.3774230   -3.0099520  
H    -9.7404710   -0.1505000   -0.1807950  
H    -6.8827450    1.6016230    3.7515110  
C     4.8713010    0.2655550   -0.1228270  
C     5.3728830   -0.8276570   -0.7722510  
C     6.7853220   -0.9216380   -0.5052650  
C     7.1078650    0.2170050    0.3817970  
N     5.9301990    0.9695180    0.5282660  
C     8.3249460    0.4463000    0.9214070  
C     9.4189880   -0.4701240    0.5803760  
O    10.5487960   -0.3367730    1.0204460  
C     9.1124010   -1.6547920   -0.4056580  
O    10.0190280   -2.4153330   -0.7104010  
C     7.7455280   -1.8018410   -0.9024080  
H     4.8130670   -1.4708790   -1.4357810  
H     8.5439080    1.2824080    1.5788610  
H     7.5373190   -2.6367790   -1.5644440  
H     5.7379890    1.3820070    1.4366270  
