60


C     4.0708200    1.6748320   -0.3028130  
C     2.9656700    0.8890080   -0.0267500  
C     1.9230860    1.7495990    0.4358220  
C     2.4416780    3.0712520    0.4181930  
N     3.7382740    2.9990810   -0.0494820  
C     1.6979700    4.1895820    0.7974180  
C     0.3852720    3.9809700    1.2002670  
O    -0.3685340    5.0387670    1.6009080  
C    -0.1721850    2.6803460    1.2077470  
O    -1.4816700    2.6503550    1.6445120  
C     0.5672750    1.5465990    0.8274700  
H     2.8980740   -0.1716850   -0.2138610  
H     4.4100630    3.7495640    0.0099960  
H     2.1020220    5.1966140    0.7952830  
H    -1.2320720    4.6922520    1.8872580  
H    -1.7164860    1.7501310    1.9288650  
C    -0.0241050    0.2200620    0.8537110  
C     0.5160120   -1.0065580    1.1254420  
C    -0.5185890   -2.0006190    1.0124550  
C    -1.7489980   -1.2741790    0.6445390  
N    -1.4244470    0.0687900    0.6280020  
C    -2.9682000   -1.8498750    0.3648150  
C    -2.9946240   -3.3294310    0.4078090  
O    -3.9605010   -3.9973750    0.0617390  
C    -1.7307500   -4.1062350    0.9244400  
O    -1.8213820   -5.3150910    1.0664740  
C    -0.5117410   -3.3532940    1.1809400  
H     1.5336840   -1.1938980    1.4337400  
H     0.3735900   -3.9050830    1.4802130  
H    -1.9108250    0.6920360   -0.0097500  
C    -4.1555960   -1.0845560    0.0205650  
C    -4.4242330    0.2671380    0.1508670  
C    -5.7594640    0.5019870   -0.3261640  
C    -6.2794600   -0.8189190   -0.7575840  
N    -5.2647060   -1.7213580   -0.5329530  
C    -7.5220180   -1.0223110   -1.2654580  
C    -8.4121980    0.1266400   -1.4037880  
O    -9.5459030    0.0416430   -1.8516870  
C    -7.8799170    1.5377430   -0.9542860  
O    -8.6128670    2.5098990   -1.0647780  
C    -6.5218080    1.6279690   -0.4200370  
H    -3.8001120    1.0206320    0.6051440  
H    -7.8869260   -1.9967270   -1.5745200  
H    -6.1656900    2.6062700   -0.1109420  
H    -5.3028460   -2.7307090   -0.6137290  
C     6.1926030    2.0744570   -1.6090680  
C     5.3765980    1.3119400   -0.8178400  
C     6.0856070    0.0521640   -0.5916430  
C     7.3700090    0.1574360   -1.3258630  
N     7.3762570    1.4148200   -1.9009680  
C     8.3110690   -0.8182390   -1.3760410  
C     8.0618610   -2.0614590   -0.6496600  
O     8.8448120   -2.9977800   -0.6422400  
C     6.7224890   -2.1824880    0.1635150  
O     6.4990600   -3.2018860    0.7949590  
C     5.7821520   -1.0545500    0.1318230  
H     9.2449170   -0.7205310   -1.9209620  
H     4.8686690   -1.1471740    0.7089020  
H     6.0121720    3.0590690   -2.0205420  
H     8.0922680    1.7595750   -2.5214540  
