60


C    -2.4958300   -1.1734880    0.9169860  
C    -3.5364270   -0.5011410    0.3011650  
C    -2.9729680    0.7193910   -0.2425140  
C    -1.5953070    0.7144370    0.0788650  
N    -1.3390650   -0.4536040    0.7780000  
C    -0.7088780    1.7511950   -0.2756420  
C    -1.2621770    2.8161160   -0.9879300  
O    -0.4619340    3.8336600   -1.3949520  
C    -2.6370900    2.8252520   -1.3418480  
O    -3.0069440    3.9330020   -2.0717820  
C    -3.4918060    1.7985330   -0.9855740  
H    -0.4558950   -0.6825950    1.2085600  
H    -1.0268290    4.5049990   -1.8162470  
H    -3.9588200    3.9104720   -2.2508090  
H    -4.5325320    1.8182620   -1.2987040  
H    -2.5130380   -2.1012020    1.4705180  
C     2.6136760   -0.9741770   -1.2928350  
C     1.4262850   -0.3393910   -1.1866660  
C     1.6070770    0.7962350   -0.3056380  
C     3.0316330    0.7867590    0.1003520  
N     3.6126750   -0.3424920   -0.5306550  
C     3.5951230    1.7258000    0.8958500  
C     2.7431930    2.8112580    1.3901670  
O     3.1759690    3.7158310    2.0843950  
C     1.2207030    2.8070090    1.0245560  
O     0.4930020    3.6435230    1.5250480  
C     0.7198020    1.7493480    0.1079750  
H     0.5088120   -0.6176150   -1.6840960  
H     4.6407910    1.7120190    1.1681130  
H     2.8654760   -1.8533440   -1.8663830  
C     4.9094320   -0.8008620   -0.4717930  
C     5.4468490   -1.8898590   -1.1279630  
C     6.8141570   -1.9233080   -0.7184640  
C     6.9552600   -0.7504300    0.2189330  
N     5.8271190   -0.1049350    0.3509590  
C     8.1965010   -0.4316130    0.8580180  
C     9.2536500   -1.2351040    0.5820150  
O    10.4723260   -1.0748020    1.0921030  
C     9.1491150   -2.4303870   -0.3619570  
O    10.1861890   -3.0776910   -0.5244010  
C     7.8777040   -2.7290230   -0.9936580  
H     4.9680580   -2.5764240   -1.8093970  
H     8.2703970    0.4175190    1.5278910  
H    11.0084570   -1.8077720    0.7036910  
H     7.8337380   -3.5849750   -1.6591080  
C    -4.9058650   -0.9565140    0.2521250  
C    -5.4189980   -2.2287130    0.2629930  
C    -6.8536010   -2.1401760    0.2452830  
C    -7.1718940   -0.6907220    0.2279800  
N    -5.9559290   -0.0228430    0.1679290  
C    -8.4265480   -0.1815040    0.2663940  
C    -9.5540950   -1.1131090    0.2881880  
O   -10.7175110   -0.7419910    0.3151750  
C    -9.2425710   -2.6545530    0.2609250  
O   -10.1783530   -3.4423870    0.2676980  
C    -7.8454290   -3.0758380    0.2407140  
H    -4.8389900   -3.1399530    0.2268180  
H    -8.6415830    0.8830020    0.2657790  
H    -7.6418600   -4.1424500    0.2422610  
H    -5.8457910    0.9255270    0.4991660  
