58


C    -3.7890580   -0.8687350    1.9416070  
C    -4.4781170   -1.9771740    2.2940250  
C    -5.6655840   -2.0388140    1.4698440  
C    -5.6263810   -0.8452580    0.5915600  
N    -4.4537700   -0.1389300    0.9369990  
C    -6.5333360   -0.6015770   -0.3811210  
C    -7.6551830   -1.5349260   -0.5433900  
O    -8.5123010   -1.3796670   -1.3964390  
C    -7.7418400   -2.7720440    0.4153290  
O    -8.6766930   -3.5474040    0.3050180  
C    -6.6693450   -2.9498770    1.3986040  
H    -4.2021970   -2.6788970    3.0682060  
H    -6.5030420    0.2569540   -1.0396010  
H    -6.7056620   -3.8299590    2.0332460  
H    -2.8675840   -0.4724840    2.3442850  
C    -0.4104130    1.0519440   -0.4275430  
C    -1.4536600    0.2846460    0.0277910  
C    -2.6039430    1.1611870    0.0358320  
C    -2.0779920    2.4566960   -0.4655630  
N    -0.8032070    2.3937270   -0.7290310  
C    -2.9230790    3.6090170   -0.6524410  
C    -4.2334770    3.4898460   -0.3417030  
O    -5.1287270    4.4813320   -0.4717960  
C    -4.8096920    2.2142690    0.2025890  
O    -5.9884450    2.2166720    0.5396430  
C    -3.9242100    1.0127920    0.3531080  
H    -1.4144910   -0.7498250    0.3362420  
H    -2.5007610    4.5338930   -1.0282280  
H    -5.9788120    4.1326760   -0.1285920  
C     1.5420250   -2.6391210   -1.9951330  
C     0.5966120   -1.7377510   -1.6305660  
C     1.3320110   -0.5904510   -1.1210260  
C     2.7603220   -0.9889420   -1.2751140  
N     2.8761300   -2.1836940   -1.7804430  
C     3.8500050   -0.1030960   -0.9011010  
C     3.5058680    1.1433050   -0.4621950  
O     4.4009880    2.0861740   -0.1304480  
C     2.0826370    1.5569440   -0.2577260  
O     1.8977800    2.6655360    0.2351080  
C     0.9662370    0.6272960   -0.6291630  
H    -0.4759310   -1.8295220   -1.7165600  
H     3.8669860    2.8465660    0.1946340  
H     1.3964290   -3.6225400   -2.4251650  
C     5.6981190   -1.2466520   -2.1095550  
C     7.0036320   -1.5546940   -1.9291380  
C     7.3930070   -1.0727250   -0.6234100  
C     6.1860210   -0.4369210   -0.0401800  
N     5.1773280   -0.5481490   -1.0053160  
C     6.1333330    0.0741370    1.2137840  
C     7.3464450    0.0405980    2.0323770  
O     7.3821160    0.4781120    3.1719590  
C     8.6462130   -0.5873030    1.4153050  
O     9.6697150   -0.6068290    2.0811460  
C     8.5640660   -1.1394940    0.0624330  
H     7.6379730   -2.0751380   -2.6320940  
H     5.2477150    0.5208200    1.6457210  
H     9.4543670   -1.6069830   -0.3471340  
H     5.0467240   -1.4603790   -2.9426620  
