58


C     3.3574860    0.9758950    1.7600290  
C     3.8276730    2.2414410    1.8415250  
C     4.9239690    2.3638890    0.9058110  
C     5.0708810    1.0372640    0.2603500  
N     4.0902590    0.2054000    0.8386190  
C     5.9480120    0.7826640   -0.7372650  
C     6.8471810    1.8583310   -1.1710870  
O     7.6657680    1.7041130   -2.0618130  
C     6.7416120    3.2520570   -0.4605530  
O     7.4935490    4.1514300   -0.7978160  
C     5.7180040    3.4144660    0.5754980  
H     3.4631190    3.0155170    2.5016300  
H     6.0495650   -0.1779670   -1.2256170  
H     5.6162480    4.3916840    1.0373990  
H     2.5604790    0.4991540    2.3130600  
C     0.2970980   -1.9670410    0.0822300  
C     1.1971620   -0.9453650    0.3121700  
C     2.4899460   -1.5691480    0.3639880  
C     2.2075580   -3.0157180    0.1475200  
N     0.9373790   -3.2437490   -0.0171920  
C     3.2568720   -4.0036810    0.1060790  
C     4.5299440   -3.5804600    0.2698000  
O     5.6003280   -4.3897070    0.2447250  
C     4.8674240   -2.1351650    0.5146900  
O     6.0422560   -1.8554940    0.7343620  
C     3.7732990   -1.1191390    0.5236480  
H     0.9802380    0.1099680    0.3965090  
H     3.0105690   -5.0464410   -0.0581580  
H     6.3767820   -3.8204830    0.4348730  
C    -1.1277050   -1.8574260   -0.0669270  
C    -1.8893760   -0.7089070   -0.0145150  
C    -3.2465870   -1.1289960   -0.2243010  
C    -3.1459850   -2.6173510   -0.3852040  
N    -1.9185530   -3.0339480   -0.2928630  
C    -4.3098460   -3.4365330   -0.5957320  
C    -5.5127470   -2.8184850   -0.6427460  
O    -6.6747280   -3.4529520   -0.8449240  
C    -5.6539540   -1.3239320   -0.4994720  
O    -6.7788200   -0.8515370   -0.6423360  
C    -4.4517910   -0.4857380   -0.2483840  
H    -1.5484110    0.3038610    0.1441500  
H    -4.2046620   -4.5091710   -0.7123230  
H    -7.3619910   -2.7503420   -0.8563090  
C    -2.8775100    3.2390450   -2.1943710  
C    -3.0781210    1.9307890   -1.9023390  
C    -4.0205270    1.9311580   -0.7903460  
C    -4.2896130    3.3864510   -0.5468380  
N    -3.6175570    4.1415980   -1.3678640  
C    -5.2032280    3.8305570    0.4718840  
C    -5.8244440    2.8864800    1.2161300  
O    -6.6878860    3.1575510    2.2059330  
C    -5.5640890    1.4171130    1.0174270  
O    -6.0948600    0.6396260    1.8033850  
C    -4.6412410    0.9615220   -0.0690870  
H    -2.6470630    1.0654230   -2.3842990  
H    -5.3742510    4.8905590    0.6227480  
H    -6.9478090    2.2870020    2.5790320  
H    -2.2425210    3.6556770   -2.9674150  
