62


C     0.4933300    0.6778450   -1.7061930  
C     1.8326600    0.5038840   -1.4909480  
C     2.0085540    0.1455860   -0.1098730  
C     0.7240810    0.1044250    0.4799430  
N    -0.1860540    0.4372000   -0.5167750  
C     0.4918390   -0.2385280    1.8139030  
C     1.5991200   -0.5575140    2.5844390  
O     1.4382530   -0.8869030    3.8938260  
C     2.9054210   -0.5356790    2.0299880  
O     3.8855050   -0.8504580    2.9390530  
C     3.1397110   -0.1857980    0.6905870  
H     2.6041290    0.6019120   -2.2400970  
H    -0.4992580   -0.2512320    2.2533770  
H     2.3249610   -1.0306910    4.2690750  
H     4.7650760   -0.7051810    2.5394240  
H    -0.0589400    0.9516290   -2.5930720  
C    -2.4215770   -0.5273710   -0.5356600  
C    -3.7165030   -0.0822820   -0.3444410  
C    -3.6223370    1.3364270   -0.0274150  
C    -2.2508510    1.6772100   -0.0275960  
N    -1.5433300    0.5182980   -0.3515660  
C    -1.7619990    2.9514410    0.2675750  
C    -2.6979190    3.9246560    0.5819660  
O    -2.2918570    5.1893950    0.8741160  
C    -4.0831630    3.6095160    0.5999830  
O    -4.8887710    4.6787950    0.9300290  
C    -4.5502400    2.3424990    0.3058600  
H    -0.7046010    3.1901300    0.2609170  
H    -3.0892520    5.7157880    1.0589920  
H    -5.8196430    4.4158530    0.8748400  
H    -5.6155270    2.1391570    0.3031430  
H    -2.0547920   -1.4976740   -0.8351040  
C     4.4936330   -0.1275830    0.1591260  
C     5.0583760    0.7294870   -0.7431030  
C     6.4466260    0.3818280   -0.9105990  
C     6.6832200   -0.7824270   -0.0298320  
N     5.4878920   -1.0160940    0.6718100  
C     7.8505450   -1.4575230    0.0498620  
C     8.9798600   -0.9888950   -0.7616870  
O    10.0692500   -1.5372440   -0.7499530  
C     8.7675690    0.2811950   -1.6625090  
O     9.7049920    0.6920420   -2.3297780  
C     7.4459500    0.9065490   -1.6720570  
H     4.5611100    1.5735830   -1.1986200  
H     8.0061210   -2.3168930    0.6952470  
H     7.3015960    1.7692420   -2.3152220  
H     5.2185290   -1.9803130    0.8450270  
C    -4.5225230   -4.3222010    0.7930060  
C    -3.9298400   -3.1062360    0.7026510  
C    -4.8786460   -2.2689420   -0.0283350  
C    -6.0224840   -3.1786710   -0.2894140  
N    -5.8099380   -4.3778830    0.1812550  
C    -7.2094830   -2.7365020   -0.9784140  
C    -7.2606710   -1.4448430   -1.3707440  
O    -8.3125810   -0.8876210   -2.0011070  
C    -6.1240170   -0.4942530   -1.1234700  
O    -6.2750220    0.6620090   -1.5162380  
C    -4.8714900   -0.9685140   -0.4462850  
H    -2.9791890   -2.7997040    1.1141930  
H    -8.0262000   -3.4279890   -1.1534880  
H    -8.0519190    0.0437820   -2.1672920  
H    -4.1408520   -5.2148710    1.2740980  
