62


C     0.9450520   -0.6722860   -2.6712290  
C     2.0895010   -0.9086380   -1.9546100  
C     2.0719920   -0.0325940   -0.8149290  
C     0.8634800    0.7081050   -0.8935910  
N     0.2054030    0.3064980   -2.0386110  
C     0.4577890    1.6553230    0.0667100  
C     1.3180920    1.8137380    1.1534870  
O     0.9986850    2.6683890    2.1579240  
C     2.5297120    1.0807300    1.2660920  
O     3.2471080    1.3866460    2.3998810  
C     2.9555770    0.1789150    0.2858240  
H     2.8520860   -1.6296670   -2.2086200  
H    -0.6804260    0.6721740   -2.3510450  
H     1.7198360    2.5760790    2.8115430  
H     3.5680710    0.5317480    2.7714310  
H     0.5880470   -1.1269490   -3.5844210  
C    -3.7141360    0.1798870   -0.0030840  
C    -4.3328080    1.4296250   -0.1278210  
C    -3.3211240    2.4157760   -0.1585970  
C    -2.0709170    1.7337500   -0.0573790  
N    -2.3392270    0.3945010    0.0271190  
C    -0.8233260    2.3939050   -0.0438040  
C    -0.8749710    3.7842630   -0.1400590  
O     0.2722830    4.5022220   -0.1671450  
C    -2.1198850    4.4828250   -0.2395640  
O    -1.9657740    5.8503870   -0.3299720  
C    -3.3283410    3.8274820   -0.2548720  
H    -5.3935660    1.5965570   -0.2335550  
H    -1.6688190   -0.3605210    0.0886910  
H     0.0278990    5.4443490   -0.1905210  
H    -2.8349090    6.2783200   -0.3319560  
H    -4.2620120    4.3797870   -0.3331890  
C     6.2616030   -0.2786020   -2.6389220  
C     5.1394800    0.1035910   -1.9752260  
C     5.1369270   -0.5733950   -0.6977300  
C     6.3751130   -1.3918710   -0.6703520  
N     6.9979540   -1.1863710   -1.8844180  
C     6.7648660   -2.1861130    0.3607200  
C     5.9235450   -2.2058460    1.5417620  
O     6.1373790   -2.9038970    2.5206660  
C     4.6771310   -1.2432660    1.5789970  
O     4.1224350   -1.1147920    2.6692520  
C     4.2522670   -0.5325220    0.3592840  
H     4.3868510    0.7893740   -2.3300590  
H     7.6500650   -2.8134150    0.3390140  
H     6.6182480    0.0238850   -3.6145830  
H     7.8975670   -1.5632700   -2.1379860  
C    -7.8437050   -1.4700730    0.6735950  
C    -6.8021300   -0.5971160    0.6292510  
C    -5.6368530   -1.4009480    0.2855290  
C    -6.1802380   -2.7686950    0.1720510  
N    -7.4726440   -2.8081040    0.3843080  
C    -5.3499160   -3.9078990   -0.1298420  
C    -4.0231010   -3.7016780   -0.2793750  
O    -3.1283040   -4.6826200   -0.5241940  
C    -3.4274170   -2.3383220   -0.1609040  
O    -2.1971260   -2.2661750   -0.2583340  
C    -4.3052500   -1.1331820    0.0592840  
H    -6.8255480    0.4571450    0.8603010  
H    -5.7920570   -4.8953820   -0.2042720  
H    -2.2540750   -4.2398920   -0.5492940  
H    -8.8792180   -1.2564690    0.9109450  
