58


C    -0.9676380    2.1232220   -0.3903330  
C    -1.7063340    0.9633740   -0.4698440  
C    -3.0295540    1.2408940   -0.0329860  
C    -3.0777120    2.7089700    0.1863650  
N    -1.8036960    3.1817290   -0.0467900  
C    -4.1925350    3.3864390    0.5591770  
C    -5.4063050    2.6174890    0.7943810  
O    -6.4777960    3.1306520    1.0764830  
C    -5.3422510    1.0432200    0.7014110  
O    -6.3373800    0.4246170    1.0489200  
C    -4.0980330    0.4005660    0.2312340  
H    -1.3281830    0.0080950   -0.7869620  
H    -4.2259660    4.4629990    0.6922860  
H    -1.4943880    4.1440020   -0.0812320  
C     2.1844710   -0.7315780    0.5618760  
C     3.2919770   -0.0341090    0.1688340  
C     2.7945180    1.2644230   -0.3062400  
C     1.3197030    1.2175450   -0.1824760  
N     1.0162300   -0.0105800    0.3375720  
C     0.4649650    2.2583540   -0.5080090  
C     1.0863330    3.5370540   -0.8600300  
O     0.4587330    4.5862490   -0.9482790  
C     2.6275180    3.5586860   -1.1320090  
O     3.1231660    4.5619110   -1.6139560  
C     3.4194890    2.3711460   -0.7832820  
H     4.4950840    2.4431710   -0.8848620  
H     2.1176690   -1.7064850    1.0268630  
H     0.1032340   -0.2913930    0.6895120  
C     5.0153770   -3.9043600   -0.9833510  
C     6.3079020   -3.6993280   -0.6259690  
C     6.3993240   -2.3576170   -0.0888200  
C     5.0312160   -1.7898220   -0.1606260  
N     4.2349880   -2.7898520   -0.6833870  
C     4.6759560   -0.5205650    0.2180980  
C     5.7615240    0.3251130    0.7512710  
O     5.5817090    1.4680390    1.1408080  
C     7.2194160   -0.2646470    0.8390810  
O     8.1080040    0.4557620    1.2641270  
C     7.4448160   -1.6379580    0.3994940  
H     7.1212500   -4.4038890   -0.7196580  
H     8.4532030   -2.0342350    0.4652920  
H     4.5533080   -4.7765050   -1.4265920  
H     3.2835050   -2.6483960   -0.9878750  
C    -6.7743300   -2.8420250   -1.3048350  
C    -6.2332040   -1.6453500   -0.9634660  
C    -4.9494810   -1.9016540   -0.3513610  
C    -4.7751560   -3.3787200   -0.3909730  
N    -5.9208750   -3.8868470   -0.9562920  
C    -3.6618400   -4.0580960    0.0015490  
C    -2.5511600   -3.2781120    0.4910930  
O    -1.4402670   -3.7319910    0.7384100  
C    -2.7640880   -1.7309380    0.7010080  
O    -1.8840660   -1.1458570    1.3202750  
C    -3.9755790   -1.0612750    0.1545140  
H    -6.7031900   -0.6837920   -1.0810980  
H    -3.5488790   -5.1325350   -0.1028750  
H    -7.7266420   -3.0567780   -1.7706880  
H    -6.0791840   -4.8625130   -1.1527890  
