64


C    -0.2748520   -1.1579470    2.0897710  
C     0.4192580   -0.0023480    1.8262810  
C    -0.3866360    0.7850570    0.9311430  
C    -1.5878870    0.0541500    0.7176940  
N    -1.4723330   -1.1314790    1.4124550  
C    -2.6595680    0.5074040   -0.0862390  
C    -2.4407330    1.7536990   -0.6688380  
O    -3.4030240    2.3130640   -1.4854530  
C    -1.2495010    2.4986060   -0.4951370  
O    -1.2316670    3.6858930   -1.2022070  
C    -0.1853500    2.0325170    0.2767770  
H     1.3792250    0.2686190    2.2412760  
H    -2.2090140   -1.8175460    1.4874550  
H    -3.0330330    3.1798650   -1.7522110  
H    -0.8774870    4.3811980   -0.6052970  
H     0.0024000   -2.0153300    2.6869820  
C    -5.4462070   -1.6297860    2.7450630  
C    -4.4628610   -0.8367350    2.2117740  
C    -4.5888090   -0.9023050    0.7775640  
C    -5.6938210   -1.7530470    0.5070570  
N    -6.1853020   -2.1896810    1.7209180  
C    -6.1567990   -2.0209230   -0.7865240  
C    -5.4966750   -1.3895470   -1.8266970  
O    -5.9011950   -1.5767200   -3.1137070  
C    -4.3834390   -0.5370440   -1.5893270  
O    -3.8267830   -0.0195710   -2.7412030  
C    -3.8867770   -0.2981680   -0.3059170  
H    -3.7522590   -0.2498630    2.7755400  
H    -6.9842410   -2.7923780    1.8390150  
H    -7.0049070   -2.6666110   -0.9903860  
H    -5.3073500   -1.0185980   -3.6520310  
H    -3.6571600    0.9358440   -2.5857930  
H    -5.6893660   -1.8390860    3.7772500  
C     3.9334340    0.5819580   -0.4520110  
C     4.5877570    1.7814040   -0.2489160  
C     3.6008470    2.7613500    0.0836980  
C     2.3416430    2.1015600    0.0799040  
N     2.5760040    0.7853010   -0.2500680  
C     1.1115050    2.7523060    0.3385690  
C     1.2201010    4.1189890    0.5930410  
O     0.0778470    4.8648810    0.8249150  
C     2.4631510    4.7959490    0.6143620  
O     2.3512960    6.1464430    0.8948440  
C     3.6529490    4.1398280    0.3706540  
H     5.6584870    1.9275390   -0.2927440  
H     1.8523980    0.0911880   -0.3638870  
H     0.3665620    5.7779110    1.0066440  
H     3.2335230    6.5428640    0.9431630  
H     4.5978460    4.6786210    0.3836500  
C     5.5261970   -0.9665170   -1.6353560  
C     4.4660650   -0.7238910   -0.8095580  
C     4.0180750   -2.0301820   -0.3249680  
C     4.9125300   -3.0386190   -0.9467590  
N     5.8138880   -2.3247950   -1.7101380  
C     4.8111320   -4.3789250   -0.7541430  
C     3.7682690   -4.8777570    0.1372210  
O     3.5988670   -6.0650670    0.3699020  
C     2.8307460   -3.8246870    0.8324570  
O     1.9654570   -4.2143940    1.6021080  
C     3.0331280   -2.4039900    0.5319160  
H     5.4736230   -5.1005690   -1.2222570  
H     2.3689750   -1.6978290    1.0182620  
H     6.1168060   -0.2556700   -2.1974960  
H     6.5115630   -2.7359810   -2.3102230  
