60


C    -1.1692750   -0.9778250    0.2984170  
C    -0.7484270    0.3259330    0.0738000  
C    -1.9596390    1.1060550   -0.1355100  
C    -3.0527080    0.2156050   -0.0039370  
N    -2.5341540   -1.0373580    0.2809870  
C    -4.4012890    0.5819470   -0.1902670  
C    -4.6308210    1.9147250   -0.5392860  
O    -5.9045050    2.3616810   -0.6915000  
C    -3.5503320    2.8175830   -0.6951990  
O    -3.9452190    4.0966290   -1.0359250  
C    -2.2349940    2.4380310   -0.5023540  
H    -3.0790520   -1.8851940    0.3274460  
H    -5.8540350    3.2789050   -1.0128690  
H    -3.1625150    4.6399770   -1.2104230  
H    -1.4353140    3.1617790   -0.6086650  
H    -0.5737650   -1.8611600    0.4607920  
C     2.7903050   -1.9587910   -1.0800590  
C     3.8148420   -1.0797700   -0.8773340  
C     3.1388600    0.1445130   -0.3943830  
C     1.6915500   -0.2103080   -0.3641400  
N     1.5111200   -1.4351690   -0.7799220  
C     0.6515580    0.7364890    0.0505640  
C     1.1129260    1.9811410    0.4022680  
O     0.3171640    2.9721700    0.8732580  
C     2.5365450    2.3724190    0.3332610  
O     2.8508350    3.5179090    0.6783000  
C     3.5510660    1.3901480   -0.1084250  
H     0.9355540    3.7172440    1.0475480  
H     4.5791270    1.7335870   -0.1649240  
H     2.8677980   -2.9859170   -1.4160090  
C     5.7866630   -1.9911960   -2.1652830  
C     5.2225540   -1.2860230   -1.1393520  
C     6.3837400   -0.8500160   -0.3292120  
C     7.5646030   -1.3954560   -1.0606530  
N     7.2012490   -2.0610620   -2.1237260  
C     8.9072940   -1.1950910   -0.5866220  
C     9.0772500   -0.5154240    0.5737500  
O    10.2719440   -0.2595880    1.1307060  
C     7.9077210    0.0124890    1.3536910  
O     8.1355920    0.6106940    2.4030960  
C     6.5353220   -0.1998680    0.8394270  
H     9.7441980   -1.5942990   -1.1488110  
H    10.0775290    0.2350150    1.9566310  
H     5.7210830    0.1860590    1.4445190  
H     5.2664940   -2.4628980   -2.9905600  
C    -5.7117430   -1.7801880    3.2626790  
C    -6.7592210   -2.4480510    2.7130750  
C    -6.8594770   -2.0312400    1.3293650  
C    -5.7644350   -1.0550920    1.1159660  
N    -5.0852940   -0.9712290    2.3207090  
C    -5.5124330   -0.3828290   -0.0451590  
C    -6.3965180   -0.6964240   -1.1902860  
O    -6.2275540   -0.2318430   -2.3030500  
C    -7.5832620   -1.7096250   -0.9741590  
O    -8.3416930   -1.9256520   -1.9068660  
C    -7.7260400   -2.3516420    0.3308410  
H    -7.4018250   -3.1577960    3.2134140  
H    -8.5432790   -3.0539480    0.4636730  
H    -5.3311210   -1.8165310    4.2751180  
H    -4.3869510   -0.2703990    2.5197320  
