60


C    -1.6342760   -1.0151440   -0.1749550  
C    -0.4707650   -1.7228330   -0.4188170  
C     0.6177910   -0.8139030   -0.2732060  
C     0.0719750    0.4495530    0.0751840  
N    -1.2942640    0.2934550    0.1594450  
C     0.8413990    1.6169550    0.2845660  
C     2.2225810    1.4478510    0.1371030  
O     3.0617900    2.4969380    0.3361540  
C     2.8011880    0.1975550   -0.2183580  
O     4.1661730    0.2433810   -0.3795970  
C     2.0201070   -0.9342750   -0.4214570  
H    -0.4148370   -2.7826230   -0.6227630  
H    -1.9401470    1.0716440    0.1514610  
H     3.9697010    2.1544000    0.2277700  
H     4.5770910   -0.5964900   -0.0994150  
C    -3.0052270   -1.4538560   -0.1881190  
C    -3.5775930   -2.5163260   -0.8361930  
C    -4.9830740   -2.5256450   -0.5288530  
C    -5.2127330   -1.3701590    0.3711170  
N    -3.9903320   -0.7119490    0.4945010  
C    -6.4041170   -1.0653530    0.9363630  
C    -7.5600430   -1.9053450    0.6153170  
O    -8.6718640   -1.7018970    1.0758780  
C    -7.3505150   -3.1075180   -0.3758850  
O    -8.3097820   -3.8082520   -0.6631780  
C    -6.0075590   -3.3422720   -0.9031830  
H    -3.0693330   -3.1912580   -1.5099120  
H    -6.5541050   -0.2208230    1.6022070  
H    -5.8692830   -4.1867280   -1.5714740  
H    -3.7663800   -0.1910680    1.3324790  
C     2.3171520   -2.8549890   -2.0011750  
C     3.1115020   -3.9398350   -2.1540280  
C     3.9989230   -3.9905180   -1.0092880  
C     3.6384110   -2.8283110   -0.1588080  
N     2.6087970   -2.1662580   -0.8078920  
C     4.2404150   -2.5291520    1.0279820  
C     5.3145750   -3.4021390    1.5029910  
O     5.8926610   -3.2262120    2.5629860  
C     5.7280810   -4.6208740    0.6021500  
O     6.6428810   -5.3423080    0.9618970  
C     4.9864840   -4.8474820   -0.6457220  
H     3.0961080   -4.6352990   -2.9806230  
H     3.9032250   -1.7318580    1.6843750  
H     5.2642930   -5.7098820   -1.2442310  
H     1.5426080   -2.4648280   -2.6471270  
C    -0.8176110    3.0756520    1.5369680  
C     0.2157120    2.8872090    0.6637690  
C     0.4942550    4.2473630    0.1521060  
C    -0.4954160    5.1136170    0.8581240  
N    -1.2516630    4.4199070    1.6647820  
C    -0.5612500    6.5328810    0.6303730  
C     0.2977320    7.0704290   -0.2685340  
O     0.3442060    8.3734380   -0.5831330  
C     1.2937810    6.2207060   -1.0096260  
O     2.0374270    6.7775260   -1.8137830  
C     1.3476660    4.7645680   -0.7502120  
H    -1.2874720    7.1334520    1.1666370  
H     1.0565150    8.4589110   -1.2541430  
H     2.0959130    4.1931920   -1.2866470  
H    -1.2969090    2.3217820    2.1515940  
