60


C     1.5274380    0.1619430   -1.1360210  
C     2.8682110    0.2452220   -0.8626710  
C     3.0675050    1.3609490    0.0268100  
C     1.7921250    1.9300910    0.2485930  
N     0.8567580    1.1844100   -0.4768870  
C     1.6015770    3.0221490    1.1025750  
C     2.7215520    3.5530120    1.7220200  
O     2.5889680    4.6166730    2.5618440  
C     4.0111760    2.9982670    1.4959780  
O     5.0199830    3.6396670    2.1815760  
C     4.1963960    1.9142550    0.6593760  
H     0.6322340    3.4711650    1.2793420  
H     3.4762880    4.8398010    2.8923600  
H     5.8625920    3.1882890    2.0236740  
H     5.1867280    1.4933900    0.5045950  
H     0.9903510   -0.5233600   -1.7749640  
C    -2.4592410   -1.5277960    0.3602050  
C    -1.2324900   -0.9640670    0.2335660  
C    -1.4216270    0.3800720   -0.2538490  
C    -2.8817080    0.5668390   -0.4112220  
N    -3.4721560   -0.6496350   -0.0496190  
C    -3.4721100    1.7351480   -0.7651520  
C    -2.6166470    2.8797370   -1.0579720  
O    -3.0534620    3.9828300   -1.3438130  
C    -1.0581610    2.6893860   -1.0023080  
O    -0.3369970    3.6064290   -1.3509660  
C    -0.5376130    1.3866790   -0.5345260  
H    -0.2900730   -1.4296920    0.4792470  
H    -4.5422990    1.8680170   -0.8476960  
H    -2.7315630   -2.5053120    0.7270980  
C    -5.7720090   -2.5422790    3.0865370  
C    -7.0204720   -2.5082080    2.5697700  
C    -6.8785530   -1.8809320    1.2583990  
C    -5.4158860   -1.5914370    1.1571060  
N    -4.7762550   -1.9799580    2.2179870  
C    -4.8462900   -0.9487520   -0.0196730  
C    -5.6985400   -0.6670320   -1.0477820  
O    -5.3115520   -0.1236480   -2.2125280  
C    -7.1676340   -0.9401970   -0.9550050  
O    -7.8576740   -0.6493760   -1.9311390  
C    -7.7256710   -1.5661640    0.2610920  
H    -7.9401690   -2.8593920    3.0162220  
H    -6.1369950   -0.0299220   -2.7405070  
H    -8.7954950   -1.7497260    0.2771230  
H    -5.4520760   -2.9314730    4.0450240  
C     4.2223790   -0.6526010   -2.7622550  
C     5.2117400   -1.5551810   -2.9824790  
C     5.5541420   -2.1363800   -1.7027950  
C     4.6625020   -1.4894090   -0.7067630  
N     3.8686410   -0.5892400   -1.4102240  
C     4.6619990   -1.7728130    0.6210570  
C     5.6048310   -2.7719100    1.1160160  
O     5.6793340   -3.0921580    2.2932110  
C     6.5665580   -3.4639470    0.0800290  
O     7.3636730   -4.2989130    0.4801290  
C     6.4626050   -3.0764110   -1.3280210  
H     5.6650370   -1.7909650   -3.9343910  
H     3.9967080   -1.2905100    1.3290060  
H     7.1256780   -3.5654660   -2.0354080  
H     3.7074630   -0.0053060   -3.4598660  
