62


C    -0.4258860   -1.4810430   -0.4215700  
C     0.9289330   -1.4466030   -0.1871120  
C     1.2909810   -0.0675990   -0.0253450  
C     0.0928410    0.6867630   -0.1369660  
N    -0.9308870   -0.1971960   -0.4162560  
C     0.0184210    2.0890950    0.0118510  
C     1.2460320    2.6946870    0.2767130  
O     1.3162930    4.0610070    0.4215570  
C     2.4595310    1.9783990    0.4084070  
O     3.5431280    2.7850900    0.6637240  
C     2.5294920    0.5925820    0.2316290  
H     1.5752150   -2.3080640   -0.1147040  
H    -1.9005370    0.0670740   -0.5149910  
H     2.2515440    4.2475350    0.6473080  
H     4.0800600    2.3294670    1.3561890  
C    -4.0719520    1.4539770    1.7830290  
C    -2.7225590    1.4145960    1.5320960  
C    -2.4414970    2.4084900    0.5288350  
C    -3.6760460    3.0455480    0.2332980  
N    -4.6481800    2.4315190    0.9982950  
C    -3.7860610    4.1176590   -0.6597310  
C    -2.6141850    4.5651240   -1.2480690  
O    -2.6374280    5.6207120   -2.1075880  
C    -1.3663550    3.9358270   -0.9865050  
O    -0.3106340    4.4756450   -1.6903350  
C    -1.2555020    2.8325600   -0.1364470  
H    -2.0062520    0.7833450    2.0385290  
H    -5.6268350    2.6733650    0.9983020  
H    -4.7273440    4.6109590   -0.8794420  
H    -1.7078380    5.7634140   -2.3696970  
H     0.4508440    4.5554010   -1.0753460  
H    -4.6740450    0.8418700    2.4396780  
C     4.3777320   -2.3554520   -2.5325390  
C     3.5959980   -1.3995040   -1.9637770  
C     4.1714390   -1.0740080   -0.6782520  
C     5.3753340   -1.9314480   -0.5451410  
N     5.4254010   -2.7041650   -1.6886570  
C     6.2198020   -1.9343350    0.5188340  
C     5.9462900   -0.9938990    1.5892190  
O     6.6007080   -0.9196070    2.6169370  
C     4.7547710    0.0175200    1.3978420  
O     4.7020650    0.9526460    2.1952410  
C     3.7986490   -0.1649800    0.2906630  
H     2.7179810   -0.9482220   -2.3977810  
H     7.0659170   -2.6064790    0.6174200  
H     4.2831690   -2.8337330   -3.4985200  
H     6.1791340   -3.3312240   -1.9227120  
C    -0.8636760   -3.6514720   -1.5267130  
C    -1.8148260   -4.6151680   -1.5710300  
C    -2.9080780   -4.1825530   -0.7263730  
C    -2.5017970   -2.8702360   -0.1650860  
N    -1.2430490   -2.5849380   -0.6989750  
C    -3.2533330   -2.1483900    0.7038290  
C    -4.5611260   -2.6685050    1.0928330  
O    -5.3098150   -2.0729580    1.8548240  
C    -5.0188460   -4.0489620    0.4988490  
O    -6.1097770   -4.4985190    0.8124960  
C    -4.1052590   -4.7439010   -0.4127550  
H    -1.7732550   -5.5304110   -2.1435100  
H    -2.9501320   -1.1942900    1.1165420  
H    -4.4235740   -5.7034950   -0.8087490  
H     0.0910530   -3.5938190   -2.0313090  
