60


C    -1.0661770   -1.1575950   -0.2258250  
C    -2.1699110   -0.3079600   -0.0324830  
C    -3.3456830   -1.0952750   -0.0694460  
C    -2.9213640   -2.4471800   -0.2747530  
N    -1.5593720   -2.4455740   -0.3774510  
C    -3.8102060   -3.5250670   -0.3066620  
C    -5.1453930   -3.2318580   -0.0883160  
O    -6.0659510   -4.2195440   -0.0704990  
C    -5.6050600   -1.8891970    0.1229780  
O    -6.9575270   -1.8114720    0.2983020  
C    -4.7410740   -0.7976250    0.0929640  
H    -2.1137760    0.7406370    0.2118340  
H    -0.9350650   -3.2387300   -0.4733290  
H    -3.4911350   -4.5510230   -0.4530000  
H    -6.9187650   -3.7899140    0.1416140  
H    -7.1260520   -1.1179730    0.9858380  
C     1.3345330    2.5971930   -0.6128480  
C     0.3227320    1.6857760   -0.5999100  
C     0.9020500    0.3947690   -0.3143230  
C     2.3379150    0.6232350   -0.1581780  
N     2.5350390    1.9745210   -0.3131440  
C     3.3203090   -0.3358320    0.0622290  
C     2.8317290   -1.7177010    0.1561850  
O     3.4982350   -2.6725270    0.5075730  
C     1.3162580   -2.0009650   -0.1514260  
O     1.0005190   -3.1729160   -0.3098520  
C     0.3417110   -0.8785570   -0.2215250  
H    -0.7114800    1.8972580   -0.8164910  
H     1.3072720    3.6599280   -0.8107370  
H     3.4558250    2.3821790   -0.4033160  
C     4.7167370   -0.0131790    0.2041280  
C     5.2929900    1.1503640    0.6839470  
C     6.7126410    0.9647310    0.5648200  
C     6.8510580   -0.3933160   -0.0556460  
N     5.6968340   -0.9600330   -0.2540350  
C     8.1426540   -0.9461190   -0.3722500  
C     9.2331500   -0.2076220   -0.0590610  
O    10.4971540   -0.5924390   -0.2822830  
C     9.1256120    1.1566340    0.5891100  
O    10.1855790    1.7428090    0.8273650  
C     7.8062720    1.7059470    0.8833340  
H     4.8039750    1.9681430    1.1966200  
H     8.2172160   -1.9261250   -0.8299800  
H    11.0489060    0.1513010    0.0536260  
H     7.7655230    2.6911470    1.3377620  
C    -3.8059840    2.6931260   -2.4044060  
C    -4.4859810    3.6616720   -1.7411710  
C    -5.1532070    3.0263530   -0.6231640  
C    -4.7894820    1.5872650   -0.6849850  
N    -3.9814400    1.4557780   -1.7883840  
C    -5.2088960    0.6062340    0.1889490  
C    -6.1882150    1.0519570    1.1787820  
O    -6.8338410    0.2859410    1.8976680  
C    -6.4929650    2.5864570    1.3482050  
O    -7.1829190    2.9356270    2.2909520  
C    -5.9587390    3.5138440    0.3562960  
H    -4.5413450    4.7077020   -2.0044580  
H    -6.2121500    4.5648150    0.4503580  
H    -3.1990790    2.7641400   -3.2973330  
H    -3.5173660    0.5967630   -2.0450300  
