58


C    -5.5768610    0.6835010   -1.8633280  
C    -5.6962600    2.0277550   -1.9664020  
C    -4.9359070    2.6195920   -0.8883190  
C    -4.3530370    1.4870620   -0.1252030  
N    -4.7486240    0.3213860   -0.7834670  
C    -3.6189360    1.6350680    1.0084740  
C    -3.3405780    2.9888980    1.4887330  
O    -2.6826170    3.2086530    2.4937240  
C    -3.9102460    4.2002050    0.6680860  
O    -3.6637560    5.3364070    1.0398990  
C    -4.7256960    3.9081380   -0.5134290  
H    -6.2639310    2.5618990   -2.7144860  
H    -3.2440040    0.8052100    1.5956130  
H    -5.1509740    4.7494840   -1.0521580  
H    -6.0107730   -0.0958220   -2.4707380  
C    -0.9418070   -1.6229660    0.2013730  
C    -1.4494520   -2.8711830    0.4851450  
C    -2.8725890   -2.8314610    0.2906370  
C    -3.1846760   -1.4494400   -0.1364590  
N    -1.9915920   -0.7742440   -0.1704290  
C    -4.4497770   -1.0066610   -0.4216120  
C    -5.5487070   -1.9855640   -0.3512320  
O    -6.7003360   -1.7035570   -0.6390270  
C    -5.2170510   -3.4577340    0.0952250  
O    -6.1330570   -4.2624920    0.1485190  
C    -3.8325910   -3.7937910    0.4053930  
H    -0.8793340   -3.7489180    0.7445190  
H    -3.6119860   -4.8105170    0.7138930  
H    -1.8375230    0.1676380   -0.5033160  
C     2.8481420   -3.0694540    2.0915830  
C     1.5300480   -2.9264130    1.8024940  
C     1.4575140   -1.8020210    0.8864480  
C     2.8873620   -1.3669080    0.7426790  
N     3.6885410   -2.1217700    1.4355260  
C     3.2793850   -0.2293520   -0.0669270  
C     2.2684280    0.4498480   -0.6762280  
O     2.4708630    1.5125470   -1.4632270  
C     0.8283720    0.0571060   -0.5363730  
O     0.0048040    0.7972430   -1.0782990  
C     0.4416790   -1.1736390    0.2193760  
H     0.7056550   -3.4884360    2.2130470  
H     1.5834940    1.8429670   -1.7205430  
H     3.3075330   -3.7926020    2.7546600  
C     7.1166490   -2.0814660   -1.4704500  
C     5.8136870   -1.9284970   -1.1394240  
C     5.7102400   -0.5703910   -0.6189930  
C     7.1100910   -0.0378870   -0.7209920  
N     7.9223460   -0.9221880   -1.2215310  
C     7.4445860    1.3016400   -0.3159160  
C     6.4485620    2.0792210    0.1663890  
O     6.6172330    3.3401870    0.5929290  
C     5.0329050    1.5791690    0.2875900  
O     4.2094690    2.3379820    0.7888860  
C     4.6889390    0.1989840   -0.1693590  
H     5.0151320   -2.6508940   -1.2158120  
H     8.4662430    1.6550500   -0.3985500  
H     5.7328900    3.6363290    0.9012080  
H     7.5975270   -2.9576010   -1.8891420  
