62


C     1.3358760   -0.5968980   -1.4080250  
C     0.5475460    0.2262200   -0.6289720  
C     1.4593640    1.0921870    0.0873960  
C     2.7721910    0.7303320   -0.3034280  
N     2.6685290   -0.2871280   -1.2260210  
C     3.9157260    1.3629790    0.2227120  
C     3.7135990    2.3875130    1.1456980  
O     4.7851650    3.0447150    1.6732770  
C     2.4002380    2.7652280    1.5234780  
O     2.3738350    3.8031640    2.4342300  
C     1.2816070    2.1322670    1.0188530  
H     3.4457190   -0.7861830   -1.6305600  
H     4.4331770    3.7138710    2.2869560  
H     1.4548450    4.0300280    2.6402990  
H     0.2849560    2.4548060    1.3025090  
H     1.0429250   -1.3485010   -2.1278640  
C    -2.1103440   -3.2377380   -0.2113260  
C    -3.3128390   -2.5748310   -0.2369990  
C    -3.0254670   -1.1667190   -0.3423570  
C    -1.6130270   -1.0486030   -0.3998460  
N    -1.0873000   -2.3223660   -0.3134420  
C    -0.9215780    0.1734180   -0.5438740  
C    -1.7409520    1.2984780   -0.6388630  
O    -1.1953280    2.5367790   -0.8060820  
C    -3.1586790    1.2162250   -0.5791980  
O    -3.7751830    2.4407570   -0.6748960  
C    -3.8369520    0.0069280   -0.4008710  
H    -4.2863480   -3.0437170   -0.2349220  
H    -0.1002830   -2.5213580   -0.2515240  
H    -1.9611430    3.1348640   -0.9212200  
H    -4.5656140    2.3200750   -1.2570700  
H    -1.8997960   -4.2959450   -0.1468210  
C    -6.2514830   -2.0901910    2.6035420  
C    -7.5023320   -1.8189860    2.1517820  
C    -7.3603110   -0.9817580    0.9794320  
C    -5.9009130   -0.7934560    0.7788600  
N    -5.2913050   -1.4688680    1.8108490  
C    -5.3078300   -0.0694070   -0.2330770  
C    -6.2449520    0.6472350   -1.0986710  
O    -5.9024530    1.4903600   -1.9304810  
C    -7.7930690    0.3836510   -0.9748750  
O    -8.5295580    0.8882230   -1.8068160  
C    -8.2721110   -0.4255620    0.1381550  
H    -8.4328010   -2.1493260    2.5896710  
H    -9.3424120   -0.5723590    0.2409170  
H    -5.9405980   -2.6787360    3.4566120  
H    -4.2974350   -1.6484090    1.8449270  
C     6.1801370    1.8837320   -0.7110080  
C     7.3405410    1.2492760   -1.0070640  
C     7.1758510   -0.1416110   -0.6460320  
C     5.7996420   -0.2631300   -0.0988460  
N     5.2287590    1.0006360   -0.1795760  
C     5.2685900   -1.4204320    0.3799950  
C     6.0838500   -2.6305780    0.3379560  
O     5.6846830   -3.7149220    0.7373400  
C     7.5363800   -2.5270300   -0.2551760  
O     8.2263210   -3.5333440   -0.3098910  
C     8.0023410   -1.2181850   -0.7191400  
H     8.2269280    1.6988590   -1.4304990  
H     4.2773330   -1.4839100    0.8148000  
H     9.0138620   -1.1535120   -1.1087800  
H     5.9122160    2.9243640   -0.8248130  
