64


C    -0.8559150    0.2905370    1.8605380  
C    -2.2215520    0.1917360    1.8840230  
C    -2.7041990    0.6825420    0.6234900  
C    -1.5670220    1.0617410   -0.1335150  
N    -0.4397000    0.8203290    0.6433130  
C    -1.6536890    1.5454960   -1.4429750  
C    -2.9190910    1.6579800   -1.9935180  
O    -3.0661580    2.1347910   -3.2639910  
C    -4.0749750    1.3006350   -1.2510870  
O    -5.2524340    1.5164330   -1.9407830  
C    -3.9987800    0.8100810    0.0518610  
H    -2.8120840   -0.1903700    2.7048870  
H    -0.7827290    1.8336010   -2.0194040  
H    -4.0192800    2.1422540   -3.4587310  
H    -6.0100860    1.2457610   -1.3998280  
H    -0.1217230    0.0547030    2.6181030  
C     2.6510850   -2.1862530    0.0567380  
C     3.6827430   -1.3386330   -0.2806150  
C     3.1321200   -0.0010840   -0.2378500  
C     1.7707960   -0.1210640    0.1336780  
N     1.5014540   -1.4593060    0.3071340  
C     0.9154410    0.9893260    0.2537850  
C     1.4520900    2.2462510   -0.0189700  
O     0.6742260    3.3588340    0.0884530  
C     2.8091050    2.3710920   -0.4177160  
O     3.1892530    3.6784930   -0.6629210  
C     3.6480920    1.2780080   -0.5264400  
H     0.5994140   -1.8383040    0.5511140  
H     1.2221730    4.1149410   -0.1862480  
H     4.0867060    3.6895520   -1.0271580  
H     4.6825570    1.4019250   -0.8374710  
H     2.6565080   -3.2620700    0.1601380  
C     5.4139450   -2.6960050   -1.5419720  
C     5.0503510   -1.7254850   -0.6353840  
C     6.2847740   -1.1891550   -0.1041430  
C     7.3525530   -1.8787320   -0.7341090  
N     6.7910590   -2.7960100   -1.5995030  
C     8.6979140   -1.6168150   -0.4446940  
C     8.9712820   -0.6443200    0.5045530  
O    10.2661380   -0.3491960    0.8251620  
C     7.9153890    0.0468660    1.1552150  
O     8.3458200    0.9823630    2.0810290  
C     6.5885720   -0.2134380    0.8667400  
H     7.3044780   -3.4138950   -2.2077150  
H     9.5172820   -2.1438370   -0.9232140  
H    10.2395580    0.3271360    1.5237230  
H     7.5811740    1.3292010    2.5637900  
H     5.7951780    0.3219090    1.3835990  
H     4.7877060   -3.3129270   -2.1710080  
C    -5.5191140    0.8963840    2.0786330  
C    -5.2112010    0.4665150    0.8189190  
C    -6.3057590   -0.4173360    0.4181720  
C    -7.2670860   -0.4445190    1.5507400  
N    -6.7225190    0.3653740    2.5264710  
C    -8.4254810   -1.1512600    1.5607400  
C    -8.7613710   -1.9533750    0.3875930  
O    -9.7847710   -2.6144920    0.3029110  
C    -7.7473550   -1.9629420   -0.8142100  
O    -7.9987150   -2.6449670   -1.7946330  
C    -6.5319870   -1.1472430   -0.7090190  
H    -9.1143070   -1.1562320    2.4000680  
H    -5.8360620   -1.1718850   -1.5417440  
H    -4.9539660    1.5674450    2.7117640  
H    -7.1514690    0.5651290    3.4164000  
