58


C    -3.4896930   -0.0259050   -0.0334320  
C    -3.6921280    1.2617540    0.4500360  
C    -5.0894530    1.5516290    0.3754020  
C    -5.7334940    0.3388710   -0.1878870  
N    -4.7185020   -0.5613810   -0.4158500  
C    -7.0675770    0.2164400   -0.4065440  
C    -7.9353060    1.3427820   -0.0728280  
O    -9.1459750    1.3227810   -0.2356780  
C    -7.2746450    2.6382630    0.5253880  
O    -7.9862640    3.5915320    0.8097660  
C    -5.8262630    2.6506150    0.7185150  
H    -2.9438060    1.9036360    0.8868780  
H    -7.5234450   -0.6793350   -0.8163240  
H    -5.3800630    3.5491280    1.1344210  
H    -4.7993300   -1.5304410   -0.7016250  
C     0.8480620    1.0897200   -0.0964350  
C    -0.5395620    1.1021380   -0.1275470  
C    -0.9934830   -0.2423810   -0.0765510  
C     0.2227180   -1.0824590   -0.0253370  
N     1.2925160   -0.2143710   -0.0055810  
C     0.2529480   -2.4515140   -0.0329080  
C    -1.0594400   -3.1245750   -0.0761280  
O    -1.1959560   -4.3220760    0.0896940  
C    -2.3490630   -2.2635250   -0.2810000  
O    -3.3786330   -2.8698620   -0.5587900  
C    -2.2764170   -0.8009200   -0.1162620  
H    -1.1477250    1.9849600   -0.2399660  
H     2.2737490   -0.4558260   -0.0320210  
C     1.8047030    2.1555190   -0.1606270  
C     1.6051810    3.5091120   -0.2548400  
C     2.9265970    4.0863180   -0.2910540  
C     3.8523060    2.9094650   -0.2052330  
N     3.1917660    1.7886300   -0.1281530  
C     5.2807210    3.0724950   -0.2126530  
C     5.7676430    4.3340960   -0.3001730  
O     7.0693610    4.6359330   -0.3170970  
C     4.8599600    5.5427940   -0.3879310  
O     5.4001570    6.6453640   -0.4629010  
C     3.4050740    5.3515250   -0.3792690  
H     0.6661090    4.0428670   -0.2971970  
H     5.9311150    2.2072180   -0.1525340  
H     7.1123320    5.6166140   -0.3883110  
H     2.7836410    6.2390890   -0.4450500  
C     3.7434340   -2.6468710    2.7581590  
C     2.5730600   -2.3164600    2.1475500  
C     2.4478480   -3.1513500    0.9724120  
C     3.6551460   -4.0135030    0.9551380  
N     4.4064780   -3.6403900    2.0553420  
C     3.9109640   -4.9813250    0.0388750  
C     2.9357000   -5.1985570   -1.0226180  
O     3.0527760   -6.0678720   -1.8708110  
C     1.6856760   -4.2514680   -1.0821700  
O     0.9581010   -4.3078510   -2.0557170  
C     1.4722440   -3.2652520    0.0130990  
H     1.8635970   -1.5799370    2.4924450  
H     4.7914850   -5.6156280    0.0683600  
H     4.1768860   -2.2476850    3.6656800  
H     5.2603380   -4.0904980    2.3463220  
