64


C    -0.9301680   -1.0221160    0.0790840  
C     0.3694280   -1.3312960   -0.2641550  
C     1.1308910   -0.1182760   -0.2405220  
C     0.2345740    0.9183410    0.1339010  
N    -1.0100430    0.3517870    0.3010940  
C     0.6444870    2.2554760    0.2828360  
C     1.9928960    2.5313190    0.0509310  
O     2.4532230    3.8110790    0.1748400  
C     2.8908830    1.5040130   -0.3190400  
O     4.1762780    1.9612930   -0.5359670  
C     2.4984670    0.1752660   -0.4815430  
H     0.7269990   -2.3136640   -0.5345720  
H    -1.8011430    0.8127940    0.7241360  
H     3.3893420    3.7958300   -0.0945080  
H     4.7050600    1.2427960   -0.9235140  
C    -2.1073170   -1.8549320    0.1872490  
C    -2.2337680   -3.1814440    0.5410320  
C    -3.6256620   -3.5125010    0.4923960  
C    -4.3190840   -2.3369990    0.0999330  
N    -3.3816540   -1.3275390   -0.0419930  
C    -5.7068600   -2.2996270   -0.0725860  
C    -6.4123680   -3.4693180    0.1681250  
O    -7.7676850   -3.4898610    0.0134610  
C    -5.7383540   -4.6503380    0.5804490  
O    -6.5799340   -5.7272770    0.7895730  
C    -4.3667820   -4.6847390    0.7468170  
H    -1.4212460   -3.8243030    0.8511100  
H    -3.5437440   -0.4925820   -0.5884670  
H    -6.2391920   -1.4052860   -0.3797600  
H    -8.0685280   -4.3895800    0.2280880  
H    -6.0570860   -6.4980740    1.0549450  
H    -3.8726420   -5.6022120    1.0606990  
C    -0.0289730    4.1748200    1.7393670  
C    -1.0648110    5.0339300    1.8975440  
C    -2.0433570    4.7208820    0.8796490  
C    -1.4733630    3.5950730    0.0947630  
N    -0.2487090    3.2876250    0.6746900  
C    -2.0882480    3.0287150   -0.9789220  
C    -3.4120430    3.5108190   -1.3574980  
O    -4.0641170    3.0145490   -2.2658470  
C    -4.0287420    4.7068260   -0.5449570  
O    -5.1249420    5.1387820   -0.8666660  
C    -3.2558810    5.2527880    0.5728410  
H    -1.1452700    5.8107760    2.6439830  
H    -1.6449990    2.2324100   -1.5652100  
H    -3.6864690    6.0834130    1.1240510  
H     0.8939390    4.0955770    2.2951640  
C     3.2786460   -1.7541850   -1.9378920  
C     3.4632000   -0.8527820   -0.9095410  
C     4.7822220   -1.1252480   -0.3689920  
C     5.3319600   -2.1952490   -1.1219260  
N     4.3917610   -2.5549230   -2.0663440  
C     6.5966280   -2.7364260   -0.8602440  
C     7.3224890   -2.1908420    0.1866090  
O     8.5608190   -2.6782750    0.4821080  
C     6.7845860   -1.1285190    0.9623770  
O     7.6217700   -0.7010520    1.9739960  
C     5.5355980   -0.5962160    0.7026240  
H     4.5045930   -3.2857470   -2.7516340  
H     7.0168750   -3.5557880   -1.4344420  
H     8.8926170   -2.1798690    1.2488880  
H     7.1837300   -0.0053890    2.4863920  
H     5.1421360    0.2087280    1.3184100  
H     2.4352190   -1.8656950   -2.6041350  
