62


C     3.5666690    0.0825090   -0.1086210  
C     4.5855070    1.0113760    0.0292200  
C     3.9810890    2.2987280    0.1159940  
C     2.5738980    2.1068650    0.0289230  
N     2.3523310    0.7571650   -0.0947030  
C     1.6284490    3.1586920    0.0492980  
C     2.1854620    4.4314320    0.1521680  
O     1.3642690    5.5380570    0.1547020  
C     3.5857810    4.6507100    0.2527430  
O     3.9196300    5.9856250    0.3573370  
C     4.4884910    3.6094880    0.2451540  
H     5.6389930    0.7797360    0.1022570  
H     1.4548520    0.3533260   -0.3190580  
H     1.9349090    6.3222180    0.2573540  
H     4.8793220    6.0813010    0.4482550  
H     5.5570800    3.7962740    0.3183240  
C    -1.0982130    0.3142580    2.2131790  
C    -0.0317690    1.0776180    1.8261380  
C    -0.4643440    1.8938530    0.7187480  
C    -1.8293000    1.5828330    0.4932860  
N    -2.1988380    0.5926350    1.4060160  
C    -2.6176890    2.2560950   -0.4462370  
C    -2.0004700    3.2561500   -1.1806610  
O    -2.7088300    3.9605530   -2.1012280  
C    -0.6269550    3.5718980   -0.9957270  
O    -0.1679140    4.5625790   -1.8345010  
C     0.1720890    2.8939230   -0.0715390  
H     0.9424470    1.0814310    2.2930980  
H    -3.6720400    2.0523200   -0.5906350  
H    -2.0860570    4.6155590   -2.4705960  
H     0.3820770    5.1784490   -1.3046030  
H    -1.1876090   -0.4272860    2.9940030  
C    -4.1565980   -0.1628060    2.7263400  
C    -3.4682530    0.0229630    1.5698570  
C    -4.2745580   -0.6423330    0.5288870  
C    -5.4543310   -1.1589380    1.2829350  
N    -5.3731530   -0.8799480    2.5547230  
C    -6.5123960   -1.8742280    0.6198100  
C    -6.3868770   -2.1073170   -0.7091720  
O    -7.2920830   -2.7700790   -1.4464190  
C    -5.1901140   -1.6321640   -1.4847710  
O    -5.1434390   -1.8835830   -2.6863690  
C    -4.1248020   -0.8747330   -0.7874280  
H    -7.3674020   -2.2232980    1.1880730  
H    -6.9317160   -2.7838830   -2.3598100  
H    -3.2871070   -0.5301480   -1.3854410  
H    -3.8745460    0.1672100    3.7187330  
C     3.6117140   -1.3528570   -0.1849160  
C     4.6319330   -2.1904680   -0.5547850  
C     4.1648950   -3.5449390   -0.4378970  
C     2.7642320   -3.4560070    0.0432460  
N     2.4577420   -2.1023530    0.1199130  
C     1.9869050   -4.5251870    0.3379450  
C     2.5423930   -5.8641010    0.1394600  
O     1.9120250   -6.8828220    0.3768060  
C     4.0091270   -5.9834040   -0.4144410  
O     4.4803350   -7.0973050   -0.5956830  
C     4.7505060   -4.7529030   -0.6765150  
H     5.5988850   -1.8794480   -0.9234170  
H     0.9661740   -4.4424920    0.6991110  
H     5.7689040   -4.8466770   -1.0411730  
H     1.7495040   -1.7533180    0.7529760  
