58


C     3.6964490   -3.9517930    1.3390870  
C     3.3841300   -2.6516490    1.0733640  
C     4.4998280   -2.0727310    0.3663550  
C     5.5100080   -3.1501140    0.2557320  
N     4.9489710   -4.2686380    0.8450840  
C     6.7469850   -3.0152680   -0.2882440  
C     7.1247970   -1.7097840   -0.8132600  
O     8.2381420   -1.4628350   -1.2484450  
C     6.0340130   -0.5819420   -0.8414600  
O     6.2596590    0.4075030   -1.5095150  
C     4.7419220   -0.8043090   -0.1277460  
H     2.4698270   -2.1548800    1.3567380  
H     7.4768310   -3.8185270   -0.3211010  
H     3.1119000   -4.7028270    1.8538500  
H     5.4204450   -5.1514760    0.9660470  
C     3.7909580    0.2821710   -0.0232910  
C     2.4174280    0.2187640   -0.0292980  
C     1.9585880    1.5735250    0.1257230  
C     3.2204810    2.3773710    0.2228870  
N     4.2789590    1.6297570    0.1365780  
C     3.1939880    3.8067710    0.3885590  
C     1.9838220    4.4109410    0.4268960  
O     1.8070220    5.7313420    0.5742950  
C     0.6925470    3.6353250    0.3357650  
O    -0.3515990    4.2724500    0.4588140  
C     0.7284070    2.1629380    0.1640690  
H     1.7984350   -0.6491720   -0.1980090  
H     4.1218320    4.3623270    0.4642760  
H     0.8327850    5.8638740    0.5890210  
C    -1.1654930   -1.2200880    2.3978200  
C    -0.2918590   -0.2508400    2.0342500  
C    -0.9196030    0.4162140    0.8984040  
C    -2.2246190   -0.2988700    0.7361430  
N    -2.3507490   -1.2632650    1.6006840  
C    -3.1859410    0.0700580   -0.2860640  
C    -2.8210000    1.0777320   -1.1229870  
O    -3.5901220    1.5272470   -2.1239270  
C    -1.5026670    1.7926070   -1.0086310  
O    -1.2469470    2.6360250   -1.8620240  
C    -0.5481590    1.4340650    0.0824320  
H     0.6605610   -0.0027670    2.4797640  
H    -3.0633600    2.2311490   -2.5633240  
H    -1.0669310   -1.9337960    3.2075620  
C    -6.5867250   -0.1275790    2.4817390  
C    -7.4420030   -0.9543870    1.8388540  
C    -6.7701830   -1.2949620    0.5880400  
C    -5.4623450   -0.5660030    0.6683010  
N    -5.3684650    0.1223590    1.7656090  
C    -4.4801270   -0.6344790   -0.4012230  
C    -4.8263830   -1.3577670   -1.4996130  
O    -4.0342120   -1.5152870   -2.5702580  
C    -6.1385630   -2.0888350   -1.6066740  
O    -6.3474620   -2.7271630   -2.6371220  
C    -7.1041680   -2.0207720   -0.4958480  
H    -8.4189740   -1.2907610    2.1568090  
H    -4.5464490   -2.0830670   -3.1884010  
H    -8.0411970   -2.5555250   -0.6182320  
H    -6.7196660    0.3518290    3.4443060  
