58


C     4.1399630   -0.7314060   -1.7151650  
C     4.5250020    0.1078880   -0.7065380  
C     5.6769490   -0.5347000   -0.0625020  
C     5.9057530   -1.8080620   -0.7887540  
N     4.9391280   -1.8633740   -1.7740370  
C     6.8826210   -2.7047690   -0.4979740  
C     7.7729650   -2.4191370    0.6209800  
O     8.6788680   -3.1641260    0.9634240  
C     7.5366850   -1.0879800    1.4224740  
O     8.2508780   -0.8396650    2.3799630  
C     6.4559450   -0.1891810    0.9924860  
H     7.0295200   -3.6270780   -1.0517290  
H     6.3350070    0.7418280    1.5332600  
H     3.3458980   -0.5963970   -2.4383790  
H     4.8655090   -2.5906340   -2.4681240  
C     0.2809910    1.0988090   -0.1422320  
C     0.4034500    2.4459970    0.1096650  
C     1.8012960    2.7728030    0.0655240  
C     2.5151520    1.5083800   -0.2415030  
N     1.5393660    0.5478390   -0.3788220  
C     3.8746620    1.3742710   -0.3497350  
C     4.6700570    2.6017160   -0.1478880  
O     5.8868820    2.6238500   -0.2389700  
C     3.9277930    3.9509530    0.1830320  
O     4.6028470    4.9526600    0.3688830  
C     2.4732240    3.9450030    0.2597260  
H    -0.4055240    3.1341680    0.3076940  
H     1.9702820    4.8805700    0.4834170  
H     1.6799530   -0.4483340   -0.4711220  
C    -0.8707420    0.2385150   -0.1925240  
C    -2.1925640    0.5296850    0.0006750  
C    -2.8933750   -0.7203200   -0.1716920  
C    -1.8103980   -1.7124910   -0.4718200  
N    -0.6363940   -1.1505770   -0.4787170  
C    -2.0889940   -3.1053600   -0.6934670  
C    -3.3810100   -3.4985440   -0.6264720  
O    -3.7939070   -4.7557210   -0.8236590  
C    -4.5036720   -2.5271490   -0.3404970  
O    -5.6442290   -2.9771070   -0.3833680  
C    -4.1996510   -1.0949890   -0.0609640  
H    -2.6371110    1.4904350    0.2087810  
H    -1.2832760   -3.7985640   -0.9065920  
H    -4.7734140   -4.7281240   -0.7409180  
C    -5.5717880    2.6667180   -1.9177920  
C    -6.6775360    2.9540690   -1.1953260  
C    -6.7741690    1.8863900   -0.2051150  
C    -5.5919230    1.0099870   -0.4979220  
N    -4.8978200    1.4719510   -1.4941420  
C    -5.3245570   -0.2011150    0.2658630  
C    -6.1932340   -0.4748870    1.2823080  
O    -6.0575280   -1.5106610    2.1142160  
C    -7.3833960    0.3985030    1.5975150  
O    -8.0965810    0.0543440    2.5363200  
C    -7.6367640    1.6021560    0.7893670  
H    -7.3578930    3.7861180   -1.3107170  
H    -6.8263540   -1.4617830    2.7269110  
H    -8.5072050    2.1994690    1.0426550  
H    -5.1555980    3.2183430   -2.7519810  
