58


C    -5.7373000   -3.0372470    2.8560530  
C    -6.9567890   -3.1024660    2.2642640  
C    -6.8890750   -2.3149480    1.0515860  
C    -5.5085110   -1.7835260    0.9803000  
N    -4.8528300   -2.2874660    2.0845800  
C    -5.0224710   -0.9398590    0.0085220  
C    -5.9883780   -0.5498800   -1.0393600  
O    -5.7114160    0.2108710   -1.9532250  
C    -7.4483210   -1.1431170   -1.0023950  
O    -8.2196430   -0.8251760   -1.8931260  
C    -7.8154680   -2.0274570    0.0970750  
H    -7.8210040   -3.6394750    2.6268870  
H    -8.8292260   -2.4143370    0.1236010  
H    -5.3956000   -3.4820280    3.7812500  
H    -3.9471330   -1.9604200    2.3887750  
C    -2.5272160   -1.2176590    0.3265050  
C    -3.6330840   -0.4903630   -0.0157640  
C    -3.0847480    0.8444470   -0.3530790  
C    -1.6174600    0.7266870   -0.0968220  
N    -1.3157500   -0.4976140    0.2627490  
C    -0.6901070    1.8343480   -0.2600360  
C    -1.2365150    2.9672100   -0.8121180  
O    -0.5214860    4.0405930   -1.1530870  
C    -2.7002280    3.1102870   -1.0969650  
O    -3.0912570    4.1793040   -1.5615190  
C    -3.6165290    1.9819100   -0.8327700  
H    -1.1713960    4.7052210   -1.4742470  
H    -4.6591160    2.1104730   -1.0938140  
H    -2.4877160   -2.2690590    0.5872020  
C     2.5545210   -1.1863390   -0.5611150  
C     3.6142710   -0.4634880   -0.0681100  
C     3.0684220    0.8394230    0.3128300  
C     1.6166130    0.7857530   -0.0062610  
N     1.3865860   -0.4606710   -0.5519640  
C     0.7230800    1.8123320    0.1632570  
C     1.2497340    2.9879210    0.9041640  
O     0.5298410    3.8304840    1.4095570  
C     2.7979720    3.1300230    1.0842620  
O     3.2414210    4.1944440    1.4877880  
C     3.6424890    1.9795580    0.7816560  
H     4.7037470    2.0723110    0.9681230  
H     2.5655280   -2.1939840   -0.9480630  
H     0.4461460   -0.8579070   -0.5117820  
C     5.7167600   -3.2076270   -2.7453710  
C     6.9610000   -3.2369080   -2.2193270  
C     6.8995560   -2.3657780   -1.0497300  
C     5.4869230   -1.8703110   -1.0308000  
N     4.8074990   -2.3672770   -2.0230550  
C     4.9924760   -0.9446650   -0.0077540  
C     5.8973200   -0.6168070    0.9664090  
O     5.6007670    0.1535230    2.0334730  
C     7.3087370   -1.0974130    0.9669280  
O     8.0397530   -0.7383070    1.8932040  
C     7.7824830   -1.9934930   -0.1067180  
H     7.8269330   -3.7801030   -2.5713720  
H     6.4400460    0.2144630    2.5431260  
H     8.8185850   -2.3156780   -0.0653960  
H     5.3469010   -3.7274480   -3.6208940  
