60


C     1.8893590   -0.4819610    0.0436850  
C     3.1995500   -0.0578210    0.0230370  
C     3.1519100    1.3931920   -0.0845200  
C     1.7910660    1.7662730   -0.1665410  
N     1.0202280    0.5939070   -0.0685570  
C     1.3748920    3.0971080   -0.2616640  
C     2.3589580    4.0728390   -0.3042080  
O     2.0080140    5.3855000   -0.3972840  
C     3.7298330    3.7158160   -0.2423220  
O     4.5917770    4.7910620   -0.2886460  
C     4.1333880    2.3978730   -0.1357850  
H     0.3349290    3.3895510   -0.3265960  
H     2.8307990    5.9047320   -0.4032090  
H     5.4998250    4.4838350   -0.1465980  
H     5.1853150    2.1510740   -0.0440320  
H     1.4944250   -1.4829970    0.1264710  
C    -1.5960930   -1.5879480    2.6733120  
C    -0.5240620   -0.9964520    2.0859730  
C    -1.0151720   -0.2699850    0.9346030  
C    -2.4753690   -0.4846390    0.8985140  
N    -2.7591490   -1.3090800    1.9634640  
C    -3.3407970    0.0318050   -0.0384920  
C    -2.7514970    0.9335530   -1.0383190  
O    -3.4135240    1.6160540   -1.8007440  
C    -1.1897830    1.0850660   -1.1023240  
O    -0.7020100    1.6587950   -2.0568710  
C    -0.3752640    0.4912010   -0.0134110  
H     0.4995350   -1.0420190    2.4244320  
H    -1.6430700   -2.2008490    3.5632510  
H    -3.6953040   -1.5444910    2.2598040  
C    -6.7540400    0.1528400    2.9022970  
C    -5.5073540    0.2748450    2.3751600  
C    -5.6411960   -0.1430080    0.9836280  
C    -7.0892080   -0.4812180    0.8528820  
N    -7.7298550   -0.3131590    1.9792110  
C    -7.6632430   -0.9111540   -0.3947660  
C    -6.8413330   -1.0079980   -1.4644990  
O    -7.2377800   -1.3979920   -2.6858510  
C    -5.3640920   -0.7339170   -1.3598970  
O    -4.6772630   -1.0003490   -2.3391960  
C    -4.7799980   -0.2357080   -0.0684210  
H    -4.6203220    0.6613990    2.8571850  
H    -8.7215290   -1.1392120   -0.4553050  
H    -6.4222890   -1.4211430   -3.2330210  
H    -7.0693700    0.3836200    3.9134350  
C     3.9979260   -3.9424210   -1.9677210  
C     3.4703300   -2.7508590   -1.5861260  
C     4.3844970   -2.1518920   -0.6340720  
C     5.5110050   -3.1040530   -0.5017630  
N     5.2013970   -4.1788960   -1.3099450  
C     6.6189000   -2.9124820    0.2651540  
C     6.7210660   -1.6716920    1.0048740  
O     7.6808750   -1.3680030    1.6992660  
C     5.5295160   -0.6429660    0.9045610  
O     5.6199170    0.3872170    1.5513430  
C     4.3500610   -0.9603820    0.0555090  
H     2.5540700   -2.3146500   -1.9523390  
H     7.4291920   -3.6312780    0.3360060  
H     3.6177350   -4.6684650   -2.6738660  
H     5.8151260   -4.9599090   -1.4809960  
