62


C    -2.3268590   -1.3221060   -0.0376330  
C    -3.4909600   -0.5732540   -0.1155190  
C    -3.0717460    0.8144470   -0.0642470  
C    -1.6587040    0.8223150    0.0486440  
N    -1.2397960   -0.4934410    0.0704190  
C    -0.8788140    1.9969580    0.1742790  
C    -1.6139980    3.1794390    0.1999970  
O    -0.9637220    4.3899190    0.3425000  
C    -3.0248550    3.1984470    0.0890010  
O    -3.5642490    4.4713980    0.1267530  
C    -3.7624190    2.0409490   -0.0439830  
H    -0.2725690   -0.7799940    0.0313600  
H    -1.6469100    5.0842450    0.2927300  
H    -4.4983910    4.4343810   -0.1282150  
H    -4.8400390    2.0779890   -0.1571590  
H    -2.1951220   -2.3927920   -0.1111970  
C     2.2911280   -0.1094310   -2.2190730  
C     1.1122410    0.4246410   -1.7785490  
C     1.3968940    1.1648290   -0.5744690  
C     2.7908950    1.0502990   -0.3451070  
N     3.3249140    0.2555940   -1.3585800  
C     3.4510920    1.6993750    0.7037300  
C     2.6729140    2.4936150    1.5300050  
O     3.2430230    3.1761150    2.5585290  
C     1.2696590    2.6185030    1.3333310  
O     0.6488030    3.4204120    2.2664940  
C     0.5989320    1.9452870    0.3103290  
H     0.1547600    0.3284830   -2.2703630  
H     4.5198620    1.6225060    0.8679960  
H     2.5143930    3.6736510    2.9772480  
H     0.0210780    4.0058560    1.7897030  
H     2.5057170   -0.7327480   -3.0754280  
C     5.5008050    0.2630070   -2.5266600  
C     4.6752390   -0.1049870   -1.5071990  
C     5.4314500   -0.9904710   -0.6318640  
C     6.7787360   -1.1022660   -1.2402260  
N     6.7463980   -0.3325390   -2.3902350  
C     7.7938130   -1.8362900   -0.7195190  
C     7.5481190   -2.5828680    0.5127990  
O     8.3987760   -3.2720630    1.0532210  
C     6.1169480   -2.4934440    1.1613290  
O     5.8881570   -3.1271020    2.1786610  
C     5.1085660   -1.6495540    0.5099350  
H     8.7780950   -1.9027360   -1.1729080  
H     4.1287160   -1.5766560    0.9704290  
H     5.2884210    0.9140690   -3.3640300  
H     7.5282320   -0.1901570   -3.0101900  
C    -5.2877220   -3.9793560    1.9659060  
C    -6.5195270   -3.9859310    1.3913090  
C    -6.5611370   -2.8913120    0.4463950  
C    -5.2326700   -2.2435720    0.5102930  
N    -4.4913810   -2.9796890    1.4229720  
C    -4.8435530   -1.1325150   -0.1923070  
C    -5.8769170   -0.5504640   -1.0762710  
O    -5.6915960    0.4529770   -1.7471510  
C    -7.2923540   -1.2437470   -1.1778550  
O    -8.1232960   -0.7381020   -1.9187790  
C    -7.5451810   -2.4298460   -0.3761940  
H    -7.3220390   -4.6786290    1.5993340  
H    -8.5227940   -2.8963750   -0.4450810  
H    -4.8838100   -4.6314660    2.7294090  
H    -3.6258250   -2.6417330    1.8188740  
