60


C     2.7040580    3.2327960   -0.9249960  
C     3.8375220    2.4963830   -0.7000430  
C     3.4341210    1.1269040   -0.5274220  
C     2.0242030    1.0988420   -0.6832710  
N     1.6080270    2.3921930   -0.9259460  
C     1.2481000   -0.0760810   -0.6131280  
C     1.9671110   -1.2526610   -0.3964180  
O     1.3185280   -2.4468770   -0.3445790  
C     3.3791590   -1.2592150   -0.2491990  
O     3.8960980   -2.5155090   -0.0371250  
C     4.1410540   -0.0871130   -0.2764080  
H     4.8441780    2.8856960   -0.6697880  
H     0.6430770    2.6795800   -0.9736630  
H     2.0220420   -3.1179510   -0.2365300  
H     4.7033080   -2.5894670   -0.5994080  
H     2.5843000    4.2928460   -1.0986580  
C    -0.8887740    0.5069040   -1.8456530  
C    -0.2110920   -0.0635990   -0.8069800  
C    -1.2302880   -0.6302020    0.0766080  
C    -2.5393010   -0.3464370   -0.5463760  
N    -2.2607300    0.3150100   -1.7217030  
C    -3.7727220   -0.6640210   -0.0187130  
C    -3.7438920   -1.3325830    1.2977490  
O    -4.7506570   -1.6517540    1.9107910  
C    -2.3541360   -1.6648620    1.9624830  
O    -2.3563930   -2.2235480    3.0475790  
C    -1.1312330   -1.2740620    1.2687800  
H    -0.1797690   -1.5116520    1.7296080  
H    -0.4928100    1.0106580   -2.7179900  
H    -2.9675860    0.7544180   -2.2931710  
C    -5.2321120   -0.4012910   -2.0742600  
C    -5.0205630   -0.3884490   -0.7189790  
C    -6.3357240    0.0369350   -0.1691040  
C    -7.1848570    0.2398950   -1.3749860  
N    -6.5329630   -0.0297300   -2.4760180  
C    -8.5533020    0.6736940   -1.2835940  
C    -9.0608320    0.9161160   -0.0513880  
O   -10.3155270    1.3339680    0.1838060  
C    -8.2286250    0.7350660    1.1839260  
O    -8.7502560    0.9857550    2.2691230  
C    -6.8284230    0.2668340    1.0627180  
H    -9.1395530    0.8025980   -2.1866810  
H   -10.3819950    1.4175090    1.1605830  
H    -6.2805690    0.1033800    1.9821300  
H    -4.5325120   -0.7162530   -2.8405460  
C     6.7241910    2.2778140    2.4542550  
C     5.6758330    1.6960880    1.8139970  
C     6.2166170    0.7761440    0.8395750  
C     7.6931060    0.8693610    0.9705630  
N     7.9328640    1.8123460    1.9495360  
C     8.5888700    0.1617980    0.2348770  
C     8.0600800   -0.7876900   -0.7267370  
O     8.7531070   -1.4525390   -1.4803100  
C     6.5004430   -0.9977540   -0.7780550  
O     6.1029320   -1.9676130   -1.4220570  
C     5.6055410   -0.0782340   -0.0541480  
H     4.6299240    1.8798740    2.0007950  
H     9.6644740    0.2823370    0.3127450  
H     6.7200840    3.0058650    3.2546180  
H     8.8455750    2.0528540    2.3030100  
