58


C    -5.0599440    0.4600170    0.0693150  
C    -4.6680810   -0.8265030    0.3989000  
C    -5.8036110   -1.6901080    0.2423030  
C    -6.9197660   -0.8224580   -0.2096690  
N    -6.4019410    0.4496470   -0.3045410  
C    -8.1780190   -1.2654320   -0.4614860  
C    -8.4634700   -2.6867140   -0.2828330  
O    -9.5645670   -3.1752110   -0.4870000  
C    -7.2942840   -3.6255440    0.1932760  
O    -7.5168380   -4.8184230    0.3442030  
C    -5.9826850   -3.0286130    0.4350920  
H    -3.7159000   -1.1319510    0.8053080  
H    -8.9836100   -0.6160080   -0.7893640  
H    -5.1846950   -3.6854630    0.7686110  
H    -6.9068570    1.3137850   -0.4634620  
C    -0.7098290    1.2208410    0.0536580  
C    -0.7431320    2.5869470    0.1739320  
C    -2.1228630    2.9927560    0.1979150  
C    -2.9266080    1.7543710    0.1028090  
N    -2.0321670    0.7287480    0.0350980  
C    -4.3090800    1.7016940    0.0830620  
C    -4.9959200    3.0050550    0.0402710  
O    -6.2013930    3.1329820   -0.1409290  
C    -4.1596310    4.3219470    0.2291230  
O    -4.7595790    5.3806490    0.3131540  
C    -2.7049620    4.2216100    0.2804910  
H     0.1205730    3.2288330    0.2282240  
H    -2.1334200    5.1393690    0.3752480  
H    -2.2649110   -0.2279410   -0.1908970  
C     3.5859310    2.0733730    0.0670190  
C     4.1390920    0.8268000   -0.0160690  
C     2.9781950   -0.0836140   -0.0725750  
C     1.7980130    0.8227700   -0.0024850  
N     2.1751290    2.0700330    0.0711920  
C     0.4254200    0.3188260   -0.0355200  
C     0.3064500   -1.0441120   -0.1624940  
O    -0.8707350   -1.6955610   -0.2121370  
C     1.4772740   -1.9648360   -0.2710150  
O     1.2445070   -3.1674650   -0.3905840  
C     2.8434130   -1.4134150   -0.2266010  
H    -0.6407930   -2.6489410   -0.3201080  
H     3.6665570   -2.1126950   -0.3323330  
H     4.1057740    3.0197630    0.1491690  
C     5.5364270    0.4758110   -0.0649260  
C     6.5927720    1.2028760   -0.5538310  
C     7.7934880    0.4322790   -0.3697500  
C     7.3747560   -0.8307760    0.2829860  
N     5.9871300   -0.7785290    0.3865740  
C     8.2249470   -1.8064310    0.6791620  
C     9.6558280   -1.6276750    0.4216330  
O    10.4933830   -2.4544870    0.7421030  
C    10.1184270   -0.3163380   -0.3112190  
O    11.3056820   -0.1569300   -0.5466220  
C     9.0995650    0.6720630   -0.6733990  
H     6.5205230    2.1594330   -1.0516680  
H     7.9036900   -2.7225180    1.1654450  
H     9.4314910    1.5832860   -1.1614860  
H     5.4921830   -1.2974620    1.0990900  
