62


C     0.6057010    1.6857460   -0.5458290  
C     1.8523940    1.1138650   -0.4010870  
C     1.6702650   -0.2847500   -0.1469970  
C     0.2720240   -0.5141510   -0.1397180  
N    -0.3536930    0.7009260   -0.3411780  
C    -0.3235080   -1.7900780   -0.0095320  
C     0.5965990   -2.8485540    0.0299350  
O     0.1573410   -4.1428950    0.0888500  
C     1.9981040   -2.6514020    0.0334760  
O     2.7043250   -3.8243750    0.1447010  
C     2.5798720   -1.3772940    0.0036620  
H     2.7894100    1.6492930   -0.4404590  
H    -1.3129060    0.7712920   -0.6514630  
H     0.9708080   -4.6878880    0.0875250  
H     3.4816970   -3.7484540   -0.4613910  
C     0.9234670    3.9080530   -1.6806410  
C     0.2334600    3.0524070   -0.8687850  
C    -0.9325440    3.7938120   -0.3895620  
C    -0.8518100    5.1443540   -1.0019820  
N     0.3107370    5.1537010   -1.7462670  
C    -1.7685670    6.1283930   -0.8189260  
C    -2.9121120    5.8613280    0.0482410  
O    -3.7902820    6.6813480    0.2676620  
C    -3.0026760    4.4492180    0.7333250  
O    -3.9450680    4.2059190    1.4700110  
C    -1.9464080    3.4697720    0.4546680  
H    -1.6907740    7.1091320   -1.2781650  
H    -2.0127430    2.5079440    0.9526100  
H     1.8296270    3.7190730   -2.2403590  
H     0.5990300    5.9074360   -2.3504110  
C     4.9745080    1.3983700    2.5055710  
C     3.9825860    0.6450990    1.9606250  
C     4.5769940   -0.1872340    0.9401030  
C     6.0204370    0.1448420    0.9368940  
N     6.1912530    1.1316220    1.8870690  
C     6.9539850   -0.4228260    0.1266640  
C     6.5076900   -1.4614350   -0.7783030  
O     7.2322550   -2.0275660   -1.5829370  
C     5.0011940   -1.9167260   -0.6979830  
O     4.7123670   -2.9381020   -1.3214710  
C     4.0339520   -1.1450130    0.1033490  
H     2.9423160    0.6572830    2.2443840  
H     7.9983550   -0.1286750    0.1108380  
H     4.9243720    2.1242190    3.3062560  
H     7.0845280    1.4995960    2.1744400  
C    -1.7667410   -1.9756110    0.0353160  
C    -2.7766370   -1.0762570    0.3647570  
C    -4.0223150   -1.7619590    0.2595310  
C    -3.7267890   -3.0934500   -0.1445720  
N    -2.3626190   -3.1895490   -0.2783280  
C    -4.7224510   -4.0589170   -0.3427260  
C    -6.0362530   -3.6746300   -0.1274930  
O    -7.0466990   -4.5738550   -0.3042570  
C    -6.3497910   -2.3464980    0.2780150  
O    -7.7033310   -2.1241600    0.4483660  
C    -5.3686630   -1.3951790    0.4716620  
H    -2.6386520   -0.0701550    0.7339920  
H    -1.8275690   -4.0283710   -0.4509120  
H    -4.5035670   -5.0761170   -0.6503590  
H    -7.8792200   -4.1140200   -0.0995250  
H    -7.8459610   -1.2130200    0.7447270  
H    -5.6315280   -0.3857490    0.7818950  
