62


C    -0.6354680    0.0384500    1.3573020  
C    -0.4897460    1.1790450    0.5986530  
C    -1.7854780    1.4146990   -0.0066770  
C    -2.6549650    0.3768230    0.4246600  
N    -1.9100640   -0.4625420    1.2286240  
C    -4.0041730    0.2565870   -0.0082200  
C    -4.4319360    1.2877040   -0.8562670  
O    -5.7283710    1.3167950   -1.3250680  
C    -3.5724650    2.3234170   -1.2956930  
O    -4.1848760    3.2228510   -2.1522090  
C    -2.2544450    2.3967860   -0.8990520  
H    -2.3518920   -1.0640510    1.9126900  
H    -5.8326430    2.1694690   -1.7873470  
H    -3.6240880    4.0062890   -2.2539530  
H    -1.6019360    3.1861120   -1.2619020  
H     0.0827940   -0.4486010    2.0020050  
C     3.7162120    0.1080090   -0.5720320  
C     2.3791510    0.0605970   -0.2670600  
C     1.9779340    1.4003130    0.0557650  
C     3.1283330    2.2228420   -0.0665760  
N     4.1813860    1.4091170   -0.4435430  
C     3.1079010    3.6021040    0.1659020  
C     1.8923420    4.1581100    0.5333710  
O     1.8057540    5.4955540    0.7866160  
C     0.7318290    3.3533110    0.6645940  
O    -0.3910620    4.0565810    1.0595390  
C     0.7384170    1.9789450    0.4338250  
H     1.7646800   -0.8277320   -0.2522300  
H     5.1001440    1.7209620   -0.7189230  
H     3.9870980    4.2317140    0.0791900  
H     0.8988570    5.6663210    1.0961730  
H    -1.0766400    3.4210390    1.3271260  
C     4.2762630   -1.8147330   -2.0375050  
C     5.2628270   -2.7291440   -2.2024570  
C     6.2912190   -2.4365780   -1.2265460  
C     5.8074630   -1.2636150   -0.4561980  
N     4.5723250   -0.9149930   -1.0039700  
C     6.4804440   -0.6960890    0.5769730  
C     7.7777930   -1.2569530    0.9509960  
O     8.4537660   -0.8115500    1.8655500  
C     8.3201700   -2.4852260    0.1329990  
O     9.4084370   -2.9565750    0.4235210  
C     7.4877660   -3.0177760   -0.9487010  
H     5.2841550   -3.5237200   -2.9341160  
H     6.1006760    0.1441860    1.1479570  
H     7.8627930   -3.8770350   -1.4965260  
H     3.3472690   -1.6885290   -2.5768440  
C    -6.7746850   -2.2328380   -2.4014800  
C    -7.1926920   -3.1065160   -1.4533870  
C    -6.5403060   -2.7348920   -0.2166750  
C    -5.6856830   -1.5587420   -0.5354550  
N    -5.8388940   -1.3344080   -1.8885310  
C    -4.8829550   -0.8840820    0.3590630  
C    -4.9107300   -1.4108860    1.7334950  
O    -4.2143540   -0.9716180    2.6428790  
C    -5.8437050   -2.6292490    2.0969590  
O    -5.8656620   -3.0056870    3.2577900  
C    -6.6127220   -3.2584510    1.0341180  
H    -7.8763120   -3.9320820   -1.5877930  
H    -7.2317000   -4.1143530    1.2839580  
H    -7.0489030   -2.1731050   -3.4468270  
H    -5.7101460   -0.3997510   -2.2618050  
