58


C    -4.0935730   -0.0213390    0.0601160  
C    -4.6296700   -1.0481950    0.8034630  
C    -5.9847580   -1.2470990    0.3684000  
C    -6.2292300   -0.2518660   -0.7056970  
N    -5.0581460    0.4525980   -0.8434760  
C    -7.4040430   -0.1223130   -1.3765050  
C    -8.5044770   -1.0129220   -1.0294230  
O    -9.5966440   -0.9738780   -1.5778510  
C    -8.2680980   -2.0761880    0.1069530  
O    -9.1798720   -2.8315140    0.4106060  
C    -6.9575300   -2.1186070    0.7577890  
H    -4.1052420   -1.5902200    1.5729450  
H    -7.5652160    0.6119870   -2.1597610  
H    -6.8046830   -2.8557580    1.5402750  
H    -4.8901300    1.2048250   -1.4941120  
C    -0.6760220   -0.9543640    2.6626350  
C     0.2588660   -0.0802180    2.2239870  
C    -0.3783290    0.6514640    1.1367910  
C    -1.7541310    0.0719630    1.0656260  
N    -1.9136460   -0.8591290    1.9596700  
C    -2.7614070    0.5547870    0.1144400  
C    -2.3401260    1.5722140   -0.7014870  
O    -3.1057570    2.1450700   -1.6526150  
C    -0.9548700    2.1357470   -0.6801360  
O    -0.6776910    2.9453040   -1.5628440  
C     0.0340310    1.6660880    0.3330640  
H     1.2610730    0.0649190    2.6001140  
H    -2.5121970    2.7963010   -2.0972580  
H    -0.5924890   -1.6807880    3.4612950  
C     4.1518890    0.0413590   -0.0143160  
C     4.8372420    1.2381300    0.0481740  
C     3.8751760    2.2932190    0.2077580  
C     2.5450290    1.6359440    0.2394440  
N     2.7809730    0.2926710    0.0947910  
C     1.3547270    2.3065070    0.3479960  
C     1.4214070    3.7746290    0.5112440  
O     0.4332500    4.4509360    0.7388050  
C     2.8194750    4.4802640    0.4456530  
O     2.8662390    5.6985620    0.5137000  
C     4.0091350    3.6455000    0.3094990  
H     5.9078710    1.3712270    0.0927320  
H     4.9736800    4.1431110    0.2773420  
H     2.1145700   -0.4659890    0.1909340  
C     7.9542550   -1.5186330   -1.5962480  
C     7.7792780   -2.8364050   -1.3412860  
C     6.4692200   -2.9867410   -0.7394900  
C     5.8964210   -1.6230570   -0.6465610  
N     6.8483140   -0.7807460   -1.1542880  
C     4.6421200   -1.3165410   -0.1534360  
C     3.7936840   -2.4701970    0.1957200  
O     2.6055020   -2.3765320    0.4781110  
C     4.4254200   -3.9079460    0.2069730  
O     3.7557000   -4.8304830    0.6357270  
C     5.7827320   -4.0781050   -0.3118390  
H     8.4766320   -3.6336020   -1.5526000  
H     6.1909410   -5.0833240   -0.3436840  
H     8.7895490   -1.0049950   -2.0524850  
H     6.6643060    0.1823540   -1.3975300  
