62


C    -1.2770770   -2.4812630   -1.3982520  
C    -0.2651620   -1.5839730   -1.1751700  
C    -0.8685360   -0.4001400   -0.6360360  
C    -2.2622400   -0.6473010   -0.5482090  
N    -2.4781970   -1.9275720   -1.0050190  
C    -3.2056020    0.3120410   -0.1039030  
C    -2.6774110    1.5763390    0.1993980  
O    -3.5006650    2.5806270    0.6272390  
C    -1.2943270    1.8492220    0.1218780  
O    -0.9776580    3.1288540    0.5156360  
C    -0.3598610    0.8813540   -0.2777810  
H     0.7815380   -1.7494820   -1.3853050  
H    -3.3906780   -2.3143100   -1.1932390  
H    -2.9323240    3.3397520    0.8548770  
H    -0.0091160    3.2102850    0.6196080  
H    -1.2426350   -3.4831110   -1.8018110  
C     1.0616770    1.1760240   -0.3014760  
C     2.1352320    0.3668460   -0.0485410  
C     3.3418150    1.1410850   -0.1484130  
C     2.9135620    2.5110380   -0.4890690  
N     1.5086600    2.5166710   -0.5106840  
C     3.7470700    3.5451890   -0.7422090  
C     5.1765290    3.3021440   -0.5909310  
O     6.0306070    4.1398280   -0.8267310  
C     5.6327890    1.9016710   -0.0430260  
O     6.8082840    1.8117420    0.3104630  
C     4.6666790    0.7949480    0.0328250  
H     2.0820400   -0.6674350    0.2514920  
H     3.4159690    4.5344500   -1.0415440  
H     1.0523660    3.0654070   -1.2339290  
C     3.7482750   -3.0189860   -2.1558700  
C     3.8405540   -1.7031850   -1.7751170  
C     4.6265830   -1.6574730   -0.5714340  
C     4.9961660   -2.9974620   -0.2805780  
N     4.4315750   -3.8037030   -1.2493960  
C     5.8212550   -3.3479430    0.7924850  
C     6.3101700   -2.3109120    1.5710220  
O     7.1374060   -2.5722380    2.6170420  
C     5.9700310   -0.9570900    1.3029050  
O     6.5286890   -0.0648590    2.1865720  
C     5.0979220   -0.6013820    0.2678640  
H     3.4159960   -0.8657000   -2.3089630  
H     4.5689940   -4.7992880   -1.3253580  
H     6.1076630   -4.3718750    1.0097700  
H     7.3825220   -1.6991530    2.9806790  
H     6.8472020    0.7017990    1.6544030  
H     3.2577500   -3.4637340   -3.0102780  
C    -4.6217130   -0.0039960    0.0347720  
C    -5.2250840   -1.2261060    0.2373970  
C    -6.6466660   -1.0166180    0.3143680  
C    -6.8538130    0.4421560    0.1377870  
N    -5.6015940    0.9880580   -0.0486510  
C    -8.0661160    1.0519220    0.1642680  
C    -9.2533910    0.2281650    0.3742960  
O   -10.3845900    0.6883080    0.4130180  
C    -9.0579600   -1.3225210    0.5557340  
O   -10.0423540   -2.0263770    0.7269060  
C    -7.6982550   -1.8599170    0.5109130  
H    -4.7229030   -2.1652670    0.4160260  
H    -8.1992000    2.1215960    0.0352120  
H    -7.5757530   -2.9309070    0.6422740  
H    -5.3788590    1.9724640   -0.0201940  
