62


C    -0.1343840    2.2490870    0.0659040  
C    -1.2522270    1.4819440   -0.1990770  
C    -0.8564110    0.1078070   -0.1504120  
C     0.5276830    0.0760380    0.1583920  
N     0.9318570    1.3835310    0.3136040  
C     1.2878340   -1.1108100    0.2806640  
C     0.5691000   -2.2981940    0.0860390  
O     1.1919110   -3.5038820    0.2057350  
C    -0.8120160   -2.3001810   -0.2342100  
O    -1.3368620   -3.5554600   -0.4609640  
C    -1.5325760   -1.1144500   -0.3539170  
H    -2.2499930    1.8652850   -0.3532560  
H     1.8959930    1.6802620    0.3728190  
H     0.5031930   -4.1824420    0.0711500  
H    -2.2497920   -3.6114390   -0.1215960  
C    -1.9939550    5.6160730   -2.2523910  
C    -1.6520080    4.3773970   -1.7764830  
C    -0.7020280    4.5755710   -0.7172430  
C    -0.5002950    5.9787370   -0.6049120  
N    -1.3054550    6.5841190   -1.5465560  
C     0.3895920    6.5566640    0.3058890  
C     1.0928160    5.6946960    1.1344800  
O     1.9590340    6.1967050    2.0582040  
C     0.9104330    4.2942430    1.0437500  
O     1.6914040    3.5627410    1.9400420  
C     0.0305060    3.7029610    0.1321270  
H    -2.0191330    3.4342360   -2.1519650  
H    -1.3676990    7.5775880   -1.7043260  
H     0.5378240    7.6282330    0.3900730  
H     2.3111580    5.4339760    2.5516030  
H     1.1537110    2.8407420    2.3050920  
H    -2.6758190    5.8944480   -3.0434550  
C    -3.4431340   -0.5337870   -1.8638990  
C    -4.7621920   -0.8076060   -2.0010240  
C    -5.1453060   -1.6481300   -0.8851020  
C    -3.9170060   -1.8322990   -0.0705570  
N    -2.9078910   -1.1357610   -0.7113900  
C    -3.8635430   -2.5578820    1.0837810  
C    -5.0873510   -3.2013140    1.5588520  
O    -5.1409720   -3.8482540    2.5928030  
C    -6.3899850   -3.0399250    0.6946950  
O    -7.4145630   -3.5953300    1.0553170  
C    -6.3226770   -2.2158640   -0.5185580  
H    -5.4089930   -0.4704270   -2.7979250  
H    -2.9813220   -2.6061960    1.7159610  
H    -7.2370750   -2.0906630   -1.0907800  
H    -2.7838570    0.0448290   -2.4962850  
C     3.3471390   -0.2382890    1.4894430  
C     2.7139910   -1.0772550    0.6170710  
C     3.8196050   -1.8784830    0.0403870  
C     5.0417600   -1.3593060    0.7189460  
N     4.7541600   -0.4083520    1.5645600  
C     6.3521970   -1.8802860    0.4290460  
C     6.4543980   -2.8517470   -0.5088370  
O     7.6101340   -3.4232480   -0.8852160  
C     5.2444360   -3.3782860   -1.2275150  
O     5.4151630   -4.2568490   -2.0709860  
C     3.9071980   -2.8355280   -0.9014240  
H     7.2176040   -1.4855130    0.9496510  
H     7.3640940   -4.0809860   -1.5721650  
H     3.0587240   -3.2624450   -1.4222990  
H     2.8911090    0.5048180    2.1332630  
