64


C     2.5023370   -1.1474910   -0.9926710  
C     1.2664600   -0.5665340   -0.8953520  
C     1.4363380    0.6791950   -0.2036310  
C     2.8215040    0.8045650    0.0807150  
N     3.4607010   -0.3327210   -0.4023190  
C     3.3730370    1.9323450    0.7077580  
C     2.4979370    2.9456730    1.0720070  
O     2.9749570    4.0587320    1.6989620  
C     1.1098710    2.8404020    0.8109140  
O     0.3810650    3.9259370    1.2573980  
C     0.5516090    1.7264480    0.1715200  
H     0.3455330   -0.9723610   -1.2872750  
H     4.4376730    2.0503010    0.8786500  
H     2.2094830    4.6294090    1.8876170  
H    -0.5695030    3.7216820    1.1871970  
H     2.8018810   -2.0915180   -1.4240880  
C     6.5637350   -1.2449650   -3.4471960  
C     5.3862530   -0.9026180   -2.8350360  
C     5.6342350   -0.9072860   -1.4208920  
C     6.9966690   -1.2606130   -1.2335800  
N     7.5356190   -1.4631660   -2.4876980  
C     7.5984890   -1.3385750    0.0283840  
C     6.8046070   -1.0619500    1.1300300  
O     7.3344130   -1.1219000    2.3854840  
C     5.4322390   -0.7301450    0.9798330  
O     4.7651480   -0.5370740    2.1702560  
C     4.8434290   -0.6481270   -0.2790070  
H     4.4547340   -0.6689030   -3.3300300  
H     8.4932340   -1.7155220   -2.6742980  
H     8.6436360   -1.5936110    0.1697220  
H     6.6259280   -0.8681060    3.0031460  
H     3.9390780   -0.0490750    2.0126070  
H     6.7966710   -1.3515360   -4.4972340  
C    -0.8897050    1.6355750   -0.0612780  
C    -1.7483220    0.5628680    0.0215250  
C    -3.0806910    1.0207750   -0.2779070  
C    -2.9759040    2.4058330   -0.5535400  
N    -1.6503010    2.7874160   -0.3485780  
C    -4.0537480    3.1865520   -0.9703970  
C    -5.2702240    2.5373650   -1.1249310  
O    -6.3605490    3.2228110   -1.5527810  
C    -5.4163320    1.1527600   -0.8358840  
O    -6.6950320    0.6904690   -1.0100130  
C    -4.3496870    0.3733670   -0.3722010  
H    -1.4501650   -0.4400140    0.2892190  
H    -1.2414880    3.5490920   -0.8777830  
H    -3.9687530    4.2448130   -1.1944420  
H    -7.0770800    2.5613260   -1.6186660  
H    -6.6258550   -0.2001950   -1.4341560  
C    -3.0284230   -1.7446780    3.2378560  
C    -3.4113380   -3.0113080    2.9379290  
C    -4.0590330   -2.9666220    1.6437870  
C    -4.0119850   -1.5479990    1.2044380  
N    -3.3907670   -0.8643460    2.2220000  
C    -4.5087170   -1.0484910    0.0202090  
C    -5.2350790   -2.0212010   -0.7949630  
O    -5.9098470   -1.7204210   -1.7820440  
C    -5.2070180   -3.5476810   -0.4101410  
O    -5.6949740   -4.3467790   -1.1922390  
C    -4.6221620   -3.9310570    0.8695130  
H    -3.2731800   -3.8896070    3.5511090  
H    -4.6409920   -4.9800920    1.1467060  
H    -2.5201310   -1.3681420    4.1155490  
H    -3.1311940    0.1092930    2.1655540  
