60


C    -0.8543140    0.0197820   -1.0726610  
C    -2.2140350   -0.1350640   -0.8607750  
C    -2.8014440    1.1629980   -0.8513450  
C    -1.7507720    2.0956760   -1.0758050  
N    -0.5726200    1.3836390   -1.1641020  
C    -1.9647440    3.4732930   -1.1824470  
C    -3.2684510    3.9205990   -1.0425910  
O    -3.5392790    5.2487890   -1.1201720  
C    -4.3355150    3.0077460   -0.8070720  
O    -5.5637100    3.6184670   -0.6840470  
C    -4.1359270    1.6354190   -0.7023860  
H    -2.7117760   -1.0774970   -0.6840020  
H     0.2744980    1.7520950   -1.5720080  
H    -1.1655020    4.1863160   -1.3541020  
H    -4.4910510    5.3637780   -0.9501480  
H    -6.1914520    2.9749560   -0.3118020  
C     0.1829250   -0.9696510   -1.1542820  
C     0.1126200   -2.3071430   -1.4469510  
C     1.4413470   -2.8490990   -1.3846430  
C     2.3307140   -1.7230040   -1.0350320  
N     1.5316260   -0.5995470   -0.9637720  
C     3.6769450   -1.8244910   -0.7740430  
C     4.2885880   -3.1615790   -1.0005670  
O     5.4890590   -3.3504500   -0.9966200  
C     3.3483810   -4.3707100   -1.3464970  
O     3.8401140   -5.4862940   -1.4306360  
C     1.9291430   -4.1119570   -1.5571800  
H    -0.7820700   -2.8486200   -1.7182210  
H     1.2920170   -4.9554810   -1.8048360  
H     1.8124900    0.1922620   -0.3955780  
C     4.4744110   -0.6994430   -0.3295150  
C     4.3177610    0.6359550   -0.6267040  
C     5.3525900    1.3266010    0.1041340  
C     6.0582670    0.2345270    0.8518690  
N     5.5526750   -0.9349470    0.5962640  
C     7.1587490    0.5190380    1.7375020  
C     7.5557270    1.8079400    1.8512970  
O     8.5679250    2.2218710    2.6265100  
C     6.8760390    2.9273620    1.0945690  
O     7.3106560    4.0669490    1.2692050  
C     5.7467760    2.6179500    0.2135410  
H     3.6549730    1.0751740   -1.3598940  
H     7.6463630   -0.2877550    2.2729580  
H     8.6099120    3.1960510    2.4950020  
H     5.2781750    3.4497600   -0.3036630  
C    -6.4109210    0.6122180   -1.2056980  
C    -5.2723060    0.7264220   -0.4553480  
C    -5.4074670   -0.2416870    0.6355530  
C    -6.7123030   -0.9187950    0.4393560  
N    -7.2692650   -0.3477540   -0.6908470  
C    -7.2058650   -1.8901160    1.2475290  
C    -6.4087890   -2.3038600    2.4005230  
O    -6.7672490   -3.1707860    3.1813570  
C    -5.0294590   -1.5876720    2.6387280  
O    -4.3521720   -1.9092150    3.6006200  
C    -4.6061770   -0.5511990    1.6868400  
H    -8.1647260   -2.3730550    1.0861140  
H    -3.6522350   -0.0642120    1.8606000  
H    -6.6737540    1.1415330   -2.1129780  
H    -8.1504990   -0.6180310   -1.0993830  
