62


C    -1.0504470    0.4954060    1.4499910  
C    -2.4007550    0.2957860    1.4275880  
C    -2.7598580   -0.1669230    0.1099710  
C    -1.5632900   -0.2434840   -0.6417040  
N    -0.5328590    0.1835390    0.1923210  
C    -1.4990140   -0.7107370   -1.9549710  
C    -2.6926410   -1.1410890   -2.5138770  
O    -2.7153820   -1.6336950   -3.7782720  
C    -3.9159770   -1.0864670   -1.7900130  
O    -4.9967610   -1.5361200   -2.5076750  
C    -3.9898130   -0.5668530   -0.4930500  
H    -3.0690240    0.4577820    2.2603680  
H    -0.5745430   -0.7662840   -2.5185400  
H    -3.6408960   -1.9027780   -3.9392200  
H    -5.5389100   -2.0858630   -1.8941850  
H    -0.3894130    0.8356360    2.2336060  
C     1.6874680   -0.8622270    0.0739850  
C     2.9631010   -0.5045030   -0.2348660  
C     2.9067870    0.8979570   -0.6569100  
C     1.4915880    1.3249340   -0.5611420  
N     0.7915790    0.2006900   -0.1437820  
C     1.0317920    2.5698800   -0.8350330  
C     1.9939170    3.5746950   -1.2789980  
O     1.6849690    4.7275640   -1.5387530  
C     3.4982200    3.1396170   -1.4289120  
O     4.3184170    3.9626460   -1.8031950  
C     3.8622040    1.7564790   -1.0972920  
H    -0.0130970    2.8474500   -0.7484040  
H     4.9018700    1.4659960   -1.2064260  
H     1.3010100   -1.8033830    0.4405000  
C     4.2092200   -2.6457520   -0.7158340  
C     4.1426500   -1.3686200   -0.2004670  
C     5.4361080   -1.0984930    0.3905320  
C     6.2318560   -2.2556540    0.1954390  
N     5.4547340   -3.1811390   -0.4748230  
C     7.5522320   -2.3549850    0.6516720  
C     8.0806240   -1.2637190    1.3223630  
O     9.3640620   -1.3024610    1.7813860  
C     7.2946660   -0.1002050    1.5407940  
O     7.9553550    0.8940630    2.2359350  
C     5.9899450   -0.0086310    1.0936580  
H     5.7684620   -4.0859660   -0.7893180  
H     8.1635140   -3.2384440    0.4983730  
H     9.5465010   -0.4422350    2.1977720  
H     7.4166910    1.6991880    2.2431260  
H     5.4077210    0.8895260    1.2841980  
H     3.4613460   -3.2031770   -1.2621490  
C    -5.8261550    2.8746230    1.6229290  
C    -5.0420760    2.0686890    0.8591070  
C    -5.6366160    0.7517500    0.8633160  
C    -6.8562030    0.8608180    1.7051340  
N    -6.8975860    2.1657430    2.1533000  
C    -7.7153770   -0.1566800    1.9691950  
C    -7.4400540   -1.4403290    1.3491870  
O    -8.1059730   -2.4453090    1.5396630  
C    -6.2293130   -1.5339290    0.3473100  
O    -6.1661020   -2.5537110   -0.3379780  
C    -5.2676540   -0.4237920    0.2443580  
H    -4.1455850    2.3593850    0.3351720  
H    -8.5735630   -0.0682120    2.6273630  
H    -5.7153150    3.9279800    1.8439150  
H    -7.6493370    2.5623700    2.6951050  
