58


C     3.7276930   -0.2345070   -0.2607280  
C     3.7477500   -1.4796910   -0.8318820  
C     5.0489600   -2.0552700   -0.6053630  
C     5.8163290   -1.0436380    0.1610920  
N     4.9826710    0.0581910    0.2934740  
C     7.0792820   -1.2231250    0.6173400  
C     7.7515710   -2.4878050    0.3168970  
O     8.8869070   -2.7385250    0.6879310  
C     6.9707110   -3.5606660   -0.5270950  
O     7.5205040   -4.6184460   -0.7924990  
C     5.6041230   -3.2495680   -0.9502080  
H     2.9491230   -1.9229650   -1.4097290  
H     7.6244970   -0.4749110    1.1845180  
H     5.0687810   -4.0035270   -1.5192790  
H     5.1233080    0.7740890    0.9914800  
C     1.3164520    0.3939470   -0.1452130  
C     2.6400810    0.7193840   -0.1874260  
C     2.7163230    2.1775360   -0.1356970  
C     1.3210780    2.6675540   -0.0517280  
N     0.4944330    1.5133590   -0.0670390  
C     0.9877940    3.9766510    0.0122130  
C     2.0680750    4.9748450    0.0017840  
O     1.8470030    6.1709280    0.0775930  
C     3.5454550    4.4761320   -0.1150650  
O     4.4560760    5.2861450   -0.1421730  
C     3.7729250    3.0274880   -0.1853320  
H    -0.0371810    4.3150720    0.0665350  
H     4.7977260    2.6901370   -0.2984720  
H     0.8777470   -0.5926140   -0.1418300  
C    -0.8855720    1.4335580   -0.0013020  
C    -1.6603030    0.2905960   -0.0211560  
C    -3.0116660    0.7681460    0.0375430  
C    -2.8762180    2.2585960    0.0981090  
N    -1.6188340    2.6292840    0.0811100  
C    -4.0060690    3.1356860    0.1397040  
C    -5.2316440    2.5577240    0.1196500  
O    -6.3772280    3.2343800    0.1506350  
C    -5.4184060    1.0478180    0.1044210  
O    -6.5722240    0.6511200    0.2305070  
C    -4.2396030    0.1556760    0.0168750  
H    -1.3487120   -0.7353130   -0.1429020  
H    -3.8696010    4.2104720    0.1736210  
H    -7.0869310    2.5502870    0.1692860  
C    -2.7062350   -3.1817470    2.4796770  
C    -3.3527410   -4.2135770    1.8819600  
C    -4.1371830   -3.6593640    0.7970590  
C    -3.8872410   -2.1970270    0.8112720  
N    -3.0137140   -1.9750630    1.8532150  
C    -4.4703100   -1.2913550   -0.0366520  
C    -5.3567970   -1.8439320   -1.0861220  
O    -5.8152250   -1.1597480   -1.9835740  
C    -5.6694950   -3.3824130   -1.0796710  
O    -6.4659590   -3.8211040   -1.8927910  
C    -4.9854250   -4.2277580   -0.1007270  
H    -3.3030430   -5.2548590    2.1646360  
H    -5.1985300   -5.2922010   -0.1149770  
H    -2.0334350   -3.1887580    3.3269780  
H    -2.6326300   -1.0726710    2.0944170  
