60


C    -1.6679060   -2.1151730   -1.8149880  
C    -0.7708500   -1.1428040   -1.4475790  
C    -1.4929410   -0.1654190   -0.6887270  
C    -2.8408100   -0.6015150   -0.6348700  
N    -2.9121680   -1.8024610   -1.3117300  
C    -3.8831780    0.1285470   -0.0279090  
C    -3.5220230    1.3520390    0.5463750  
O    -4.4565570    2.0717910    1.2150490  
C    -2.1895250    1.8227500    0.5011490  
O    -2.0205190    3.0255770    1.1456870  
C    -1.1501740    1.0908340   -0.1042810  
H     0.2741450   -1.1215380   -1.7172640  
H    -3.7701830   -2.2870940   -1.5275210  
H    -4.0327610    2.8901490    1.5281480  
H    -1.0718060    3.1966650    1.2894710  
H    -1.5181090   -3.0144760   -2.3951890  
C     0.2111600    1.5787190   -0.1015780  
C     1.4016400    0.8841220   -0.0448190  
C     2.4876100    1.8100190   -0.0338910  
C     1.8695770    3.1477920   -0.0873080  
N     0.4807060    2.9658760   -0.0641130  
C     2.5404900    4.3208140   -0.1451790  
C     3.9961290    4.2730810   -0.0785410  
O     4.7012310    5.2651690   -0.1459410  
C     4.6813140    2.8780920    0.1301890  
O     5.8864090    2.8893890    0.3599390  
C     3.8686170    1.6478390    0.0398170  
H     1.4715240   -0.1824800    0.0872730  
H     2.0561090    5.2897610   -0.2147370  
H    -0.1107060    3.6046640   -0.5860870  
C     4.5227880    0.3516720    0.0252700  
C     4.0506800   -0.8838720   -0.3816780  
C     5.1091090   -1.8388190   -0.2342720  
C     6.2727520   -1.0831240    0.2933300  
N     5.8501820    0.2175780    0.4389220  
C     7.4845350   -1.6360520    0.5579770  
C     7.6651350   -3.0643070    0.3176430  
O     8.7180090   -3.6484230    0.5283320  
C     6.4425360   -3.8858860   -0.2365740  
O     6.5775040   -5.0849270   -0.4385710  
C     5.1901400   -3.1776330   -0.4867810  
H     3.0835360   -1.0941830   -0.8078790  
H     8.3266430   -1.0684850    0.9414060  
H     4.3539000   -3.7531730   -0.8728010  
H     6.4174620    1.0314430    0.6437690  
C    -5.6742710   -3.5311720    1.6424070  
C    -6.9739150   -3.3244110    1.3129040  
C    -7.0455850   -2.0602510    0.6081390  
C    -5.6563710   -1.5424060    0.5504920  
N    -4.8694020   -2.4949450    1.1701450  
C    -5.2798080   -0.3489210   -0.0001390  
C    -6.3508560    0.4608940   -0.6225020  
O    -6.1306180    1.4966110   -1.2235430  
C    -7.8323640   -0.0622740   -0.5453900  
O    -8.7203890    0.6309360   -1.0140800  
C    -8.0846260   -1.3602900    0.0808460  
H    -7.8050630   -3.9775220    1.5352710  
H    -9.1110650   -1.7116370    0.1210390  
H    -5.2239870   -4.3553790    2.1797260  
H    -3.8994800   -2.3553530    1.4106290  
