62


C     2.0212170   -0.3944860    0.3423900  
C     1.4427980    0.8300680    0.0925900  
C     2.4880550    1.6799010   -0.4464540  
C     3.6720670    0.9085610   -0.4849370  
N     3.3671200   -0.3671710    0.0243020  
C     4.8618930    1.3901080   -1.0404070  
C     4.8635520    2.6867120   -1.5364720  
O     6.0041550    3.1998030   -2.0774550  
C     3.6874890    3.4765910   -1.4969470  
O     3.8410310    4.7368280   -2.0339560  
C     2.5050950    2.9858580   -0.9691000  
H     5.7641630    0.7956710   -1.1103220  
H     5.7932010    4.0897340   -2.4096170  
H     2.9795610    5.1761820   -2.0946830  
H     1.6011500    3.5892630   -0.9972350  
H     1.5808960   -1.2832270    0.7636420  
C     0.0622100    1.1639210    0.3463080  
C    -1.0608920    0.3765750    0.3255120  
C    -2.1984100    1.1868070    0.6749170  
C    -1.6662920    2.5463540    0.9067810  
N    -0.3073130    2.4849980    0.6550760  
C    -2.3988390    3.6280960    1.2843110  
C    -3.8294790    3.4569710    1.4211220  
O    -4.5989050    4.3619980    1.7151390  
C    -4.4386560    2.0270800    1.1513990  
O    -5.6481010    1.9079370    1.2738680  
C    -3.5453490    0.8979840    0.7904450  
H    -1.0882010   -0.6534100    0.0040870  
H    -1.9703860    4.6109270    1.4551710  
H     0.3473630    3.1639150    1.0153000  
C    -3.4297550   -1.5983090    1.0826520  
C    -4.0822740   -0.4537760    0.6485970  
C    -5.3224580   -0.9118660    0.0419560  
C    -5.3342500   -2.3260440    0.1324160  
N    -4.1723890   -2.7096350    0.7790840  
C    -6.3661760   -3.1219650   -0.3789610  
C    -7.4200670   -2.4731870   -1.0016530  
O    -8.4623730   -3.1913170   -1.5116170  
C    -7.4266280   -1.0580000   -1.1090040  
O    -8.5420810   -0.5520400   -1.7521760  
C    -6.4025320   -0.2800500   -0.6053580  
H    -3.9275230   -3.6566930    1.0229970  
H    -6.3680220   -4.2044870   -0.3018970  
H    -9.0988530   -2.5488570   -1.8708950  
H    -8.5552100    0.4118320   -1.6541760  
H    -6.4512470    0.8010650   -0.6733550  
H    -2.5047740   -1.6878930    1.6330120  
C     7.4057130   -0.7826910    1.7575360  
C     6.1916310   -0.2967700    1.3851490  
C     5.4851260   -1.3707650    0.7232450  
C     6.3915840   -2.5415630    0.7500220  
N     7.5459470   -2.1097290    1.3732470  
C     6.0990050   -3.7789950    0.2673900  
C     4.7876480   -3.9927330   -0.3150410  
O     4.4045460   -5.0633280   -0.7611260  
C     3.7842760   -2.7795900   -0.3557890  
O     2.6635030   -2.9640010   -0.7969060  
C     4.2396870   -1.4623940    0.1540850  
H     5.8258580    0.7035850    1.5544390  
H     6.7916260   -4.6135380    0.3051370  
H     8.2097170   -0.2851930    2.2832340  
H     8.3409770   -2.6955790    1.5748160  
