58


C    -3.6489230    0.4634430   -0.5257330  
C    -3.8785780    1.7387310   -0.9551010  
C    -5.2751560    2.0209930   -0.7292080  
C    -5.8508650    0.7972810   -0.1221080  
N    -4.7973750   -0.1066420    0.0304960  
C    -7.1546840    0.6393420    0.1989650  
C    -8.0665110    1.7630750   -0.0389360  
O    -9.2567070    1.7104750    0.2211260  
C    -7.4706760    3.0861960   -0.6427260  
O    -8.2162460    4.0333380   -0.8373370  
C    -6.0423320    3.1204420   -0.9602600  
H    -3.1387830    2.4299110   -1.3317180  
H    -7.5611540   -0.2674440    0.6362080  
H    -5.6447110    4.0333000   -1.3928950  
H    -4.9437540   -1.1069520    0.0550530  
C    -1.5364180   -0.1275810   -1.6338970  
C    -0.4854950   -0.9628190   -1.4671730  
C    -0.7072900   -1.7166890   -0.2476130  
C    -1.9998630   -1.2462630    0.3001490  
N    -2.4749920   -0.2742420   -0.5990210  
C    -2.5501460   -1.6908450    1.4568660  
C    -1.8482530   -2.7415030    2.1959550  
O    -2.2883930   -3.2270480    3.2236330  
C    -0.4688120   -3.2435830    1.6501710  
O     0.1786820   -4.0249310    2.3192360  
C     0.0374650   -2.6842570    0.3662020  
H     0.3381290   -1.0883240   -2.1548670  
H    -3.4761390   -1.3130320    1.8731660  
H    -1.7536130    0.5617960   -2.4377100  
C     3.9022570   -0.6596850   -0.4102450  
C     4.6163700   -1.7421490   -0.8449820  
C     3.7499710   -2.8933250   -0.7932630  
C     2.4408320   -2.4036200   -0.3018220  
N     2.6074730   -1.0530670   -0.0296130  
C     1.3292570   -3.1767970   -0.1419020  
C     1.4558050   -4.6115790   -0.4896160  
O     0.5040850   -5.3702710   -0.4758580  
C     2.8572970   -5.1583880   -0.9362600  
O     2.9762930   -6.3503290   -1.1665110  
C     3.9601880   -4.2073860   -1.0796100  
H     5.6627500   -1.7438820   -1.1143890  
H     4.9186290   -4.5898430   -1.4164860  
H     1.8321360   -0.4058450    0.0095230  
C     4.3137300    0.7156720   -0.2575690  
C     5.2847680    1.4090360   -0.9256920  
C     5.2919480    2.7597410   -0.4204370  
C     4.2387270    2.8147340    0.6211580  
N     3.6271590    1.5617480    0.6346220  
C     3.9700340    3.9029500    1.3798360  
C     4.7409440    5.1251760    1.1387450  
O     4.5626270    6.1541550    1.7687060  
C     5.8310950    5.1027620    0.0065320  
O     6.4721870    6.1160340   -0.2197560  
C     6.0405650    3.8526200   -0.7310530  
H     5.8945130    1.0256650   -1.7314200  
H     3.2035940    3.9251930    2.1484810  
H     6.8098300    3.8411410   -1.4970820  
H     3.1990000    1.1980000    1.4765820  
