64


C    -1.3212000   -0.9963680   -0.4333350  
C    -0.0201030   -1.4516180   -0.5831390  
C     0.8433960   -0.3196820   -0.5549080  
C     0.0193580    0.8238590   -0.3741970  
N    -1.2855920    0.3890850   -0.2692110  
C     0.5018870    2.1449220   -0.3085400  
C     1.8865650    2.2752420   -0.4188250  
O     2.4588320    3.5023060   -0.3495750  
C     2.7316300    1.1415320   -0.5922530  
O     4.0659850    1.4755190   -0.6993090  
C     2.2541200   -0.1623050   -0.6591950  
H     0.2756360   -2.4891000   -0.6466490  
H    -2.0775060    1.0011760   -0.4112650  
H     3.4119290    3.3824830   -0.5100250  
H     4.5739740    0.6808740   -0.9369970  
C    -2.2734800    3.0840460    2.9931340  
C    -2.8053980    4.2364390    2.4766060  
C    -2.1670820    4.4673520    1.2104920  
C    -1.2496770    3.4044550    1.0087330  
N    -1.3462630    2.5674160    2.1038480  
C    -0.4173130    3.2952150   -0.1269140  
C    -0.5418360    4.3100530   -1.0768980  
O     0.1965390    4.2655020   -2.2203490  
C    -1.4536650    5.3828350   -0.8879560  
O    -1.4529440    6.2950980   -1.9277850  
C    -2.2626770    5.4728070    0.2281510  
H    -3.5631750    4.8512320    2.9427270  
H    -0.7371810    1.7828970    2.2774160  
H    -0.0186520    5.0659380   -2.7299530  
H    -2.0712880    7.0132350   -1.7282440  
H    -2.9540760    6.3053370    0.3426870  
H    -2.4803960    2.5762250    3.9247860  
C    -2.5555770   -1.7221290   -0.3653320  
C    -2.8642360   -2.9935420   -0.7851380  
C    -4.2395620   -3.2516750   -0.4691840  
C    -4.7469560   -2.0220720    0.1876950  
N    -3.7046030   -1.1028390    0.1669960  
C    -5.9956050   -1.8844990    0.6939160  
C    -6.9279230   -3.0037350    0.5584180  
O    -8.0728190   -2.9640070    0.9831360  
C    -6.4280910   -4.3004870   -0.1766980  
O    -7.2047580   -5.2378920   -0.3057250  
C    -5.0534470   -4.3309300   -0.6610110  
H    -2.1961880   -3.6594450   -1.3122980  
H    -6.3479680   -0.9799790    1.1808180  
H    -4.7123490   -5.2383680   -1.1501390  
H    -3.6364950   -0.3660360    0.8564220  
C     3.0142760   -2.2959100   -1.8128690  
C     3.1637970   -1.3019160   -0.8669690  
C     4.3864730   -1.6115140   -0.1491880  
C     4.9186370   -2.7974940   -0.7179500  
N     4.0593790   -3.1883460   -1.7252530  
C     6.0946560   -3.4000660   -0.2547120  
C     6.7475860   -2.7962090    0.8080560  
O     7.8987850   -3.3389090    1.2950700  
C     6.2240830   -1.6153900    1.4014280  
O     6.9809290   -1.1417330    2.4541950  
C     5.0619380   -1.0233580    0.9435350  
H     4.1845940   -3.9951780   -2.3167650  
H     6.5014750   -4.3080360   -0.6879430  
H     8.1902580   -2.7825710    2.0380600  
H     6.5627970   -0.3513910    2.8270070  
H     4.6764320   -0.1265490    1.4221750  
H     2.2458990   -2.4141750   -2.5634490  
