60


C     0.0511180    4.4440340    0.1726770  
C    -0.7828230    5.5017770    0.2666270  
C    -2.1376450    5.0096490    0.1376530  
C    -2.0371690    3.5414830   -0.0446240  
N    -0.6518070    3.2392340   -0.0142030  
C    -3.1121320    2.7330150   -0.1973130  
C    -4.4495240    3.3457430   -0.1901550  
O    -5.4653650    2.6863900   -0.3327130  
C    -4.5703900    4.8953240    0.0047380  
O    -5.6745550    5.4140660    0.0198630  
C    -3.3292560    5.6577600    0.1624700  
H    -0.4905170    6.5328440    0.4066980  
H    -3.0349300    1.6624600   -0.3293040  
H    -3.4069450    6.7323180    0.2970740  
H     1.1298360    4.4224180    0.2133670  
C    -0.0260310    2.0197990   -0.1401490  
C     1.3260700    1.7476140   -0.0669970  
C     1.4304990    0.3374230   -0.3011620  
C     0.0154800   -0.1097160   -0.4977750  
N    -0.8234140    0.8863020   -0.3935870  
C    -0.3370580   -1.4851040   -0.7797650  
C     0.7058740   -2.3586920   -0.8921250  
O     0.5580600   -3.6546580   -1.1707250  
C     2.1391690   -1.9520690   -0.6432920  
O     2.9610050   -2.8660550   -0.6453120  
C     2.4828600   -0.5376340   -0.3775630  
H     2.1470820    2.4358250    0.0616580  
H     1.4694650   -4.0300060   -1.1312120  
C     4.5437620    1.5520000    2.9200560  
C     5.8198760    1.4879960    2.4629490  
C     5.7846430    0.8116020    1.1823230  
C     4.3604800    0.4849700    0.9273450  
N     3.6641050    0.9556550    2.0200600  
C     3.8922020   -0.1908070   -0.1690320  
C     4.8916450   -0.5450980   -1.2029410  
O     4.5797270   -1.0052360   -2.2865680  
C     6.4091240   -0.2563340   -0.9187290  
O     7.2381510   -0.6299430   -1.7325250  
C     6.7637770    0.4575670    0.3073060  
H     6.7020940    1.8604810    2.9625770  
H     7.8142230    0.6659470    0.4857810  
H     4.1624840    1.9755420    3.8398290  
H     2.6593050    0.9297280    2.1082180  
C    -2.6212640   -1.2113470   -1.7195270  
C    -3.8436980   -1.7985780   -1.5762900  
C    -3.6989280   -2.8637980   -0.6214570  
C    -2.3411220   -2.8843970   -0.2178800  
N    -1.6841850   -1.8602600   -0.9092670  
C    -1.8584970   -3.7762220    0.7454610  
C    -2.7602030   -4.6761080    1.2958230  
O    -2.3345400   -5.5699460    2.2375550  
C    -4.1191480   -4.6784180    0.8935240  
O    -4.8917960   -5.6323270    1.5293730  
C    -4.5946240   -3.7863410   -0.0513440  
H    -4.7490140   -1.5065440   -2.0905950  
H    -0.8242250   -3.8008930    1.0642680  
H    -3.1040720   -6.1094360    2.4881070  
H    -5.8023710   -5.5786510    1.2037610  
H    -5.6445470   -3.7932030   -0.3375310  
H    -2.3086380   -0.3862300   -2.3402970  
