60


C    -2.3497120   -0.5462300    0.6661700  
C    -3.1595370   -0.0752980   -0.3468050  
C    -2.4941050    1.0922330   -0.8862700  
C    -1.2861390    1.2588400   -0.1664790  
N    -1.2204660    0.2400080    0.7635710  
C    -0.3865490    2.3229460   -0.3885950  
C    -0.7493710    3.2348700   -1.3821460  
O     0.0874470    4.2592070   -1.6908750  
C    -1.9622230    3.0893850   -2.1042540  
O    -2.1647760    4.0768760   -3.0499420  
C    -2.8301820    2.0390440   -1.8731040  
H    -0.5209030    0.1702730    1.4859930  
H    -0.3831770    4.8419030   -2.3125700  
H    -3.0915070    4.0721150   -3.3315490  
H    -3.7612490    1.9655350   -2.4300220  
H    -2.4722300   -1.4113790    1.3013230  
C     3.1751660   -0.2607950    0.2370060  
C     1.9738450    0.2582380   -0.1576040  
C     1.8382260    1.5513670    0.4681170  
C     3.0694920    1.7560500    1.2628660  
N     3.8713640    0.6347210    1.0505890  
C     3.3355950    2.8455370    2.0199420  
C     2.3462410    3.9203680    2.0383440  
O     2.5071030    4.9578910    2.6596910  
C     1.0194570    3.7277790    1.2172670  
O     0.1528140    4.5768780    1.3194740  
C     0.8510160    2.5003500    0.3994850  
H     1.2920860   -0.1763810   -0.8725000  
H     4.2540580    2.9772970    2.5833870  
H     4.5840980    0.3412150    1.7039710  
C     2.9364190   -2.6400870   -0.3339260  
C     3.7082070   -3.7174120   -0.5920030  
C     5.0934840   -3.3000940   -0.5054620  
C     5.0744410   -1.8537620   -0.1772210  
N     3.7197170   -1.4999430   -0.0582340  
C     6.1881250   -1.0870250   -0.0769410  
C     7.4959060   -1.7303070   -0.2479590  
O     8.5433260   -1.1116390   -0.1647470  
C     7.5358010   -3.2684500   -0.5491510  
O     8.6139830   -3.8239030   -0.6732040  
C     6.2568080   -3.9757800   -0.6804630  
H     3.3570130   -4.7156140   -0.8104410  
H     6.1767150   -0.0173260    0.0946760  
H     6.2877590   -5.0325010   -0.9275990  
H     1.8603590   -2.5522290   -0.2840030  
C    -4.9072320   -0.7025120   -2.0664570  
C    -4.4202680   -0.6579960   -0.7914300  
C    -5.4225340   -1.3208650    0.0447630  
C    -6.5149880   -1.7565290   -0.8619220  
N    -6.1487610   -1.3350360   -2.1211760  
C    -7.6266320   -2.4270170   -0.4620320  
C    -7.7785900   -2.7404420    0.9539240  
O    -8.7358980   -3.3502630    1.4066660  
C    -6.6498930   -2.2612760    1.9382750  
O    -6.7605400   -2.4999380    3.1303220  
C    -5.4959360   -1.5455690    1.3816450  
H    -8.4130200   -2.7367250   -1.1436500  
H    -4.7355120   -1.2051580    2.0764860  
H    -4.4498060   -0.3420150   -2.9777740  
H    -6.6713520   -1.5155130   -2.9635640  
