58


C     7.9157470   -1.2099240    1.7008740  
C     6.6844540   -1.4438960    1.1656520  
C     6.2338200   -0.2163140    0.5576040  
C     7.3099060    0.7721200    0.7996890  
N     8.3115820    0.0963100    1.4728230  
C     7.2663370    2.0817680    0.4447410  
C     6.0667780    2.5684550   -0.2227560  
O     5.8972410    3.7402900   -0.5188040  
C     4.9478010    1.5292660   -0.5938880  
O     4.0493790    1.9066510   -1.3215240  
C     5.0699960    0.1262410   -0.1031680  
H     6.1405050   -2.3734560    1.2156700  
H     8.0622560    2.7878510    0.6608060  
H     8.5646750   -1.8847930    2.2432620  
H     9.1529960    0.5231310    1.8280650  
C     3.9999260   -0.8171420   -0.3625280  
C     4.0752390   -2.1632450   -0.6118290  
C     2.7155390   -2.6082090   -0.7886940  
C     1.8873960   -1.3721720   -0.5994260  
N     2.6386340   -0.3451270   -0.3500670  
C     0.4238530   -1.3829390   -0.6793900  
C    -0.1358820   -2.6127960   -0.9540110  
O    -1.4355000   -2.8500040   -1.1137080  
C     0.6917850   -3.8635940   -1.1481050  
O     0.0766860   -4.9054080   -1.3892650  
C     2.1485840   -3.8064610   -1.0496970  
H     4.9623740   -2.7682150   -0.7316340  
H    -1.4896240   -3.8176400   -1.3022590  
H     2.6984160   -4.7324970   -1.1862230  
C    -0.3330350   -0.1590010   -0.4969140  
C     0.1310470    1.1310250   -0.4870220  
C    -1.0329530    1.9614960   -0.2853720  
C    -2.1656260    0.9911080   -0.1565980  
N    -1.7653520   -0.2321890   -0.2953280  
C    -3.5335910    1.4333220    0.0646090  
C    -3.7354600    2.7774660    0.0939540  
O    -4.9325500    3.3509090    0.2801180  
C    -2.6113120    3.7748690   -0.0494860  
O    -2.9161940    4.9678180    0.0092540  
C    -1.2395730    3.2976470   -0.2390780  
H     1.1503060    1.4585850   -0.6184560  
H    -4.7516550    4.3186620    0.2596800  
H    -0.4566860    4.0426410   -0.3412610  
C    -4.2474310   -1.5724160    3.1820920  
C    -5.3693850   -2.1892410    2.7465500  
C    -5.7242260   -1.4967560    1.5111590  
C    -4.6455270   -0.4676100    1.3476160  
N    -3.7990410   -0.5075310    2.3326670  
C    -4.6291420    0.4548030    0.2241260  
C    -5.6712280    0.3693570   -0.6462500  
O    -5.8056710    1.1506910   -1.7286780  
C    -6.7711270   -0.6457000   -0.4954310  
O    -7.6600090   -0.6517170   -1.3463330  
C    -6.7459210   -1.5862770    0.6392610  
H    -5.9087180   -3.0068160    3.2043330  
H    -6.6364550    0.8516880   -2.1603860  
H    -7.5637090   -2.2966980    0.7140040  
H    -3.6732380   -1.7880080    4.0755590  
