58


C    -1.6826510   -1.9343130    3.0127900  
C    -2.1932800   -0.8533370    2.3715120  
C    -2.9080620   -1.3351090    1.2097660  
C    -2.7736150   -2.8143890    1.2324900  
N    -2.0174200   -3.1108550    2.3474430  
C    -3.3232980   -3.6622240    0.3252360  
C    -4.0992550   -3.0902170   -0.7631090  
O    -4.6497230   -3.7627170   -1.6220860  
C    -4.2311500   -1.5246470   -0.8389960  
O    -4.8034800   -1.0412460   -1.7994100  
C    -3.6268440   -0.6956010    0.2361540  
H    -2.0618930    0.1784430    2.6548410  
H    -3.2238560   -4.7420600    0.3786360  
H    -1.0835390   -1.9784160    3.9126100  
H    -1.7652080   -4.0411070    2.6409050  
C    -0.6713850    2.5784400   -0.0037580  
C    -1.4933350    3.6700650   -0.1313650  
C    -2.8399740    3.1550430   -0.0881030  
C    -2.6625500    1.6740780    0.0780960  
N    -1.4071100    1.3471500    0.1244640  
C    -3.7987530    0.7677320    0.1608840  
C    -5.0320640    1.3476610    0.0891150  
O    -6.1758370    0.6639190    0.1973510  
C    -5.2344040    2.8307840   -0.0795690  
O    -6.3937570    3.2423590   -0.1243320  
C    -4.0666180    3.7164600   -0.1723620  
H    -1.2083040    4.7047220   -0.2629090  
H    -6.8917070    1.3285680    0.0837010  
H    -4.2518980    4.7786200   -0.2990390  
C     0.7700950    2.5601690    0.0105710  
C     1.6201350    3.6373350    0.0520960  
C     2.9529410    3.0839030    0.0524920  
C     2.7334900    1.6034660   -0.0161200  
N     1.4725070    1.3028700   -0.0182850  
C     3.8434810    0.6648810   -0.0421330  
C     5.0903400    1.1973550    0.0657700  
O     6.2145990    0.4692070    0.0655670  
C     5.3350200    2.6820510    0.1592950  
O     6.5053910    3.0560400    0.2384600  
C     4.1957870    3.6088950    0.1427490  
H     1.3623130    4.6861360    0.1028880  
H     6.9450400    1.1234630    0.1434950  
H     4.4141090    4.6700450    0.2127580  
C     2.0527820   -1.6138010   -3.3287460  
C     2.0413650   -2.8752320   -2.8425980  
C     2.6532990   -2.7766800   -1.5207210  
C     2.9632450   -1.3176540   -1.3717410  
N     2.6282510   -0.6496560   -2.4332020  
C     3.5953080   -0.7853160   -0.1751110  
C     3.9384650   -1.6863900    0.7834850  
O     4.5288040   -1.3572550    1.9428510  
C     3.6451000   -3.1568460    0.6517580  
O     3.9705090   -3.8843460    1.5898140  
C     2.9824230   -3.6636720   -0.5623620  
H     1.6718070   -3.7740920   -3.3159530  
H     4.6417900   -2.2077920    2.4228510  
H     2.8014820   -4.7327380   -0.6207050  
H     1.6879830   -1.2654180   -4.2875060  
