58


C     3.2758830   -2.2966770   -1.2423930  
C     3.8023520   -1.2069290   -0.5881210  
C     5.2204440   -1.5164360   -0.3603020  
C     5.4488910   -2.8616920   -0.9386400  
N     4.2264600   -3.2672710   -1.4529960  
C     6.6318650   -3.5235920   -0.9408460  
C     7.7856370   -2.8705390   -0.3268500  
O     8.8929220   -3.3827260   -0.2778690  
C     7.5724300   -1.4427250    0.2942080  
O     8.5222960   -0.8785370    0.8113850  
C     6.2342490   -0.8353550    0.2303080  
H     6.7658810   -4.5102680   -1.3736890  
H     6.0850500    0.1477690    0.6595530  
H     2.2602700   -2.4542700   -1.5803070  
H     4.0608580   -4.1508090   -1.9109610  
C     3.0812370   -0.0192190   -0.2150670  
C     1.7634320    0.3025320   -0.4404510  
C     1.5640800    1.5909620    0.1503680  
C     2.9118630    1.9477240    0.7158500  
N     3.7873000    1.0113160    0.4962090  
C     3.1513260    3.1924770    1.3922110  
C     2.1065900    4.0435220    1.5045160  
O     2.1652840    5.2325910    2.1135100  
C     0.7305940    3.7189800    0.9528290  
O    -0.1470440    4.5545880    1.1670660  
C     0.5041430    2.4517200    0.2320770  
H     1.0093610   -0.2934160   -0.9324500  
H     4.1335120    3.4205740    1.7904110  
H     1.2526000    5.5975840    2.0460240  
C    -2.3425660   -0.7739640    1.0288710  
C    -3.4075090   -0.4789750    0.2174150  
C    -2.9961500    0.7723180   -0.4613820  
C    -1.6228450    1.0394320    0.0690700  
N    -1.2593100    0.1260980    0.9270820  
C    -0.8396550    2.1974850   -0.3237280  
C    -1.4386010    3.0606060   -1.1945860  
O    -0.8454550    4.1563390   -1.6825850  
C    -2.8293430    2.8409340   -1.7115140  
O    -3.2848210    3.6786020   -2.4888900  
C    -3.5901150    1.6484100   -1.2931460  
H    -1.5177440    4.5818210   -2.2608330  
H    -4.5825520    1.5267030   -1.7060680  
H    -2.2715550   -1.5988340    1.7220460  
C    -5.3565590   -3.0490700    3.1831430  
C    -6.4738320   -3.4462270    2.5365730  
C    -6.3993050   -2.8122560    1.2241760  
C    -5.1186160   -2.0347960    1.2590500  
N    -4.5230650   -2.1795230    2.4046380  
C    -4.6569660   -1.2235070    0.1235830  
C    -5.4709050   -1.2658060   -0.9786690  
O    -5.1979320   -0.6369020   -2.1411570  
C    -6.7472720   -2.0384030   -1.0342230  
O    -7.3887090   -2.0056380   -2.0872150  
C    -7.1895920   -2.8161440    0.1367750  
H    -7.2649000   -4.0904620    2.8941970  
H    -5.9528700   -0.8661650   -2.7312180  
H    -8.1269710   -3.3574630    0.0525470  
H    -5.0340980   -3.3023830    4.1856160  
