60


C     2.0422870   -0.4755190   -0.7486340  
C     1.1045250    0.2966570   -0.1049530  
C     1.7978490    1.4776130    0.3802880  
C     3.1536580    1.3641700   -0.0013150  
N     3.2777530    0.1585560   -0.6909850  
C     4.1265370    2.3162200    0.3114570  
C     3.7158200    3.4215340    1.0418910  
O     4.6154310    4.3856240    1.3729460  
C     2.3619090    3.5522500    1.4551920  
O     2.1159240    4.6945630    2.1851510  
C     1.4097650    2.5996180    1.1403580  
H     5.1650520    2.2160130    0.0166370  
H     4.1450630    5.0609130    1.8923020  
H     1.1843710    4.7254560    2.4494470  
H     0.3855290    2.7148700    1.4857910  
H     1.9383050   -1.4139690   -1.2732150  
C    -0.8305100   -1.2615340    0.4062240  
C    -0.3003540   -0.0616270    0.0515420  
C    -1.4771100    0.7897670   -0.2071330  
C    -2.6567010   -0.1030860    0.0266500  
N    -2.2526780   -1.2885130    0.4007760  
C    -4.0294780    0.3483630   -0.1489160  
C    -4.1668130    1.6914180   -0.4080440  
O    -5.3479760    2.3142770   -0.4577090  
C    -3.0053040    2.6032380   -0.6530840  
O    -3.2406390    3.7861840   -0.8983830  
C    -1.6297670    2.0746460   -0.5683260  
H    -5.1520390    3.2426240   -0.7137350  
H    -0.8127320    2.7618950   -0.7623670  
H    -0.2946490   -2.1572840    0.6959160  
C    -5.2360110   -3.1306050    2.3832310  
C    -6.4962230   -3.3131670    1.9112340  
C    -6.6959240   -2.3525570    0.8492710  
C    -5.4346760   -1.5675270    0.7674650  
N    -4.6040010   -2.0647130    1.7507330  
C    -5.2103130   -0.5330130   -0.1077200  
C    -6.2469780   -0.3646440   -1.1612460  
O    -6.0570630    0.2771920   -2.1788700  
C    -7.6310000   -1.0869200   -0.9984510  
O    -8.5402210   -0.7775100   -1.7532450  
C    -7.7570730   -2.1062030    0.0346730  
H    -7.2167690   -4.0416340    2.2536620  
H    -8.7001380   -2.6376750    0.1181520  
H    -4.7111660   -3.6755880    3.1573620  
H    -3.5928530   -1.9773350    1.6240510  
C     4.8682530   -0.0333150   -2.5545730  
C     6.0310640   -0.6756000   -2.8133830  
C     6.3908910   -1.4334390   -1.6281290  
C     5.3274810   -1.1814030   -0.6274020  
N     4.4288590   -0.3177230   -1.2511420  
C     5.2855210   -1.7110900    0.6175790  
C     6.3729560   -2.6050210    1.0170530  
O     6.4261470   -3.1373770    2.1138190  
C     7.5196390   -2.8881980   -0.0226100  
O     8.4352690   -3.6299180    0.2937130  
C     7.4398990   -2.2466370   -1.3403140  
H     6.5933190   -0.6335910   -3.7350450  
H     4.4918350   -1.5039700    1.3273050  
H     8.2362820   -2.4512110   -2.0494510  
H     4.2731780    0.6266330   -3.1711010  
