58


C    -4.4797850   -0.1541120    0.0960420  
C    -4.9076120   -1.3336060    0.6787430  
C    -6.2459710   -1.5908440    0.2331990  
C    -6.5994390   -0.4706000   -0.6746750  
N    -5.5019640    0.3592360   -0.7035440  
C    -7.7908750   -0.3546840   -1.3153610  
C    -8.7977380   -1.3904880   -1.1046880  
O    -9.8969830   -1.3708680   -1.6382080  
C    -8.4449240   -2.5862300   -0.1446230  
O    -9.2778090   -3.4616980    0.0429950  
C    -7.1268750   -2.6015030    0.4871140  
H    -4.3189590   -1.9919870    1.2976790  
H    -8.0327850    0.4705690   -1.9776580  
H    -6.8929720   -3.4323560    1.1462020  
H    -5.3472020    1.1554180   -1.3095020  
C    -1.1926720   -0.2903320    3.1073740  
C    -2.3782860   -0.4375080    2.4485580  
C    -2.2816130    0.2866720    1.2081720  
C    -0.9301120    0.8787660    1.1942600  
N    -0.3002600    0.4455770    2.3519270  
C    -0.4194820    1.7089980    0.2359280  
C    -1.3256120    2.0239960   -0.8849310  
O    -0.9676940    2.6261640   -1.8790460  
C    -2.8056480    1.5112280   -0.8302010  
O    -3.5804360    1.9804980   -1.6542910  
C    -3.1924560    0.5076080    0.1834860  
H    -3.2451010   -0.9544450    2.8265750  
H    -0.9038000   -0.6599840    4.0824530  
H     0.5629000    0.8423920    2.6918700  
C     3.6620470   -0.1146140    0.3001020  
C     2.3051430    0.0898270    0.3204210  
C     2.0843220    1.5101550    0.2885240  
C     3.4252620    2.1356140    0.2467910  
N     4.3499880    1.0917480    0.2193580  
C     3.6649230    3.4661410    0.2165670  
C     2.5150640    4.3712970    0.1966750  
O     2.6303380    5.5834210    0.1467320  
C     1.0779340    3.7452470    0.2432750  
O     0.1205380    4.4922880    0.3382380  
C     0.9386320    2.2695240    0.2472310  
H     1.5470700   -0.6761970    0.2639170  
H     4.6604320    3.8966880    0.1715230  
H     5.3126110    1.2006280    0.5058030  
C     3.8247840   -2.4751020    0.9590560  
C     4.7019200   -3.4982370    0.8992580  
C     5.8881320   -3.0275290    0.2111470  
C     5.6298040   -1.6125320   -0.1483590  
N     4.3516090   -1.3096280    0.3591260  
C     6.4862420   -0.8499340   -0.8705040  
C     7.7744170   -1.4327050   -1.2700330  
O     8.6007560   -0.8053280   -1.9090910  
C     8.0844210   -2.9107390   -0.8528360  
O     9.1575830   -3.4033590   -1.1533240  
C     7.0482330   -3.6476530   -0.1181860  
H     4.5525610   -4.4897500    1.3020310  
H     6.2746940    0.1581420   -1.2061070  
H     7.2479000   -4.6852940    0.1309040  
H     2.8436210   -2.4280230    1.4090330  
