62


C    -1.3894540   -0.9385500   -1.7497590  
C    -2.7289680   -0.8228250   -1.4964310  
C    -2.9007140    0.1978580   -0.4899040  
C    -1.6085380    0.6833410   -0.1731700  
N    -0.7030950   -0.0356160   -0.9470330  
C    -1.3681560    1.7264090    0.7232200  
C    -2.4852560    2.3121920    1.2966060  
O    -2.3464350    3.3507730    2.1598460  
C    -3.8014410    1.8522770    1.0069050  
O    -4.7799890    2.5336090    1.6849330  
C    -4.0407250    0.7730390    0.1502240  
H    -3.5085150   -1.3751830   -2.0013570  
H    -0.3724070    2.0906440    0.9490100  
H    -3.2557420    3.6175070    2.3980840  
H    -5.5296800    2.6674080    1.0553120  
H    -0.8419920   -1.5715180   -2.4326100  
C     1.3437800    1.0364090   -1.7714590  
C     2.6798410    0.9197280   -1.5196760  
C     2.8509800   -0.0817880   -0.5000850  
C     1.5599910   -0.5589350   -0.1681880  
N     0.6536750    0.1466060   -0.9500250  
C     1.3170530   -1.5745530    0.7583850  
C     2.4281830   -2.1479940    1.3543040  
O     2.2787370   -3.1564880    2.2550900  
C     3.7416350   -1.7096320    1.0381670  
O     4.7293160   -2.3656680    1.7432960  
C     3.9832540   -0.6604500    0.1409850  
H     3.4575450    1.4992240   -1.9925650  
H     0.3192040   -1.9207980    1.0023190  
H     3.1841900   -3.4002490    2.5270170  
H     5.4218390   -2.6479930    1.1093490  
H     0.7947390    1.6731950   -2.4493860  
C    -5.4572800   -3.3734890    0.3177640  
C    -6.7534930   -3.2107500   -0.0506980  
C    -6.9629760   -1.7937110   -0.2603860  
C    -5.6581010   -1.1369360    0.0113280  
N    -4.7993880   -2.1488000    0.3705520  
C    -5.3963090    0.2128030   -0.0724390  
C    -6.5664840    1.0448700   -0.3505120  
O    -6.5685750    2.2744820   -0.2640150  
C    -7.9317500    0.3723050   -0.7547270  
O    -8.8397130    1.0951970   -1.1312830  
C    -8.0539510   -1.0759050   -0.6371920  
H    -7.4974080   -3.9869320   -0.1540060  
H    -9.0102700   -1.5295620   -0.8766620  
H    -4.9210590   -4.2793800    0.5677440  
H    -3.8086620   -2.0164590    0.5133190  
C     5.7323030    3.4005840    0.2101870  
C     7.0208300    3.1660700   -0.1203690  
C     7.1092450    1.7191510   -0.3028450  
C     5.7145400    1.2309120   -0.0517900  
N     4.9249690    2.2143980    0.2550140  
C     5.3596660   -0.1911150   -0.1220220  
C     6.4066450   -1.0244940   -0.3811300  
O     6.2816660   -2.3807560   -0.4500130  
C     7.8024070   -0.5690670   -0.6310880  
O     8.6507580   -1.4302980   -0.8763840  
C     8.1143940    0.8706930   -0.5840980  
H     7.8311110    3.8755900   -0.2149110  
H     7.1885240   -2.7024870   -0.6660300  
H     9.1435300    1.1657150   -0.7648180  
H     5.2588800    4.3476860    0.4382330  
