58


C     3.5442870    2.0581200   -0.2961520  
C     2.1890060    2.0412300   -0.1719360  
C     1.7808740    0.6761620    0.0110260  
C     3.0256040   -0.1252200   -0.0380590  
N     4.0819320    0.7759450   -0.1715140  
C     3.0793300   -1.4834040    0.0214630  
C     1.8262300   -2.2116570    0.1411970  
O     1.7627300   -3.4265090    0.2425040  
C     0.4881220   -1.3948130    0.1327690  
O    -0.5536950   -2.0354680    0.0747690  
C     0.5386350    0.0848310    0.1752960  
H     1.5445800    2.9010000   -0.2576570  
H     3.9978210   -2.0541140   -0.0491970  
H     4.2051790    2.8922920   -0.4764500  
C     6.7605920   -1.6356760    2.3150630  
C     7.8860400   -1.5238560    1.5689680  
C     7.5725170   -0.6797120    0.4331190  
C     6.1418380   -0.3120480    0.5838460  
N     5.7129730   -0.9044670    1.7469770  
C     5.4547990    0.4651160   -0.3089130  
C     6.1948580    1.0236190   -1.4500230  
O     5.6828100    1.7805050   -2.2586000  
C     7.7128040    0.6439440   -1.6094800  
O     8.3228970    1.0998720   -2.5608340  
C     8.3234080   -0.2261460   -0.6046270  
H     8.8460950   -1.9705640    1.7814490  
H     9.3711870   -0.4809560   -0.7269970  
H     6.5937070   -2.1769250    3.2365580  
H     4.7567890   -0.9163200    2.0680680  
C    -0.6866130    0.8431200    0.3648020  
C    -0.8577920    2.1310240    0.8338260  
C    -2.2660740    2.4012170    0.8912300  
C    -2.9413540    1.1683960    0.4240030  
N    -1.9371280    0.2774200    0.1154730  
C    -4.2953000    1.0155920    0.3106690  
C    -5.1309030    2.1573750    0.7473510  
O    -6.3449810    2.0900660    0.8197970  
C    -4.4264740    3.4865870    1.1997430  
O    -5.1197530    4.4483310    1.4962240  
C    -2.9689100    3.5112500    1.2597240  
H    -0.0803510    2.8010690    1.1652970  
H    -2.4889680    4.4289540    1.5859200  
H    -2.0445990   -0.7014980   -0.1160830  
C    -4.1770230   -3.2896010    1.4898150  
C    -3.9932390   -1.9448180    1.4295410  
C    -4.7707570   -1.4509040    0.3107730  
C    -5.4447920   -2.6369830   -0.2722750  
N    -5.0315740   -3.7183400    0.4827010  
C    -6.3070200   -2.6079580   -1.3209600  
C    -6.5932610   -1.3208250   -1.9375970  
O    -7.3837920   -1.1780900   -2.8577620  
C    -5.8271650   -0.0579380   -1.4017510  
O    -5.9245730    0.9857710   -2.0200730  
C    -4.9534160   -0.1946650   -0.2041710  
H    -3.3873090   -1.3550040    2.1000560  
H    -6.8060380   -3.4903590   -1.7095030  
H    -3.7619830   -4.0070250    2.1851220  
H    -5.3357780   -4.6684320    0.3400620  
