58


C     4.4395840   -0.1438880   -0.0269320  
C     4.4537050   -1.5202170   -0.0593940  
C     5.8272460   -1.9409360   -0.0672520  
C     6.6441470   -0.6973310   -0.0375740  
N     5.7450530    0.3436700   -0.0126180  
C     8.0018650   -0.6762790   -0.0354260  
C     8.7183530   -1.9473320   -0.0603840  
O     9.9377020   -2.0266410   -0.0573900  
C     7.8749520   -3.2751180   -0.0897540  
O     8.4583870   -4.3488140   -0.1069340  
C     6.4149320   -3.1713070   -0.0929390  
H     3.5876870   -2.1659850   -0.0784670  
H     8.5831780    0.2401790   -0.0146970  
H     5.8432090   -4.0941910   -0.1156300  
H     5.9460310    1.3334630   -0.0026850  
C     3.3471110    0.7919310   -0.0015460  
C     1.9952460    0.5638720   -0.0083710  
C     1.3843070    1.8693650    0.0278230  
C     2.5415750    2.8181400    0.0411460  
N     3.6806770    2.1839930    0.0275980  
C     2.3623090    4.2444570    0.0376330  
C     1.0933960    4.7137080    0.0212090  
O     0.7743430    6.0125870    0.0232200  
C    -0.1028750    3.7915120    0.0479110  
O    -1.2036230    4.3181300    0.1708690  
C     0.0914240    2.3123700    0.0037350  
H     1.4855590   -0.3876210   -0.0467660  
H     3.2227500    4.9038960    0.0421920  
H    -0.2081150    6.0448260    0.0479030  
C    -1.3959210   -1.0867380    2.4958300  
C    -0.6629810   -0.0620120    1.9819280  
C    -1.3798050    0.4525290    0.8372740  
C    -2.6153590   -0.3564720    0.7340030  
N    -2.5717980   -1.2606380    1.7825610  
C    -3.5918440   -0.2141660   -0.2117930  
C    -3.4037120    0.8851600   -1.1836090  
O    -4.2650930    1.2175020   -1.9753590  
C    -2.0654410    1.6977120   -1.1536000  
O    -1.8337850    2.4646180   -2.0705660  
C    -1.1087890    1.4720240   -0.0438570  
H     0.2822560    0.2969040    2.3591070  
H    -1.1808800   -1.7229430    3.3443130  
H    -3.2146550   -2.0306400    1.8892170  
C    -6.8828690   -0.9237680    2.6547360  
C    -7.6394750   -1.7743590    1.9187210  
C    -6.9564330   -1.9812850    0.6569030  
C    -5.7160450   -1.1718470    0.7244330  
N    -5.7058100   -0.5887070    1.9803860  
C    -4.8036390   -1.0447160   -0.2855730  
C    -5.0666530   -1.8195630   -1.5207420  
O    -4.2722870   -1.8694470   -2.4416640  
C    -6.3881580   -2.6637690   -1.6146720  
O    -6.6261230   -3.2654570   -2.6485720  
C    -7.2757730   -2.7007170   -0.4510880  
H    -8.5806490   -2.2158470    2.2124760  
H    -8.1839130   -3.2907340   -0.5270520  
H    -7.0652690   -0.5201180    3.6419640  
H    -5.1164820    0.1950160    2.2211410  
