58


C    -7.0849580    1.2602160    2.3834590  
C    -8.0548830    0.4523440    1.8871710  
C    -7.4367300   -0.3991620    0.8916380  
C    -6.0030310   -0.0141740    0.8510940  
N    -5.8606590    1.0009290    1.7701490  
C    -5.0693560   -0.5638460    0.0117420  
C    -5.5242310   -1.6703260   -0.8576370  
O    -4.7568400   -2.3251670   -1.5406750  
C    -7.0460600   -2.0537200   -0.8576330  
O    -7.4341940   -2.9128140   -1.6319930  
C    -7.9365800   -1.3670000    0.0785640  
H    -9.0965270    0.4458090    2.1726260  
H    -8.9846790   -1.6502940    0.0790310  
H    -7.1501240    2.0301440    3.1407270  
H    -4.9779770    1.4181160    2.0259430  
C    -1.7454910    0.1400230    2.9545120  
C    -2.9434030   -0.2270100    2.4332740  
C    -2.8181100    0.0010190    0.9972410  
C    -1.4178930    0.4971220    0.8367410  
N    -0.8072750    0.5935710    1.9838950  
C    -0.8561050    0.8259210   -0.4594450  
C    -1.6902760    0.7093870   -1.5261380  
O    -1.3286470    0.9850810   -2.7856550  
C    -3.1273280    0.2802190   -1.3902400  
O    -3.8209670    0.3443040   -2.3982120  
C    -3.6680510   -0.1320200   -0.0553890  
H    -3.7961130   -0.6413050    2.9523740  
H    -2.1397330    0.8552850   -3.3259400  
H    -1.4379190    0.1115220    3.9934450  
C     2.8484050   -1.3015320    0.3533690  
C     3.8286330   -0.3747520    0.1035700  
C     3.0727480    0.8293030   -0.3098560  
C     1.6436640    0.4012570   -0.2334200  
N     1.5347420   -0.8425690    0.1515100  
C     0.5456450    1.2776310   -0.5867310  
C     0.8814460    2.5105880   -1.0563690  
O    -0.0106710    3.4363080   -1.4297810  
C     2.3106680    2.9592450   -1.1729670  
O     2.5161570    4.0922140   -1.6031910  
C     3.4019460    2.0496040   -0.7702340  
H     0.5231430    4.2100540   -1.7188340  
H     4.4140490    2.4244120   -0.8560370  
H     2.9954030   -2.3111040    0.7176370  
C     6.4976500   -3.8687930   -0.6606720  
C     5.4033760   -3.0670920   -0.6415720  
C     5.8630510   -1.8036960   -0.0761220  
C     7.3091720   -2.0360320    0.1795030  
N     7.6750840   -3.2439390   -0.1535220  
C     8.1645470   -1.0109800    0.7215350  
C     7.6134440    0.1964370    0.9769450  
O     8.2965950    1.2496240    1.4626600  
C     6.1590530    0.4721070    0.7281240  
O     5.7573450    1.6059440    0.9867580  
C     5.2583710   -0.6095850    0.2068640  
H     4.4098400   -3.2956550   -0.9986180  
H     9.2144940   -1.2165460    0.8980580  
H     7.6388610    1.9726870    1.5485420  
H     6.5678190   -4.8892410   -1.0179730  
