62


C    -3.8200060    1.3344190   -0.6354050  
C    -2.6561280    0.6489570   -0.3827080  
C    -1.6879070    1.6160890    0.0447250  
C    -2.3202680    2.8836690    0.0079600  
N    -3.6207830    2.6897220   -0.4208080  
C    -1.6631990    4.0749860    0.3313540  
C    -0.3304570    3.9871730    0.6991670  
O     0.3516180    5.1133080    1.0399060  
C     0.3407960    2.7356210    0.7338930  
O     1.6458270    2.8442480    1.1409310  
C    -0.3129240    1.5355380    0.4108800  
H    -2.5080460   -0.4088460   -0.5380280  
H    -4.3636550    3.3698320   -0.3545570  
H    -2.1505080    5.0440450    0.3067270  
H     1.2569320    4.8414680    1.2743060  
H     2.0653630    1.9633990    1.2078920  
C     0.3815110    0.2583980    0.4910320  
C    -0.0629280   -0.9791640    0.8681490  
C     1.0404620   -1.9063840    0.8130360  
C     2.2065880   -1.1204700    0.3692670  
N     1.7822190    0.2120410    0.2466080  
C     3.4500360   -1.6086700    0.1177710  
C     3.6476940   -3.0588490    0.3764190  
O     4.7332240   -3.5996810    0.2843600  
C     2.4141120   -3.9161360    0.8471860  
O     2.5719090   -5.1169370    1.0098830  
C     1.1385920   -3.2413950    1.0652320  
H    -1.0585890   -1.2089950    1.2189860  
H     0.2955380   -3.8425680    1.3913440  
H     2.1719790    0.7580050   -0.5174200  
C     5.3665300    1.8880080    2.0510650  
C     6.2962760    2.1462100    1.0821910  
C     6.1073430    1.1730350    0.0401510  
C     5.0271350    0.3463780    0.4368180  
N     4.5649600    0.8242410    1.6527250  
C     4.5719370   -0.7528820   -0.3226670  
C     5.2492050   -0.9972450   -1.5203080  
O     4.8372540   -2.0093060   -2.3294010  
C     6.3274210   -0.1731820   -1.9335790  
O     6.8699820   -0.5422310   -3.1500320  
C     6.7582960    0.9017640   -1.1785060  
H     7.0312070    2.9393210    1.1015360  
H     3.9846320    0.2834180    2.2772350  
H     5.4828620   -2.0830880   -3.0538770  
H     7.6946210   -0.0561620   -3.2977210  
H     7.5858360    1.5193020   -1.5216540  
H     5.1840090    2.3838540    2.9940220  
C    -5.7479160    1.3321490   -2.2100060  
C    -6.9265480    0.6875670   -2.3796800  
C    -7.0562160   -0.2727570   -1.3025960  
C    -5.8362490   -0.1304590   -0.4715220  
N    -5.0683890    0.8730400   -1.0689170  
C    -5.5812700   -0.8546630    0.6453460  
C    -6.5692450   -1.8465560    1.0687820  
O    -6.4287640   -2.5373050    2.0657090  
C    -7.8656350   -2.0225250    0.1971820  
O    -8.6974000   -2.8508500    0.5312500  
C    -8.0233020   -1.1733480   -0.9877860  
H    -7.6354850    0.8498770   -3.1787050  
H    -4.6833510   -0.7315560    1.2405520  
H    -8.9253650   -1.2962280   -1.5794870  
H    -5.2856440    2.0999810   -2.8162980  
