62


C     0.1120320    0.2379040   -0.4797210  
C    -0.3223810    1.5601230   -0.4335290  
C     0.8215310    2.3883460   -0.2747450  
C     1.9557420    1.5311660   -0.2179060  
N     1.4976950    0.2432080   -0.3338990  
C     3.2832330    2.0159980   -0.0750530  
C     3.4189540    3.4135820   -0.0374540  
O     4.6472340    3.9802610    0.0805950  
C     2.2880290    4.2722480   -0.0940180  
O     2.6184630    5.6107270   -0.0214780  
C     1.0032870    3.7851360   -0.2011630  
H    -1.3355850    1.9071140   -0.5603790  
H     2.0386150   -0.5915870   -0.5389410  
H     4.5157530    4.9439910    0.1389060  
H     1.8130270    6.1483780   -0.0083030  
H     0.1542040    4.4639410   -0.2409570  
C    -4.2306890   -0.8489350   -0.1534750  
C    -3.0150490   -0.2108170   -0.1333250  
C    -1.9900870   -1.1302130   -0.5371570  
C    -2.6822830   -2.4008450   -0.8099750  
N    -4.0351160   -2.2104870   -0.5023330  
C    -2.1040860   -3.5364230   -1.2717350  
C    -0.6638570   -3.5294660   -1.4539050  
O    -0.0275340   -4.4808220   -1.8770870  
C     0.1253750   -2.2312930   -1.0497740  
O     1.3498140   -2.3089660   -1.0725640  
C    -0.6137280   -1.0042680   -0.6722200  
H    -2.8650100    0.7884160    0.2402720  
H    -2.6534750   -4.4470070   -1.4882140  
H    -4.7354890   -2.6840500   -1.0638130  
C    -6.1978730    3.1611200   -0.5874150  
C    -5.3043680    2.1196520   -0.6376700  
C    -5.9364120    0.9897190   -0.0227010  
C    -7.2320170    1.4106740    0.3751850  
N    -7.3578630    2.7391960    0.0264600  
C    -8.1592420    0.5595120    0.9851900  
C    -7.7775610   -0.7559790    1.1993160  
O    -8.6395140   -1.6188610    1.8049680  
C    -6.4951710   -1.2140130    0.8085310  
O    -6.2726740   -2.5367140    1.1177130  
C    -5.5534120   -0.3664400    0.1993240  
H    -4.3230660    2.1550940   -1.0865710  
H    -8.1789900    3.3044480    0.1764300  
H    -9.1458550    0.8875020    1.2961120  
H    -8.1743630   -2.4675930    1.9085060  
H    -5.3259970   -2.7451400    1.0098860  
H    -6.1019980    4.1768380   -0.9439240  
C     4.4345010    1.1332650    0.0537490  
C     5.7586040    1.3381700   -0.2341460  
C     6.4854250    0.1412140    0.0924950  
C     5.4855630   -0.8148810    0.6236100  
N     4.2498240   -0.1907090    0.5166880  
C     5.7835100   -2.0446170    1.1077310  
C     7.1794690   -2.4796270    1.0836940  
O     7.5422460   -3.5676100    1.5045180  
C     8.2520420   -1.4998410    0.4794410  
O     9.4207170   -1.8588590    0.4403440  
C     7.8036410   -0.1938320    0.0043020  
H     6.1742450    2.2400790   -0.6532550  
H     5.0383270   -2.7313350    1.4976230  
H     8.5539560    0.4843780   -0.3907460  
H     3.4835710   -0.4332060    1.1300110  
