60


C    -2.6147720   -3.6817710   -1.3102160  
C    -3.9577990   -3.8309780   -1.2281400  
C    -4.4450160   -2.8849970   -0.2502580  
C    -3.2503260   -2.1578300    0.2502670  
N    -2.1565950   -2.6615610   -0.4544320  
C    -3.2914780   -1.2218530    1.2350340  
C    -4.5899640   -0.8650730    1.8060400  
O    -4.7158260   -0.0266700    2.6854250  
C    -5.8695720   -1.5883260    1.2531300  
O    -6.9640470   -1.2761390    1.6956330  
C    -5.6887480   -2.6156900    0.2258470  
H    -4.5561350   -4.5349210   -1.7881620  
H    -2.4122290   -0.7341500    1.6388100  
H    -6.5726000   -3.1425220   -0.1209560  
H    -1.8970530   -4.2150300   -1.9139990  
C    -0.2621290    1.2867100   -0.4991000  
C     1.0383000    0.8552350   -0.3250700  
C     1.0362110   -0.5673020   -0.2060390  
C    -0.3774420   -0.9785640   -0.3486570  
N    -1.1043860    0.1715840   -0.5147110  
C    -0.8059120   -2.2800010   -0.3259260  
C     0.2175820   -3.3291540   -0.2056160  
O    -0.0496710   -4.5182210   -0.2723980  
C     1.7103230   -2.9034380    0.0206980  
O     2.5122460   -3.7828120    0.2872450  
C     2.0605860   -1.4780450   -0.0465580  
H     1.9238230    1.4671650   -0.3592960  
H    -2.0957000    0.2353260   -0.6999140  
C     4.3541780    1.3635890    2.5699080  
C     3.3296690    0.6523860    2.0325110  
C     3.9395390   -0.1580020    0.9828670  
C     5.3862440    0.2059000    1.0481890  
N     5.6195460    1.1008880    1.9704270  
C     6.3652250   -0.4080100    0.1903360  
C     5.9315990   -1.3351070   -0.6941810  
O     6.7290220   -1.9831330   -1.5568950  
C     4.4729370   -1.6899090   -0.8271250  
O     4.1614040   -2.4266660   -1.7555290  
C     3.4647260   -1.0825210    0.1038790  
H     2.2935170    0.6392150    2.3389020  
H     7.4094510   -0.1267600    0.2686550  
H     6.1308280   -2.5457940   -2.0962250  
H     4.3114040    2.0690480    3.3921450  
C     1.4997160    5.1654550    0.7075230  
C     0.4992130    5.9665790    0.2308120  
C    -0.4931460    5.1004370   -0.3377500  
C    -0.0251030    3.7677920   -0.1895880  
N     1.1963920    3.8405980    0.4421540  
C    -0.7727180    2.6377680   -0.6232280  
C    -2.0410830    2.9200060   -1.1652510  
O    -2.8572580    1.9040170   -1.5774030  
C    -2.5052050    4.2449080   -1.3241740  
O    -3.7525740    4.3209140   -1.9107090  
C    -1.7466350    5.3314430   -0.9317690  
H     0.4644850    7.0457400    0.2809710  
H     1.7041540    3.0554610    0.8227900  
H    -3.6926160    2.3097290   -1.8757070  
H    -4.1145790    5.2138360   -1.8108390  
H    -2.1219550    6.3431450   -1.0678630  
H     2.4201450    5.4198080    1.2133100  
