62


C    -1.5706980   -0.0161170    0.8159680  
C    -1.3503070    1.2646050    0.3694980  
C    -2.5543680    1.6591760   -0.3380960  
C    -3.4589190    0.5708160   -0.2733310  
N    -2.8283890   -0.4610840    0.4261100  
C    -4.7459140    0.6309910   -0.8268400  
C    -5.1086200    1.7974530   -1.4880030  
O    -6.3499130    1.9008940   -2.0412170  
C    -4.2005080    2.8818480   -1.5925030  
O    -4.6994650    3.9622090   -2.2900930  
C    -2.9401210    2.8279930   -1.0237750  
H    -5.4716920   -0.1677740   -0.7257360  
H    -6.4211800    2.7905190   -2.4290010  
H    -4.0544510    4.6851270   -2.2781160  
H    -2.2630600    3.6747210   -1.1016150  
H    -0.9344690   -0.6546210    1.4084820  
C     3.0118620    0.3917710   -0.4099470  
C     1.6276800    0.3295980   -0.3170470  
C     1.1678960    1.5508980    0.2507550  
C     2.3185170    2.3561960    0.4872320  
N     3.4236940    1.6171000    0.1168100  
C     2.2458120    3.6520660    1.0032480  
C     0.9816680    4.1383780    1.3033730  
O     0.8426980    5.3863990    1.8278160  
C    -0.1795730    3.3464900    1.0895740  
O    -1.3500680    3.9752470    1.4657150  
C    -0.1231210    2.0574110    0.5695250  
H     1.0257190   -0.5249970   -0.5901660  
H     4.3391300    2.0113760   -0.0388870  
H     3.1193170    4.2685230    1.1873810  
H    -0.1019230    5.5060010    2.0319450  
H    -2.0667000    3.3188050    1.4903260  
C     3.7315500   -1.5776200   -1.8277910  
C     3.9451890   -0.5709530   -0.9240970  
C     5.3796660   -0.7168810   -0.5595500  
C     5.8464610   -1.8634480   -1.3771290  
N     4.8728740   -2.3585550   -2.1008150  
C     7.2022060   -2.3322100   -1.3103260  
C     8.0526810   -1.7139960   -0.4517800  
O     9.3471940   -2.0540860   -0.2957280  
C     7.6048990   -0.5826210    0.4118220  
O     8.4249370   -0.0632450    1.1721520  
C     6.2011510   -0.1181990    0.3241350  
H     7.5171710   -3.1659600   -1.9283410  
H     9.6932980   -1.4414010    0.3888110  
H     5.9131060    0.6818550    0.9994550  
H     2.8074500   -1.8042180   -2.3452380  
C    -4.6608390   -3.4285010   -2.1857070  
C    -4.9610010   -4.3701380   -1.2555820  
C    -4.4932600   -3.8797300    0.0244010  
C    -3.8948650   -2.5505550   -0.2470500  
N    -4.0024950   -2.3459120   -1.6058180  
C    -3.3541920   -1.7388940    0.7113140  
C    -3.3167090   -2.2457810    2.0946430  
O    -2.8167150   -1.6213330    3.0147760  
C    -3.9375730   -3.6643130    2.3859330  
O    -3.9052900   -4.0792850    3.5331020  
C    -4.5107650   -4.4168930    1.2743800  
H    -5.4466890   -5.3182810   -1.4336620  
H    -4.9358980   -5.3921680    1.4886580  
H    -4.8475310   -3.4302840   -3.2513530  
H    -3.8137240   -1.4655290   -2.0626110  
