60


C    -0.9969570    0.2101780   -1.0235340  
C    -2.1267040   -0.4192230   -0.5233390  
C    -1.6698560   -1.6740190    0.0398210  
C    -0.2710840   -1.7402770   -0.1830730  
N     0.0970840   -0.5804880   -0.8460930  
C     0.5239750   -2.8538770    0.1916740  
C    -0.1464620   -3.8383630    0.9387340  
O     0.5438710   -4.8701150    1.4887150  
C    -1.5477890   -3.7854320    1.1515450  
O    -2.0372500   -4.8685890    1.8540030  
C    -2.3205770   -2.7410690    0.6871130  
H     1.0601990   -0.2398380   -0.7901990  
H    -0.1078530   -5.4699390    1.8930500  
H    -3.0029520   -4.8164440    1.9080150  
H    -3.3991780   -2.7505340    0.8219070  
H    -0.9008760    1.1983880   -1.4502290  
C     4.0092970   -0.0782860    0.0284220  
C     5.0384570   -0.9677180   -0.1360610  
C     4.4183290   -2.2625740   -0.2850410  
C     2.9494950   -2.0010850   -0.1180380  
N     2.7310270   -0.7287320    0.0406270  
C     1.9468420   -3.0560320   -0.1731930  
C     2.4243540   -4.2624500   -0.6219070  
O     1.6520070   -5.3133970   -0.9050960  
C     3.8876840   -4.5470810   -0.8352380  
O     4.1951610   -5.6812140   -1.2051680  
C     4.8792870   -3.4872580   -0.6186610  
H     6.0945520   -0.7517540   -0.2180870  
H     2.2747990   -6.0270860   -1.1744390  
H     5.9239870   -3.7316670   -0.7828800  
C     4.0624690    1.3570770    0.1401080  
C     5.1532200    2.1471980    0.3996450  
C     4.6616080    3.5045030    0.3912360  
C     3.1976340    3.3636320    0.0960660  
N     2.8532960    2.1181340   -0.0481920  
C     2.3375870    4.5146590   -0.0054550  
C     2.8932840    5.7351430    0.1818850  
O     2.2154240    6.8877200    0.1204220  
C     4.3647940    5.9076630    0.4844620  
O     4.7789920    7.0552600    0.6374690  
C     5.2262370    4.7198450    0.5792860  
H     6.1681360    1.8315440    0.5978060  
H     1.2820930    4.3893470   -0.2190960  
H     2.8770990    7.5934270    0.2968130  
H     6.2780440    4.8833600    0.7928570  
C    -3.4579900    0.1270680   -0.5457550  
C    -4.0388420    1.0191900   -1.4155940  
C    -5.3750620    1.2886120   -0.9681310  
C    -5.5621120    0.4829070    0.2643090  
N    -4.3959720   -0.2501030    0.4353020  
C    -6.6785060    0.5046490    1.0314050  
C    -7.7975200    1.3450930    0.6071850  
O    -8.8431940    1.4188630    1.2352070  
C    -7.6410920    2.1723770   -0.7212520  
O    -8.5769070    2.8706810   -1.0893830  
C    -6.3804890    2.0785420   -1.4465220  
H    -3.5819430    1.4003800   -2.3177820  
H    -6.7937820   -0.0824840    1.9378450  
H    -6.2759350    2.6698420   -2.3512730  
H    -4.1002960   -0.5834160    1.3422190  
