60


C     2.1116840    2.2170870   -1.9366580  
C     3.3380250    1.7165650   -1.5818850  
C     3.1106080    0.5161820   -0.8180560  
C     1.7026660    0.3443540   -0.7619980  
N     1.1224260    1.3911030   -1.4440800  
C     1.1008110   -0.7659000   -0.1413980  
C     1.9549890   -1.7280550    0.3884780  
O     1.4467130   -2.8482750    0.9635680  
C     3.3666600   -1.5767610    0.3362210  
O     4.0354030   -2.6112020    0.9356280  
C     3.9768310   -0.4486900   -0.2198620  
H     4.2919950    2.1309050   -1.8732880  
H     0.1301390    1.5491090   -1.5295150  
H     2.2268650   -3.3783180    1.2255440  
H     4.8247580   -2.8109130    0.3711940  
H     1.8568170    3.0941710   -2.5140720  
C    -0.9849470   -2.0684970   -0.5867720  
C    -2.3261490   -1.9623590   -0.3996590  
C    -2.5667200   -0.6983680    0.2533820  
C    -1.2391450   -0.0693020    0.4423220  
N    -0.3080940   -0.9448390   -0.1054720  
C    -1.0302310    1.1394000    1.0313870  
C    -2.1863980    1.8854280    1.5057310  
O    -2.1120590    2.9995920    2.0000550  
C    -3.6089620    1.2271530    1.3722380  
O    -4.5701030    1.7927780    1.8595650  
C    -3.7112220   -0.0803130    0.6827740  
H    -3.0705780   -2.6829400   -0.7031000  
H    -0.0452490    1.5672190    1.1768410  
H    -0.4136260   -2.8654890   -1.0403620  
C    -5.2492960   -1.9867450    1.1328220  
C    -6.5401220   -2.3395060    0.9226910  
C    -7.1757630   -1.2531950    0.2083610  
C    -6.1327950   -0.2152840    0.0207800  
N    -4.9664170   -0.7156850    0.6104220  
C    -6.3293200    0.9439490   -0.6517000  
C    -7.6560030    1.2104040   -1.2076950  
O    -7.9167640    2.2231170   -1.8382140  
C    -8.7834990    0.1377680   -0.9912270  
O    -9.8985890    0.3493080   -1.4415750  
C    -8.4381980   -1.0864510   -0.2654630  
H    -7.0127810   -3.2568690    1.2429680  
H    -5.5623310    1.6971250   -0.7874160  
H    -9.2142840   -1.8354110   -0.1401240  
H    -4.4624350   -2.5238000    1.6451580  
C     6.3178110    3.0705930    0.9834910  
C     7.5743510    2.6343190    0.7208900  
C     7.4607860    1.2769280    0.2283970  
C     6.0082680    0.9581510    0.2178900  
N     5.3797900    2.0784670    0.6999780  
C     5.4446770   -0.2352090   -0.1831520  
C     6.4040260   -1.2833950   -0.5195760  
O     6.0945420   -2.4628350   -0.7076360  
C     7.9353910   -0.9406390   -0.6289890  
O     8.6875530   -1.7965700   -1.0625350  
C     8.3874540    0.3748350   -0.1854570  
H     8.4924630    3.1847360    0.8641940  
H     9.4506730    0.5888260   -0.2230570  
H     5.9851300    4.0248250    1.3696630  
H     4.3773140    2.1995040    0.7087400  
