58


C    -2.0037380   -0.4947120   -2.9506420  
C    -0.9531840   -0.7168850   -2.1178960  
C    -1.4274360   -0.5258400   -0.7629670  
C    -2.8630950   -0.1798620   -0.8771850  
N    -3.1455210   -0.1725630   -2.2304160  
C    -3.7059280    0.0831650    0.1658950  
C    -3.1296660   -0.0331040    1.5201060  
O    -3.8011910    0.0561370    2.5317540  
C    -1.5970060   -0.3303940    1.6659230  
O    -1.0980890   -0.2711480    2.7750070  
C    -0.8002360   -0.6220620    0.4512050  
H     0.0483340   -0.9929740   -2.4105290  
H    -2.0444820   -0.5417700   -4.0308970  
H    -4.0526960    0.0308930   -2.6197040  
C     2.9770950    1.3235660   -0.8465330  
C     1.6818320    0.9955640   -0.6351410  
C     1.6571770   -0.2407790    0.1169260  
C     3.0716100   -0.6189300    0.3366370  
N     3.8489590    0.3621340   -0.3076670  
C     3.4720370   -1.6590340    1.1049510  
C     2.4481860   -2.5101160    1.7078030  
O     2.7175800   -3.4577630    2.4273450  
C     0.9450550   -2.1952960    1.4019870  
O     0.0924130   -2.9813550    1.7707920  
C     0.6187430   -0.9708140    0.6251010  
H     0.8212770    1.5537350   -0.9719140  
H     4.5084190   -1.9057250    1.2985380  
H     3.3986960    2.1680120   -1.3735130  
C    -7.2176330   -1.9569370   -1.6866320  
C    -5.9723680   -1.6410680   -1.2424660  
C    -6.0558690   -0.3372250   -0.6138580  
C    -7.4744730    0.0811880   -0.7280690  
N    -8.1173470   -0.9351880   -1.4122690  
C    -7.9917160    1.2296720   -0.2218350  
C    -7.0934450    2.1359690    0.4815200  
O    -7.4632020    3.1780730    0.9990270  
C    -5.5702300    1.7585130    0.5546630  
O    -4.7869120    2.5789610    0.9955670  
C    -5.1241220    0.4443040    0.0173170  
H    -5.0930010   -2.2634850   -1.3126700  
H    -9.0409750    1.4978890   -0.2973540  
H    -7.5578560   -2.8519900   -2.1907200  
H    -9.1128870   -0.9813420   -1.5643110  
C     6.6789750    3.6700030    0.4520570  
C     5.5174310    2.9734110    0.3775150  
C     5.9053680    1.6439610   -0.0804630  
C     7.3829340    1.7314140   -0.2409210  
N     7.8292480    2.9161580    0.0726330  
C     8.1774740    0.6070350   -0.6680030  
C     7.5403590   -0.5559920   -0.9306760  
O     8.1586170   -1.6817230   -1.3277900  
C     6.0491710   -0.6865930   -0.8151660  
O     5.5376370   -1.7455380   -1.1623980  
C     5.2434890    0.4830210   -0.3302390  
H     4.5241880    3.3095930    0.6387820  
H     9.2523630    0.7105380   -0.7643370  
H     7.4488710   -2.3396760   -1.4870370  
H     6.8167950    4.6964950    0.7697770  
