60


C    -1.4868630   -0.4972040    0.4457880  
C    -0.6613410    0.4712810   -0.0638110  
C    -1.4633110    1.3558800   -0.8698410  
C    -2.7849110    0.8545040   -0.8197340  
N    -2.7817450   -0.2870640   -0.0108000  
C    -3.8491250    1.4935440   -1.4655780  
C    -3.5642360    2.6428000   -2.1852740  
O    -4.5656880    3.3012090   -2.8307420  
C    -2.2370800    3.1487360   -2.2550600  
O    -2.1181240    4.2942730   -3.0113210  
C    -1.1883190    2.5209000   -1.6105970  
H    -4.8650900    1.1201190   -1.4391180  
H    -4.1725220    4.0783370   -3.2643210  
H    -1.2147260    4.6385620   -2.9471320  
H    -0.1810980    2.9263300   -1.6626050  
H    -1.2571710   -1.3438800    1.0755280  
C     1.6412950   -0.4479200   -0.2618470  
C     2.9262840   -0.1557750    0.1047130  
C     2.8628500    1.1376490    0.7933120  
C     1.4369440    1.5446940    0.7810830  
N     0.7375700    0.5334590    0.1270690  
C     0.9499810    2.6887910    1.3259220  
C     1.8912810    3.6149660    1.9454700  
O     1.5513230    4.6719290    2.4567000  
C     3.4130930    3.2270490    1.9367980  
O     4.2240910    4.0023220    2.4176100  
C     3.8063800    1.9422330    1.3440670  
H    -0.1029740    2.9478200    1.3114570  
H     4.8543490    1.6721740    1.3922530  
H     1.2670450   -1.3220110   -0.7776310  
C     4.1960440   -2.3336470   -3.5501180  
C     3.5591110   -1.5276720   -2.6611610  
C     4.2861480   -1.5971480   -1.4097280  
C     5.4211210   -2.5186000   -1.6516610  
N     5.2951760   -2.9455010   -2.9589520  
C     6.3800630   -2.8392200   -0.7425310  
C     6.2975690   -2.2335530    0.5734380  
O     7.1184210   -2.4202580    1.4593170  
C     5.0816380   -1.2797550    0.8788880  
O     4.9815250   -0.8245880    2.0055120  
C     4.0922520   -0.9891310   -0.1914090  
H     2.6857030   -0.9271340   -2.8635760  
H     7.2048460   -3.5122380   -0.9546920  
H     3.9607500   -2.5329340   -4.5871070  
H     5.9524290   -3.5465420   -3.4307890  
C    -4.3191460   -1.5709430    3.8831620  
C    -3.6190700   -0.9537230    2.8943600  
C    -4.1847970   -1.3880090    1.6368900  
C    -5.2858800   -2.3215730    1.9751470  
N    -5.3029720   -2.3965630    3.3545790  
C    -6.0967660   -2.9340880    1.0739250  
C    -5.8731790   -2.6705630   -0.3394300  
O    -6.5662070   -3.1331160   -1.2314900  
C    -4.6715690   -1.7363520   -0.7452530  
O    -4.4135540   -1.5896130   -1.9259570  
C    -3.8859470   -1.0934040    0.3334800  
H    -2.8055820   -0.2567440    3.0256360  
H    -6.9058180   -3.6012540    1.3533890  
H    -4.2027780   -1.4900930    4.9557550  
H    -5.9709240   -2.9265780    3.8921860  
