60


C    -0.2810390    1.8466540   -0.0846520  
C    -0.6357290    3.1888270   -0.1083350  
C    -2.0552950    3.2539770   -0.0836690  
C    -2.5414110    1.9163020   -0.0297470  
N    -1.4527100    1.0906310   -0.0262490  
C    -3.9244440    1.5950610   -0.0055390  
C    -4.7960290    2.6926820   -0.0908280  
O    -6.1507320    2.5036780   -0.1009020  
C    -4.3198010    4.0280220   -0.1432370  
O    -5.3341870    4.9639050   -0.2021210  
C    -2.9733860    4.3228710   -0.1290680  
H     0.0655470    4.0067310   -0.1458010  
H    -1.4637290    0.0847290   -0.1119310  
H    -6.5645540    3.3850540   -0.1431950  
H    -4.9590270    5.8567690   -0.2112610  
H    -2.6292950    5.3538880   -0.1670560  
C     3.7401560    3.6123570   -0.2702030  
C     4.5286180    2.5168220   -0.2447340  
C     3.6122740    1.3838560   -0.1698190  
C     2.2553190    2.0119640   -0.1586570  
N     2.3419320    3.3069420   -0.2239290  
C     1.0232400    1.2175950   -0.1052090  
C     1.2173280   -0.1386300   -0.0736230  
O     0.1988720   -1.0350580   -0.0049480  
C     2.5479490   -0.7880490   -0.0812600  
O     2.5779580   -2.0172940    0.0138770  
C     3.7880850    0.0417650   -0.1733400  
H     5.6065800    2.4653900   -0.2534830  
H     0.6419310   -1.9144130    0.0234820  
H     4.0361300    4.6529640   -0.3193340  
C     7.3139110    0.2734000    2.4641330  
C     8.1404030   -0.6471110    1.9190800  
C     7.4174580   -1.1718270    0.7647370  
C     6.1202930   -0.4179210    0.7747590  
N     6.0682560    0.4200480    1.7661710  
C     5.0863970   -0.6570350   -0.2211430  
C     5.3720220   -1.5852910   -1.1780030  
O     4.5540270   -1.8800630   -2.1924040  
C     6.6728450   -2.3494780   -1.2092240  
O     6.8244310   -3.1614580   -2.1184290  
C     7.6892620   -2.0980770   -0.1743230  
H     9.1244600   -0.9470420    2.2510960  
H     5.0095270   -2.5862850   -2.7040970  
H     8.6077110   -2.6745830   -0.2269370  
H     7.4826260    0.8883730    3.3398230  
C    -4.3950710    0.2197680    0.1083560  
C    -3.7473230   -0.8899070    0.6055760  
C    -4.6380850   -2.0135060    0.5031070  
C    -5.8887230   -1.4899420   -0.1012070  
N    -5.6700240   -0.1510660   -0.3331440  
C    -6.9925450   -2.2411170   -0.3491990  
C    -6.9583060   -3.6593770   -0.0085420  
O    -7.9032860   -4.4126230   -0.1943450  
C    -5.6392920   -4.2384650    0.6259600  
O    -5.5955510   -5.4270170    0.9117750  
C    -4.5193510   -3.3271280    0.8469540  
H    -2.7719250   -0.9130210    1.0670570  
H    -7.8998850   -1.8400490   -0.7904340  
H    -3.6164580   -3.7371840    1.2896150  
H    -6.3724360    0.5258700   -0.5921180  
