62


C    -2.3216770    0.7185850    0.2970010  
C    -1.5572670   -0.3035230   -0.2069310  
C    -1.7265890   -1.4208220    0.6763230  
C    -2.6333790   -1.0200860    1.6922890  
N    -2.9898980    0.2904590    1.4350960  
C    -3.0477550   -1.8692440    2.7235580  
C    -2.5202650   -3.1508000    2.7392690  
O    -2.8634500   -4.0138930    3.7349130  
C    -1.6154990   -3.5763060    1.7309220  
O    -1.1748030   -4.8739780    1.8928850  
C    -1.2085470   -2.7425100    0.6864460  
H    -0.9611340   -0.2631970   -1.1062730  
H    -3.5124080    0.8920770    2.0538670  
H    -3.7372400   -1.5611230    3.5024390  
H    -2.3478850   -4.8287210    3.6017530  
H    -0.3956050   -5.0171800    1.3289580  
C     2.8611830   -1.2825410   -0.6580120  
C     1.6411640   -1.4558970   -0.0062960  
C     0.9984350   -2.5779540   -0.5851940  
C     1.8697770   -3.0813470   -1.5988100  
N     2.9881020   -2.2838570   -1.6146370  
C     1.5565860   -4.1963560   -2.3824380  
C     0.3368820   -4.8099030   -2.1456090  
O    -0.0342220   -5.8840510   -2.8854350  
C    -0.5503500   -4.3269520   -1.1365160  
O    -1.7199780   -5.0447640   -1.0546270  
C    -0.2482370   -3.2266260   -0.3408850  
H     1.2859880   -0.8225420    0.7913960  
H     3.7648440   -2.3824040   -2.2496870  
H     2.2120640   -4.5815280   -3.1561610  
H    -0.9285110   -6.1425990   -2.5982220  
H    -2.3352930   -4.5870210   -0.4557530  
C    -1.3465080    2.8580030   -0.4884040  
C    -1.7558130    4.0720420   -0.9277470  
C    -3.2030460    4.0866220   -0.8821790  
C    -3.6143820    2.7511960   -0.3820880  
N    -2.4364380    2.0416730   -0.1441440  
C    -4.9032560    2.3564960   -0.2241130  
C    -5.9649660    3.3093920   -0.5449880  
O    -7.1511260    3.0412270   -0.4332530  
C    -5.5515520    4.7382610   -1.0530650  
O    -6.4252810    5.5505290   -1.3119980  
C    -4.1236250    5.0341040   -1.1996740  
H    -1.1189180    4.8859160   -1.2425250  
H    -5.1895550    1.3664390    0.1137540  
H    -3.8483710    6.0174290   -1.5688300  
H    -0.3473290    2.4632340   -0.3604210  
C     3.8364070   -0.2709530   -0.4317130  
C     5.0655450   -0.0685620   -1.0207210  
C     5.6021920    1.1084100   -0.4051700  
C     4.5425790    1.5272680    0.5758870  
N     3.5185130    0.7237180    0.5575770  
C     4.7057820    2.6916620    1.4059360  
C     5.8531960    3.3976020    1.2710730  
O     6.1495160    4.4991070    1.9699640  
C     6.9418060    2.9993260    0.2906210  
O     7.9413170    3.7245350    0.2604430  
C     6.7559350    1.8195240   -0.5380550  
H     5.5490280   -0.6646600   -1.7831290  
H     3.9308410    2.9754190    2.1093060  
H     7.0409640    4.7674420    1.6436230  
H     7.5522630    1.5607020   -1.2287720  
