60


C    -1.9145720   -1.9260860    2.2355740  
C    -0.9134460   -1.1673440    1.6932650  
C    -1.5069930   -0.3203870    0.6965720  
C    -2.8968140   -0.6057440    0.6965080  
N    -3.1206130   -1.5773630    1.6522510  
C    -3.8346660    0.0308050   -0.1435830  
C    -3.3158650    1.0139700   -0.9878900  
O    -4.1482600    1.7243650   -1.7888990  
C    -1.9350180    1.3383820   -0.9948490  
O    -1.6042760    2.3201450   -1.9059480  
C    -1.0019700    0.6737670   -0.1884690  
H     0.1303530   -1.2188460    1.9620420  
H    -3.9905680   -2.0743320    1.7655250  
H    -3.5744470    2.3309730   -2.2949650  
H    -1.0539460    2.9901270   -1.4482710  
H    -1.8758960   -2.6873950    3.0017670  
C     2.5246040   -1.9059050   -0.7542060  
C     3.5638510   -1.0285510   -0.6935570  
C     2.9108750    0.2848310   -0.4976540  
C     1.4547900   -0.0312800   -0.4342570  
N     1.2470640   -1.3052890   -0.6019270  
C     0.4349980    1.0057080   -0.2625540  
C     0.9177340    2.2826050   -0.2525080  
O     0.1166900    3.3817680   -0.1380550  
C     2.3549280    2.6322520   -0.3529070  
O     2.6663300    3.8260610   -0.3157520  
C     3.3560080    1.5531340   -0.4790930  
H     0.7409970    4.1448180   -0.1464710  
H     4.3978840    1.8469170   -0.5573320  
H     2.5785300   -2.9800310   -0.8868040  
C     5.5068660   -2.1356990   -1.8340160  
C     4.9797610   -1.3012730   -0.8860570  
C     6.1140420   -0.8010340   -0.1083850  
C     7.3299470   -1.4149860   -0.6990490  
N     6.8850810   -2.2213330   -1.7302640  
C     8.5954660   -1.1955190   -0.2632590  
C     8.7924010   -0.3049760    0.8781630  
O     9.8929440   -0.0413880    1.3358800  
C     7.5180910    0.3283220    1.5452010  
O     7.6551110    1.0571010    2.5140360  
C     6.2024560    0.0164260    0.9728260  
H     9.4701120   -1.6561940   -0.7121490  
H     5.3340210    0.4573230    1.4511420  
H     4.9854790   -2.6809290   -2.6097350  
H     7.4837580   -2.7311880   -2.3613830  
C    -6.7900780    0.2415210    3.0949340  
C    -7.8972280   -0.1884190    2.4350690  
C    -7.5017090   -0.4799340    1.0725760  
C    -6.0511770   -0.1839160    0.9944110  
N    -5.6775860    0.2290550    2.2624140  
C    -5.2761970   -0.2911000   -0.1252700  
C    -5.9534870   -0.7874230   -1.3455650  
O    -5.3602090   -1.0197620   -2.3828640  
C    -7.5013520   -1.0743250   -1.2893490  
O    -8.0655280   -1.4294410   -2.3130050  
C    -8.1967640   -0.9096930   -0.0153080  
H    -8.8907820   -0.2908820    2.8465360  
H    -9.2616810   -1.1193990    0.0123260  
H    -6.6859090    0.5606160    4.1237900  
H    -4.7648280    0.5933700    2.4896560  
