58


C    -0.0843070    4.5249110    0.1260770  
C     0.7692590    5.5601720    0.2753730  
C     2.1173390    5.0335700    0.2407830  
C     1.9907650    3.5694820    0.0508840  
N     0.6004260    3.2999620   -0.0041360  
C     3.0505710    2.7372360   -0.0688320  
C     4.4014230    3.3067820    0.0439890  
O     5.4026240    2.6132930   -0.0170540  
C     4.5512890    4.8511420    0.2556580  
O     5.6651410    5.3399000    0.3394050  
C     3.3224400    5.6480450    0.3392110  
H     0.4942020    6.5972620    0.4056990  
H     2.9499660    1.6742010   -0.2344360  
H     3.4226590    6.7208130    0.4726020  
H    -1.1639200    4.5268310    0.1177730  
C    -0.0406390    2.0939130   -0.1446770  
C    -1.3926820    1.8720930   -0.3325360  
C    -1.5197250    0.4563820   -0.3781420  
C    -0.1235370   -0.0694510   -0.2034370  
N     0.7267290    0.9150160   -0.0698830  
C     0.2010970   -1.4862590   -0.1826260  
C    -0.8813560   -2.3251360   -0.3308460  
O    -0.8276110   -3.6453560   -0.2768540  
C    -2.3040010   -1.8275180   -0.5538460  
O    -3.1560600   -2.6969030   -0.7386580  
C    -2.5822240   -0.3929640   -0.5450470  
H    -2.1905330    2.5930990   -0.4185160  
H    -1.7520290   -3.9500480   -0.4514910  
C     1.5702430   -1.9516500   -0.0217250  
C     2.6406230   -1.2859400    0.5121920  
C     3.7596670   -2.1969650    0.4098930  
C     3.1820130   -3.4166090   -0.2386490  
N     1.9152180   -3.2747080   -0.4876790  
C     3.9943210   -4.5706260   -0.5321850  
C     5.3033800   -4.5184320   -0.1925620  
O     6.1776540   -5.5138110   -0.3973360  
C     5.9132170   -3.3009670    0.4657870  
O     7.1121960   -3.3516680    0.7369490  
C     5.0679650   -2.1315530    0.7459240  
H     2.6515590   -0.2967890    0.9394780  
H     3.5532030   -5.4413570   -1.0042020  
H     7.0351940   -5.1793590   -0.0500590  
H     5.5430840   -1.2678840    1.2010100  
C    -4.1960930    0.9835710   -1.8325880  
C    -5.5206320    1.2618000   -1.8642770  
C    -6.1514710    0.4984330   -0.8083820  
C    -5.0677290   -0.2669710   -0.1458290  
N    -3.8841380    0.0585990   -0.8228760  
C    -5.2538470   -1.0617890    0.9344020  
C    -6.6109090   -1.2121210    1.4639590  
O    -6.8654320   -1.9076510    2.4339500  
C    -7.7776120   -0.4374240    0.7537320  
O    -8.9156530   -0.5575570    1.1777620  
C    -7.4406800    0.4157540   -0.3890760  
H    -6.0191910    1.9197830   -2.5615240  
H    -4.4581980   -1.6107710    1.4234120  
H    -8.2462590    0.9712650   -0.8595230  
H    -3.3992680    1.3434180   -2.4691500  
