58


C    -1.1847190    1.0016400   -0.1947520  
C    -0.7236890   -0.2867280   -0.1996560  
C    -1.9125650   -1.1438000   -0.1179970  
C    -3.0789000   -0.2333380   -0.0692140  
N    -2.5638630    1.0490730   -0.1268560  
C    -4.3850320   -0.6155900    0.0447810  
C    -4.6453920   -2.0701260    0.1024380  
O    -5.7699800   -2.5374130    0.0981690  
C    -3.4184410   -3.0478930    0.1179810  
O    -3.6229530   -4.2433620    0.2464640  
C    -2.0709920   -2.4884390   -0.0278350  
H    -1.2414920   -3.1847180   -0.0610310  
H    -0.6152540    1.9190300   -0.2643160  
H    -3.1257500    1.8862080   -0.1410890  
C     2.8590090    1.1248750    1.9961800  
C     1.5930170    0.8973420    1.5673970  
C     1.6589400   -0.0887720    0.5102230  
C     3.0904210   -0.4362460    0.3682090  
N     3.7881540    0.3619680    1.2774120  
C     3.5790140   -1.3937630   -0.4624200  
C     2.6358630   -2.1111680   -1.3069990  
O     2.9633320   -3.0075650   -2.0686280  
C     1.1168850   -1.7132690   -1.2334120  
O     0.3400820   -2.2594840   -1.9972510  
C     0.6845130   -0.6802180   -0.2565490  
H     0.6986540    1.3560760    1.9606270  
H     4.6269640   -1.6661200   -0.5128540  
H     3.2206350    1.7912220    2.7675120  
C    -5.9123560    2.5374070   -2.7156960  
C    -5.1915830    1.5388570   -2.1405850  
C    -5.8088120    1.2413970   -0.8622590  
C    -6.9665710    2.1609920   -0.7439530  
N    -6.9553150    2.9366570   -1.8897400  
C    -7.8454870    2.1787210    0.2905620  
C    -7.6411130    1.2344800    1.3811390  
O    -8.3904750    1.1470600    2.3410800  
C    -6.3786820    0.3008640    1.3243880  
O    -6.1060530   -0.3703910    2.3020000  
C    -5.5172080    0.3219500    0.1106190  
H    -4.3403830    1.0352360   -2.5737520  
H    -8.7010650    2.8453210    0.3377830  
H    -5.7730670    3.0167020   -3.6758310  
H    -7.6759860    3.5952390   -2.1411800  
C     5.7877930    0.2296060    2.7390560  
C     5.1671490    0.3368450    1.5341630  
C     6.2468760    0.5835010    0.5617600  
C     7.4792780    0.5610040    1.4048940  
N     7.1994580    0.3605770    2.6642280  
C     8.7839330    0.7492880    0.8299500  
C     8.8624680    0.9965320   -0.5004200  
O    10.0115000    1.2040610   -1.1598410  
C     7.6337060    1.0666480   -1.3655330  
O     7.7820830    1.3043570   -2.5610730  
C     6.3021260    0.8389760   -0.7578420  
H     9.6640550    0.7080030    1.4618910  
H     9.7595220    1.3539310   -2.0971130  
H     5.4427130    0.8724830   -1.4198670  
H     5.3244060    0.0659140    3.7048480  
