60


C    -3.0327010   -1.1099220   -1.3904070  
C    -2.1558360   -1.8714780   -0.6675800  
C    -2.9284620   -2.9988850   -0.1427970  
C    -4.3131660   -2.8268800   -0.6524770  
N    -4.3054570   -1.6568680   -1.3882830  
C    -5.3462670   -3.6701760   -0.4025690  
C    -5.1051430   -4.8269370    0.4530530  
O    -5.9709440   -5.6406130    0.7374020  
C    -3.6603420   -5.0100490    1.0422070  
O    -3.4396480   -5.9572320    1.7804590  
C    -2.6250290   -4.0344150    0.6825190  
H    -6.3475270   -3.5187660   -0.7947010  
H    -1.6315670   -4.1954220    1.0815280  
H    -2.8377930   -0.1829230   -1.9089630  
H    -5.0797080   -1.3206340   -1.9395960  
C    -0.2210280    1.9945980   -0.1331710  
C     1.1138510    1.6211650   -0.0462570  
C     1.1410680    0.2086770   -0.1260700  
C    -0.3046250   -0.1781390   -0.2921060  
N    -1.0850240    0.8674080   -0.2800460  
C    -0.7388120   -1.5509080   -0.4669630  
C     0.2708910   -2.4718010   -0.4755780  
O     0.0745340   -3.7788520   -0.6643690  
C     1.7354080   -2.1360160   -0.2568450  
O     2.4829790   -3.1117060   -0.1974400  
C     2.1573970   -0.7335410   -0.1075320  
H     1.9639780    2.2760150    0.0675690  
H     0.9766610   -4.1770610   -0.5753690  
C     3.5557650   -0.4052960    0.0580510  
C     4.0998970    0.6430770    0.7633160  
C     5.5259680    0.5343800    0.5960090  
C     5.6993110   -0.6643290   -0.2877990  
N     4.5612110   -1.2125590   -0.5909490  
C     7.0053050   -1.0994310   -0.7155520  
C     8.0763890   -0.4014280   -0.2713760  
O     9.3491660   -0.6922730   -0.5780230  
C     7.9330830    0.8008930    0.6345220  
O     8.9717530    1.3685990    0.9796730  
C     6.5967610    1.2345550    1.0461310  
H     3.5797060    1.3575960    1.3844080  
H     7.1051640   -1.9649230   -1.3609380  
H     9.8851740   -0.0135640   -0.1083160  
H     6.5322330    2.1062830    1.6901850  
C    -0.0881840    4.5005420   -0.1849840  
C    -0.7972560    3.2994140   -0.1048630  
C    -2.1992200    3.6671230    0.0064010  
C    -2.2608010    5.0786040   -0.0154440  
N    -0.9552080    5.5458060   -0.1372510  
C    -3.4546020    5.7969680    0.0912840  
C    -4.6233510    5.0617920    0.2338740  
O    -5.8172180    5.7034060    0.3500620  
C    -4.5810160    3.6427590    0.2688590  
O    -5.8196530    3.0530360    0.4184190  
C    -3.3938320    2.9409460    0.1553780  
H    -0.6909350    6.5185710   -0.1941540  
H    -3.4981390    6.8809820    0.0801450  
H    -6.5008700    5.0230300    0.4809080  
H    -5.7069880    2.1143070    0.6307920  
H    -3.3685120    1.8562030    0.1818560  
H     0.9741760    4.6636980   -0.2965190  
