62


C     0.6338680    1.5547630   -0.2517200  
C    -0.7343200    1.6307100   -0.4146860  
C    -1.2481360    0.2947590   -0.3979080  
C    -0.1477640   -0.5719200   -0.1974440  
N     0.9802440    0.2149670   -0.0867360  
C    -0.2500620   -1.9844470   -0.1630150  
C    -1.5539160   -2.4972150   -0.3114910  
O    -1.7822750   -3.8264320   -0.2372350  
C    -2.6684860   -1.6365730   -0.4930180  
O    -3.8522130   -2.3292720   -0.6430130  
C    -2.5544320   -0.2483810   -0.5375630  
H    -1.3022810    2.5476790   -0.4777380  
H     1.9153780   -0.1492250   -0.2110710  
H    -2.7389660   -3.9612040   -0.3654150  
H    -4.6006830   -1.7159910   -0.7075390  
C     1.6351530    2.5958120   -0.2030880  
C     1.6563620    3.8431070   -0.7911700  
C     2.8862960    4.4768550   -0.4233780  
C     3.5947840    3.5621540    0.3995300  
N     2.8351690    2.4073230    0.4875590  
C     4.8403280    3.8593400    0.9621450  
C     5.3894600    5.1016490    0.6807070  
O     6.6006750    5.4437040    1.2063840  
C     4.7043030    6.0234010   -0.1558790  
O     5.3848000    7.2106840   -0.3482420  
C     3.4725740    5.7270870   -0.7087030  
H     0.8963280    4.2336320   -1.4539810  
H     2.9405430    1.7275890    1.2269080  
H     5.3832240    3.1652710    1.5955720  
H     6.8089630    6.3403350    0.8917820  
H     4.8628470    7.7945460   -0.9180420  
H     2.9660590    6.4506970   -1.3444130  
C    -3.8162140    1.6182720   -1.6925220  
C    -3.7240330    0.6169770   -0.7654070  
C    -5.0033790    0.6053080   -0.0564430  
C    -5.8353530    1.6723460   -0.6691020  
N    -5.0487690    2.2494890   -1.6478950  
C    -7.1015290    1.9753990   -0.2901160  
C    -7.7031950    1.2117110    0.8015210  
O    -8.8398510    1.4061590    1.2012900  
C    -6.8334820    0.0970390    1.4877270  
O    -7.3068290   -0.5358110    2.4169340  
C    -5.4760280   -0.1408690    0.9805760  
H    -7.6909250    2.7619830   -0.7513530  
H    -4.8821520   -0.9003460    1.4797210  
H    -3.0721960    1.9314330   -2.4127880  
H    -5.3414950    2.9978480   -2.2566720  
C     0.9202190   -2.8278130    0.0053910  
C     2.0678140   -2.5495000    0.7112940  
C     2.9338960   -3.6863660    0.5258680  
C     2.1499590   -4.5952060   -0.3744890  
N     0.9843160   -4.1013670   -0.6679300  
C     2.6873190   -5.8540890   -0.8253150  
C     3.9186430   -6.2032150   -0.3857850  
O     4.5439480   -7.3433670   -0.7112420  
C     4.7245620   -5.3155780    0.5386870  
O     5.8354560   -5.7284650    0.8779950  
C     4.1664290   -4.0341800    0.9707330  
H     2.2499150   -1.7101130    1.3678660  
H     2.1050160   -6.4889690   -1.4836370  
H     5.4067460   -7.3028180   -0.2387430  
H     4.7774450   -3.4208590    1.6259830  
