62


C    -0.3778240   -1.5912600   -0.2718830  
C     0.9977690   -1.5452910   -0.1384840  
C     1.3911130   -0.1726260   -0.0605360  
C     0.1937660    0.5963790   -0.1254970  
N    -0.8535440   -0.2862490   -0.2540490  
C     0.1652050    1.9998840   -0.0686810  
C     1.4056910    2.6292640    0.1089400  
O     1.4607010    3.9776270    0.2402180  
C     2.6058360    1.8920240    0.2173170  
O     3.7234970    2.6835450    0.3824760  
C     2.6422090    0.4953810    0.1005220  
H     1.6434970   -2.4087070   -0.0801990  
H    -1.8052290   -0.0250710   -0.4596720  
H     2.4058940    4.1894850    0.3717190  
H     4.2387750    2.2979340    1.1228940  
C    -0.9573800   -3.9499220   -0.9382800  
C    -1.2846390   -2.7119770   -0.4200040  
C    -2.6935120   -2.7694630   -0.0833260  
C    -3.1503420   -4.0656260   -0.4303140  
N    -2.0679620   -4.7601480   -0.9386660  
C    -4.4745500   -4.4804730   -0.2443910  
C    -5.3611910   -3.5671950    0.3047480  
O    -6.6649750   -3.9147860    0.4976760  
C    -4.9198810   -2.2696180    0.6771360  
O    -5.9066000   -1.4802180    1.2317230  
C    -3.6086460   -1.8681010    0.4996270  
H    -2.0959730   -5.7038990   -1.2919870  
H    -4.8237770   -5.4722110   -0.5130090  
H    -7.1163040   -3.1407060    0.8771170  
H    -5.5744550   -0.5773380    1.3521280  
H    -3.3039250   -0.8832120    0.8443780  
H    -0.0134130   -4.3008210   -1.3299100  
C    -3.7198890    2.0612900    2.1620630  
C    -2.4563160    1.7386690    1.7859550  
C    -2.1743060    2.5943720    0.6353570  
C    -3.4259730    3.3897660    0.4652000  
N    -4.3273230    3.0679510    1.3536360  
C    -3.5554290    4.3931890   -0.5588240  
C    -2.4932870    4.6009270   -1.3701570  
O    -2.4709440    5.5016960   -2.3646990  
C    -1.2252860    3.7932240   -1.2515010  
O    -0.3642290    3.9795950   -2.1025230  
C    -1.0860790    2.7714400   -0.1602340  
H    -1.7771530    1.0373730    2.2491770  
H    -4.4764590    4.9571620   -0.6552700  
H    -1.5954070    5.3931540   -2.7972120  
H    -4.2820210    1.6662640    3.0014770  
C     4.4455630   -2.7260040   -2.4296290  
C     3.6303210   -1.7350170   -1.9994100  
C     4.2290380   -1.2561170   -0.7549760  
C     5.4393760   -2.1081780   -0.5941820  
N     5.5603070   -2.9710030   -1.5634370  
C     6.3376240   -1.9533300    0.5218350  
C     6.0703980   -0.9665170    1.4056390  
O     6.8412090   -0.6866470    2.4737280  
C     4.8940050   -0.0547240    1.2331600  
O     4.8031540    0.8742970    2.0490830  
C     3.9000470   -0.2775940    0.1386760  
H     2.7357270   -1.3528170   -2.4675160  
H     7.2027230   -2.5994040    0.6202880  
H     6.4285290    0.0906200    2.9054620  
H     4.3535140   -3.3231720   -3.3289060  
