62


C     0.7054290    1.0779180   -0.5864180  
C     1.8006720    0.2774000   -0.2483020  
C     2.9759710    1.0556810   -0.3924400  
C     2.5522150    2.3569770   -0.8072560  
N     1.1888900    2.3320650   -0.9274030  
C     3.4392750    3.4147460   -1.0042510  
C     4.7804560    3.1674140   -0.7428720  
O     5.6936360    4.1562520   -0.8994550  
C     5.2355130    1.8922310   -0.3044800  
O     6.5981450    1.8353470   -0.1207790  
C     4.3686670    0.8048160   -0.1577320  
H     1.7466270   -0.7376480    0.1085250  
H     0.5626910    3.1031840   -1.1251940  
H     3.1202270    4.4023860   -1.3194990  
H     6.5509830    3.7715470   -0.6314220  
H     6.7549000    1.3647250    0.7263810  
C    -1.6491100   -2.7082070   -0.6405080  
C    -0.6498600   -1.7884440   -0.7056600  
C    -1.2558680   -0.4869930   -0.5688780  
C    -2.7079900   -0.7270380   -0.4181670  
N    -2.8728120   -2.0955750   -0.4115720  
C    -3.6957300    0.2316380   -0.2571160  
C    -3.2067690    1.6026770   -0.2997420  
O    -3.8916020    2.6014200   -0.0928690  
C    -1.6902470    1.8872800   -0.6153110  
O    -1.3989880    3.0496340   -0.8695160  
C    -0.7089010    0.7855710   -0.5766840  
H     0.3933500   -2.0022980   -0.8747750  
H    -1.5958830   -3.7850570   -0.7315040  
H    -3.7596770   -2.4984760   -0.6972570  
C    -6.5997550    1.8840330    2.7018280  
C    -7.6484070    1.0515870    2.4198610  
C    -7.2269770    0.2065610    1.3393590  
C    -5.8901630    0.5735040    1.0147530  
N    -5.5250350    1.5770390    1.8892450  
C    -5.1245910   -0.0755860    0.0076640  
C    -5.8206380   -1.0698260   -0.6958620  
O    -5.2113690   -1.7568980   -1.7285500  
C    -7.1498590   -1.4380200   -0.3854920  
O    -7.6438700   -2.4615790   -1.1827690  
C    -7.8585050   -0.8277030    0.6284210  
H    -8.6064270    1.0315350    2.9208700  
H    -4.7879750    2.2301200    1.6561660  
H    -5.9107890   -2.2981090   -2.1404490  
H    -8.6103050   -2.4772630   -1.1215370  
H    -8.8736900   -1.1389680    0.8646630  
H    -6.5195150    2.6812260    3.4277770  
C     3.5759280   -3.3190500   -1.7085430  
C     3.6271000   -1.9686970   -1.6142670  
C     4.4124590   -1.6951670   -0.4116960  
C     4.7590800   -3.0481810    0.0976880  
N     4.2615930   -3.9945810   -0.6495400  
C     5.5542930   -3.2357260    1.2847550  
C     6.0234130   -2.1292250    1.9026420  
O     6.8095960   -2.1568010    2.9957960  
C     5.7412890   -0.7562710    1.3744390  
O     6.3089620    0.1766920    1.9616190  
C     4.8211850   -0.5498270    0.2126030  
H     3.2094120   -1.2351720   -2.2873530  
H     5.7781600   -4.2353100    1.6400210  
H     7.0230450   -1.2214770    3.1963710  
H     3.1028780   -3.9165490   -2.4787320  
