60


C     2.9273580   -1.7524590   -1.4306020  
C     1.7068630   -1.3630460   -0.9530290  
C     1.9151080   -0.1476330   -0.2187280  
C     3.2972210    0.1592300   -0.2894880  
N     3.9095490   -0.8490000   -1.0324360  
C     3.8447550    1.3224750    0.2640820  
C     2.9902460    2.1786160    0.9427420  
O     3.4821170    3.3142970    1.5082880  
C     1.6081020    1.8807570    1.0639280  
O     0.8866930    2.8055430    1.7760370  
C     1.0684510    0.7364960    0.4833670  
H     0.7717870   -1.8829330   -1.1059900  
H     4.8934090    1.5803630    0.1735710  
H     2.7407040    3.7877930    1.9235960  
H    -0.0445920    2.5373920    1.8210930  
H     3.2094950   -2.6190380   -2.0107240  
C    -0.8678990   -0.6398160    1.2663180  
C    -2.2206850   -0.7014470    1.1098630  
C    -2.6183460    0.4195280    0.3012320  
C    -1.3714000    1.1563580   -0.0020500  
N    -0.3277200    0.4641320    0.6167320  
C    -1.2885140    2.2903750   -0.7456440  
C    -2.5286140    2.8591730   -1.2507260  
O    -2.5772560    3.8542250   -1.9543020  
C    -3.8795130    2.1663070   -0.8508560  
O    -4.9117290    2.7649520   -1.1251510  
C    -3.8509980    0.8532520   -0.1624950  
H    -2.8692800   -1.4306320    1.5673760  
H    -0.3505370    2.7761830   -0.9912360  
H    -0.2089870   -1.2966200    1.8184080  
C    -5.0810930    0.0989460    0.0033330  
C    -5.2637230   -1.2498040    0.2444780  
C    -6.6743810   -1.5108610    0.2706030  
C    -7.3382920   -0.2073270    0.0195260  
N    -6.3276230    0.7171280   -0.1163170  
C    -8.6835230   -0.0364270   -0.0480340  
C    -9.5429810   -1.2009920    0.1417380  
O   -10.7628940   -1.1440900    0.0999300  
C    -8.8601650   -2.5922260    0.4141170  
O    -9.5654450   -3.5772400    0.5777200  
C    -7.3994570   -2.6504340    0.4603090  
H    -4.4903860   -1.9971700    0.3223820  
H    -9.1530580    0.9241380   -0.2353200  
H    -6.9385020   -3.6161530    0.6453740  
H    -6.4110330    1.6738430   -0.4364630  
C     5.7961470   -1.1534000   -2.6151860  
C     5.2649010   -0.9336360   -1.3846650  
C     6.4118140   -0.9415950   -0.4597690  
C     7.5811090   -1.1629960   -1.3616960  
N     7.2122340   -1.2905610   -2.6064430  
C     8.9233010   -1.2231860   -0.8464300  
C     9.0949010   -1.1153030    0.4934690  
O    10.2877330   -1.1648740    1.1055020  
C     7.9302250   -0.9302850    1.4277730  
O     8.1630580   -0.8457830    2.6306070  
C     6.5589610   -0.8463330    0.8737020  
H     9.7568650   -1.3670040   -1.5248200  
H    10.1010660   -1.0617950    2.0640450  
H     5.7461180   -0.6969320    1.5774060  
H     5.2643590   -1.2334000   -3.5556010  
