58


C    -1.1982700   -0.2034710    1.5772280  
C    -2.5454000   -0.1833500    1.4448470  
C    -2.8447680   -0.0785040    0.0347770  
C    -1.5356880   -0.0374640   -0.6598240  
N    -0.5532390   -0.1107470    0.3351650  
C    -1.3806020   -0.0155790   -2.0053490  
C    -2.5795600    0.0064650   -2.8347750  
O    -2.5445230   -0.0103040   -4.0551330  
C    -3.9786540    0.0464330   -2.1260140  
O    -4.9738560    0.1827000   -2.8147580  
C    -4.0316920   -0.0621240   -0.6456480  
H    -3.2651700   -0.1966230    2.2477450  
H    -0.4173860   -0.0107060   -2.5005770  
H    -0.5949910   -0.2498930    2.4733760  
C     2.5284210   -2.7906410    1.8861680  
C     1.3403200   -2.2350160    1.5193110  
C     1.6484660   -1.0457400    0.7639560  
C     3.1269980   -0.9393280    0.7489830  
N     3.5974890   -2.0100180    1.4827360  
C     3.8497990    0.0526190    0.1274450  
C     3.0443380    0.9385990   -0.7461760  
O     3.5214970    1.6140750   -1.6395130  
C     1.4862920    0.9889000   -0.5713290  
O     0.8797920    1.9361240   -1.0379900  
C     0.8407910   -0.1152240    0.1573910  
H     0.3561050   -2.6280550    1.7249790  
H     2.7109870   -3.7113170    2.4250560  
H     4.5449240   -2.3546420    1.2904420  
C     7.3624520   -2.7347190    0.0981030  
C     8.3794840   -1.8660330   -0.0866620  
C     7.7656490   -0.5443840   -0.0612400  
C     6.2983540   -0.8122770    0.1191990  
N     6.0894830   -2.0965530    0.2335310  
C     5.3076150    0.2552240    0.1641850  
C     5.8343900    1.5245250    0.2082570  
O     5.0959260    2.6197110    0.3960920  
C     7.2999470    1.8188020    0.0611660  
O     7.6512220    2.9968160    0.0948100  
C     8.2541050    0.7081830   -0.0990020  
H     9.4311700   -2.0821130   -0.2111180  
H     5.7188380    3.3785800    0.3344680  
H     9.3046880    0.9593270   -0.2064420  
H     7.4030920   -3.8155720    0.1536130  
C    -5.9137580    2.5480400    2.3814100  
C    -7.1625860    2.0363230    2.4636710  
C    -7.1673580    0.8994300    1.5486140  
C    -5.7774300    0.8807930    0.9802220  
N    -5.0554110    1.8435720    1.4744540  
C    -5.3591470   -0.1076510   -0.0031350  
C    -6.2973120   -1.0343250   -0.3554470  
O    -6.0579480   -2.0423840   -1.2026390  
C    -7.6937020   -1.0385020    0.2047710  
O    -8.4573410   -1.9231560   -0.1781000  
C    -8.0909700   -0.0076410    1.1803110  
H    -7.9925200    2.3817320    3.0642480  
H    -6.9114510   -2.5218220   -1.2907850  
H    -9.1103860   -0.0398930    1.5526650  
H    -5.5074500    3.4043800    2.9064950  
