60


C     2.4177930   -1.6942950   -0.1354330  
C     3.3726430   -0.6812590   -0.0798460  
C     2.6303340    0.5682120   -0.0438630  
C     1.2576420    0.2368540   -0.0695030  
N     1.1693400   -1.1489900   -0.1220820  
C     0.2167500    1.1880360   -0.0693080  
C     0.6189310    2.5261520   -0.0457450  
O    -0.3180530    3.5068070   -0.0029200  
C     1.9945010    2.8750780   -0.0225310  
O     2.2160520    4.2359620    0.0098580  
C     2.9986440    1.9248980   -0.0180130  
H     0.3050930   -1.6647690   -0.2002030  
H     0.1477060    4.3587000   -0.0723860  
H     3.1660040    4.4094810   -0.0706250  
H     4.0487640    2.1976050    0.0027810  
H     2.5532410   -2.7654020   -0.1805180  
C    -2.1913200   -1.1833670    2.7120900  
C    -3.3828870   -1.1847490    2.0631830  
C    -3.2201420   -0.4125170    0.8499040  
C    -1.8082190    0.0360100    0.8420010  
N    -1.2244530   -0.4987940    1.9791610  
C    -1.2113020    0.8077640   -0.1134180  
C    -2.0613150    1.2029900   -1.2507550  
O    -1.6396210    1.8090300   -2.2191050  
C    -3.5792060    0.7909250   -1.2401950  
O    -4.2956060    1.2403530   -2.1167270  
C    -4.0853820   -0.0933720   -0.1627060  
H    -4.2953180   -1.6490130    2.4011900  
H    -1.9254720   -1.6361830    3.6582450  
H    -0.3372600   -0.1818700    2.3420430  
C    -7.4439230    0.4863520    2.6543680  
C    -8.4824700   -0.0476320    1.9730560  
C    -7.9049710   -0.5401380    0.7265140  
C    -6.4464970   -0.2007200    0.8392080  
N    -6.1890920    0.3957170    1.9664450  
C    -5.4981970   -0.5137420   -0.2198830  
C    -6.0102850   -1.1538880   -1.3110250  
O    -5.2650970   -1.5569080   -2.3475080  
C    -7.4666180   -1.5075380   -1.4438810  
O    -7.8187970   -2.0899920   -2.4680010  
C    -8.4029240   -1.1576300   -0.3608610  
H    -9.5217420   -0.1020550    2.2658360  
H    -5.8968030   -1.9531120   -2.9881250  
H    -9.4470660   -1.4209860   -0.4997040  
H    -7.4583820    0.9607870    3.6284400  
C     4.7921210   -0.8714430   -0.0649540  
C     5.5229650   -2.0409920   -0.1084200  
C     6.8960720   -1.6547830   -0.0641080  
C     6.8543230   -0.1496500    0.0094500  
N     5.6335550    0.2982860    0.0085820  
C     8.0580060    0.6360400    0.0715200  
C     9.2357600   -0.0309250    0.0607870  
O    10.4372140    0.5525610    0.1129590  
C     9.3121480   -1.5496700   -0.0129920  
O    10.4494020   -2.0329110   -0.0144530  
C     8.0855850   -2.3210380   -0.0747170  
H     5.1453670   -3.0524620   -0.1679470  
H     8.0051770    1.7178300    0.1237380  
H    11.0764840   -0.1994350    0.0871810  
H     8.1734710   -3.4016300   -0.1270610  
