60


C     1.0703900   -0.3680630    0.9433760  
C     0.4995470    0.7890590    0.4443240  
C     1.5967240    1.6502530    0.0494700  
C     2.7941460    0.9518300    0.3318610  
N     2.4337680   -0.2719540    0.8745010  
C     4.0863490    1.4734610    0.0929290  
C     4.1209820    2.7722400   -0.4304310  
O     5.3165820    3.3750540   -0.6720050  
C     2.9286080    3.4733670   -0.7480990  
O     3.1554310    4.7186850   -1.2945760  
C     1.6759620    2.9336420   -0.5264640  
H     3.0824760   -0.9521980    1.2404680  
H     5.1285220    4.2235360   -1.1117800  
H     2.3260680    5.0895070   -1.6314320  
H     0.7823880    3.4846040   -0.8074630  
H     0.5926950   -1.2383450    1.3696800  
C    -0.9182190    1.0519030    0.3710850  
C    -1.9751550    0.1872840    0.2275330  
C    -3.1930630    0.9501870    0.2453150  
C    -2.7835900    2.3644700    0.4145840  
N    -1.3965270    2.3706250    0.4322020  
C    -3.6341800    3.4154100    0.5089080  
C    -5.0649480    3.1546920    0.4014170  
O    -5.9077650    4.0370390    0.4495010  
C    -5.5341870    1.6681020    0.2147970  
O    -6.7307450    1.4327340    0.2268380  
C    -4.5140350    0.6011670    0.1050170  
H    -1.8953100   -0.8756460    0.0555310  
H    -3.3047870    4.4433800    0.6267530  
H    -0.8602980    3.1182990    0.8487620  
C    -4.1474090   -3.1846860    2.4406970  
C    -4.0529070   -1.9013230    2.0090630  
C    -4.7435610   -1.8195830    0.7360660  
C    -5.2605260   -3.1825410    0.4640680  
N    -4.8410960   -3.9673430    1.5221280  
C    -6.0148650   -3.5324960   -0.6102380  
C    -6.3394640   -2.5017270   -1.5841980  
O    -7.0344280   -2.7016540   -2.5690440  
C    -5.7475430   -1.0628820   -1.3619290  
O    -5.8820570   -0.2366390   -2.2453130  
C    -4.9829650   -0.7761120   -0.1160930  
H    -3.5625810   -1.0871040    2.5202450  
H    -6.4023220   -4.5343580   -0.7680040  
H    -3.7692630   -3.6331880    3.3499980  
H    -5.1230890   -4.9236660    1.6696940  
C     6.4772170    1.1631420    0.9259180  
C     5.3157640    0.7218630    0.3654830  
C     5.6039300   -0.6855120    0.0153430  
C     7.0037660   -0.9053180    0.4984740  
N     7.5000470    0.1773560    1.0251340  
C     7.6688030   -2.1721140    0.3424350  
C     7.0052380   -3.1645650   -0.2977310  
O     7.5067850   -4.3905690   -0.5157300  
C     5.6155680   -2.9626930   -0.8337920  
O     5.0747760   -3.9082870   -1.4033160  
C     4.9466160   -1.6554510   -0.6512880  
H     8.6778740   -2.3012170    0.7178720  
H     6.8088350   -4.8791860   -1.0041660  
H     3.9530820   -1.5505910   -1.0763570  
H     6.6857910    2.1624400    1.2841870  
