58


C     3.5427090    0.1070860    0.3564910  
C     2.1749340    0.2160330    0.4808010  
C     1.8021700    1.5721800    0.2127130  
C     3.0625330    2.2891730   -0.0926660  
N     4.0767120    1.3411800   -0.0416400  
C     3.1561320    3.6091750   -0.3790480  
C     1.9255050    4.3944490   -0.4288480  
O     1.9065780    5.5814530   -0.7089080  
C     0.5720800    3.6701550   -0.1106870  
O    -0.4437770    4.3403490   -0.0362460  
C     0.5855450    2.2149190    0.1586420  
H     1.5003070   -0.6008210    0.6887150  
H     4.0933100    4.1074820   -0.6075240  
H     5.0403620    1.5948190    0.1238240  
C    -1.2209250   -0.1882430    3.4831920  
C    -0.3376570    0.5261850    2.7482490  
C    -1.0358700    0.8360420    1.5066430  
C    -2.3828460    0.2114300    1.6773690  
N    -2.4739440   -0.3858940    2.8313700  
C    -3.4361200    0.2959710    0.6584960  
C    -3.0939650    1.0268240   -0.4491030  
O    -3.9284840    1.2554030   -1.4836800  
C    -1.7495250    1.6377620   -0.6587900  
O    -1.5394120    2.1707270   -1.7475430  
C    -0.7001670    1.5500700    0.4033930  
H     0.6663020    0.8249840    3.0124800  
H    -3.3955380    1.7815090   -2.1235270  
H    -1.0876800   -0.6009070    4.4760400  
C    -5.2933510   -0.6316940    2.0959590  
C    -4.7274010   -0.3416110    0.8796360  
C    -5.7090640   -0.8694380   -0.0990770  
C    -6.8095310   -1.4139690    0.7533530  
N    -6.5564420   -1.2597050    2.0249450  
C    -7.9786980   -2.0385910    0.1959590  
C    -8.0507390   -2.1604730   -1.1506170  
O    -9.0716020   -2.7300770   -1.8098830  
C    -6.9454390   -1.6606670   -2.0372020  
O    -7.0722650   -1.8189590   -3.2505980  
C    -5.7633200   -1.0062530   -1.4386200  
H    -8.7573950   -2.4059500    0.8550770  
H    -8.8300270   -2.6713290   -2.7608190  
H    -5.0074530   -0.6424630   -2.1216880  
H    -4.8623580   -0.4328960    3.0655950  
C     4.1333920   -2.1464650    1.3215500  
C     4.3853650   -1.0407020    0.5484650  
C     5.7121270   -1.3082530   -0.0391410  
C     6.0912990   -2.6399540    0.5237940  
N     5.1546450   -3.1117300    1.3094510  
C     7.3300570   -3.2795920    0.1897080  
C     8.1572750   -2.6443690   -0.6785140  
O     9.3408460   -3.1253860   -1.0744790  
C     7.7934300   -1.3152350   -1.2864940  
O     8.5884910   -0.8028070   -2.0681780  
C     6.5063030   -0.6783960   -0.9254540  
H     7.5758510   -4.2434370    0.6209380  
H     9.7075070   -2.4644480   -1.7021090  
H     6.2719430    0.2608790   -1.4164710  
H     3.2576350   -2.3213040    1.9357890  
