60


C     2.5957610   -1.4707560   -0.0961370  
C     3.4215490   -0.7683740    0.7434320  
C     4.7368340   -1.3430980    0.5698470  
C     4.5354930   -2.4123740   -0.4592810  
N     3.2959690   -2.4907230   -0.8398170  
C     5.6343330   -3.2181850   -0.9302540  
C     6.8569460   -2.9897710   -0.3962060  
O     7.9661280   -3.6653470   -0.7320440  
C     7.0865740   -1.9279330    0.6522950  
O     8.2337970   -1.7913440    1.0774600  
C     5.9545320   -1.1096390    1.1106080  
H     3.1463920    0.0144530    1.4354920  
H     5.4642620   -3.9827020   -1.6799750  
H     8.6824010   -3.2771290   -0.1815790  
H     6.1598850   -0.3503040    1.8589910  
C    -0.0725140    2.1079710   -0.1661190  
C     1.0352060    1.2934090   -0.0863690  
C     0.5560530   -0.0479030   -0.2519410  
C    -0.9195470    0.1124850   -0.4367160  
N    -1.2782680    1.3578130   -0.3824970  
C    -1.7975900   -1.0260350   -0.6539650  
C    -1.1868480   -2.2434160   -0.7646530  
O    -1.8450510   -3.3827470   -1.0261710  
C     0.2835930   -2.4432410   -0.5477460  
O     0.6804850   -3.6064410   -0.5755750  
C     1.1723420   -1.2728270   -0.2960050  
H     2.0518630    1.6151560    0.0590380  
H    -1.1536970   -4.0841820   -0.9904580  
C     3.0216760    5.0095420    0.9775480  
C     2.3531260    6.1817060    0.9105390  
C     1.0054960    5.8241040    0.4905050  
C     1.0398240    4.3291790    0.3459410  
N     2.2220700    3.8713360    0.6359250  
C    -0.1355630    3.5501180   -0.0600410  
C    -1.2687420    4.2960540   -0.3233740  
O    -2.4316350    3.8084300   -0.7446350  
C    -1.3079210    5.7998380   -0.1779400  
O    -2.3737060    6.3582900   -0.4365750  
C    -0.1109650    6.5341300    0.2484820  
H     2.7179680    7.1778440    1.1178910  
H    -3.0217870    4.5954020   -0.8279100  
H    -0.1907930    7.6129150    0.3408050  
H     4.0564680    4.8431480    1.2514710  
C    -3.7979800    0.1720430   -1.5019590  
C    -5.1524440    0.0616200   -1.4055790  
C    -5.4351590   -1.0510290   -0.5393840  
C    -4.1907290   -1.5986860   -0.1404590  
N    -3.1838100   -0.8392110   -0.7537450  
C    -4.0998920   -2.6587280    0.7673210  
C    -5.2847860   -3.1957100    1.2519140  
O    -5.2424180   -4.2384920    2.1352460  
C    -6.5364980   -2.6744920    0.8448530  
O    -7.6256940   -3.3125800    1.4102210  
C    -6.6225960   -1.6109940   -0.0373730  
H    -5.8742480    0.7055440   -1.8895810  
H    -3.1582610   -3.0801880    1.0923110  
H    -6.1625220   -4.4687180    2.3497050  
H    -8.4412480   -2.9085970    1.0792740  
H    -7.5929940   -1.2099510   -0.3242250  
H    -3.1880530    0.8906100   -2.0244430  
