60


C    -4.3512870   -0.3606080    0.0729890  
C    -3.0523170    0.1604610   -0.0285040  
C    -2.1491980   -0.9271460   -0.0349310  
C    -2.9410340   -2.1091420    0.0524230  
N    -4.2551370   -1.7355760    0.1247510  
C    -2.3999620   -3.3987410    0.0367660  
C    -1.0255900   -3.5126500   -0.0834040  
O    -0.4464290   -4.7384320   -0.1140180  
C    -0.1876810   -2.3635190   -0.1744860  
O     1.1211680   -2.6774360   -0.2813360  
C    -0.7145640   -1.0446530   -0.1292290  
H    -2.8387490    1.2097880   -0.1197400  
H    -5.0819790   -2.3257470    0.1920480  
H    -3.0117670   -4.2921210    0.1051460  
H     0.5150650   -4.5930330   -0.1913380  
H     1.6356040   -1.8197900   -0.3677680  
C     0.1586150    0.0938660   -0.1522930  
C    -0.0773490    1.4418400    0.0396680  
C     1.1763930    2.1062200   -0.0868590  
C     2.1562330    1.0105280   -0.3758330  
N     1.5651110   -0.1459620   -0.4043560  
C     3.5629860    1.2716620   -0.5858430  
C     3.9566560    2.5751220   -0.5050730  
O     5.2082450    2.9864350   -0.6849050  
C     2.9891720    3.7015850   -0.1803600  
O     3.4936500    4.8289760   -0.1307150  
C     1.5879620    3.4042170    0.0178900  
H    -1.0097580    1.9189540    0.2908840  
H     5.1668670    3.9659250   -0.5458770  
H     0.9211310    4.2305500    0.2394560  
C     4.2840060   -0.7355370   -1.8727850  
C     5.2792650   -1.6544770   -1.8722400  
C     6.1708030   -1.3279850   -0.7803580  
C     5.6045330   -0.1196430   -0.1310720  
N     4.4522300    0.2077040   -0.8481230  
C     6.1408810    0.4793480    0.9603840  
C     7.3642770   -0.0823500    1.5310320  
O     7.9133910    0.3903400    2.5144060  
C     7.9926730   -1.3490910    0.8450890  
O     9.0196740   -1.8242220    1.3044510  
C     7.3080200   -1.9124290   -0.3202240  
H     5.3888000   -2.4791060   -2.5616540  
H     5.7184730    1.3592170    1.4301890  
H     7.7371760   -2.7984630   -0.7782620  
H     3.4325790   -0.6422900   -2.5320920  
C    -8.3979390   -2.0293670    0.3667240  
C    -9.1592300   -0.9133450    0.3692020  
C    -8.2171980    0.1975050    0.2739850  
C    -6.8773730   -0.4565290    0.2211060  
N    -6.9955580   -1.7537060    0.2758450  
C    -5.6310580    0.3075460    0.1219410  
C    -5.7841980    1.6735120    0.0796050  
O    -4.7466390    2.5301630   -0.0107480  
C    -7.1020590    2.3456120    0.1308190  
O    -7.1276030    3.5807470    0.0876980  
C    -8.3361550    1.5366950    0.2312950  
H   -10.2359620   -0.8385920    0.4284260  
H    -5.1622960    3.4228340   -0.0186850  
H    -9.2792330    2.0738380    0.2658830  
H    -8.7158170   -3.0628040    0.4233910  
