62


C    -0.8022000    1.6866050    0.1144090  
C     0.4922550    1.1629100    0.0694280  
C     0.3891020   -0.2506940    0.0254570  
C    -1.0016010   -0.5640130    0.0308700  
N    -1.6885480    0.6169100    0.0956190  
C    -1.4950860   -1.8860660   -0.0049370  
C    -0.5292730   -2.8930850   -0.0807070  
O    -0.9196780   -4.1894890   -0.1676480  
C     0.8592640   -2.6011890   -0.1043810  
O     1.6495500   -3.7307280   -0.1747390  
C     1.3532930   -1.2984260   -0.0442540  
H     1.4043510    1.7324270   -0.0040470  
H    -2.6895650    0.7602720    0.0283390  
H    -0.1136670   -4.7353480   -0.1274080  
H     2.5713850   -3.4862480    0.0289780  
C     1.1708780    5.5771580    1.0822190  
C     0.8823840    4.2538610    0.9542120  
C    -0.4666530    4.1451060    0.4463150  
C    -0.9536250    5.5298640    0.2990870  
N     0.0931130    6.3492480    0.6712160  
C    -2.1943340    5.9001050   -0.1303320  
C    -3.1375920    4.8527600   -0.4390660  
O    -4.2742060    5.0418410   -0.8501300  
C    -2.6805770    3.3612480   -0.2186490  
O    -3.5411040    2.4981070   -0.3319740  
C    -1.2630860    3.0572770    0.1259060  
H     1.5332780    3.4412720    1.2321270  
H    -2.4998210    6.9340530   -0.2539140  
H     2.0718340    6.0533620    1.4448180  
H     0.0393340    7.3542170    0.7243870  
C    -5.1301730   -0.8213280   -2.4080130  
C    -3.8459670   -0.8859590   -1.9822800  
C    -3.8794150   -1.7407140   -0.7989470  
C    -5.3208960   -2.1149580   -0.6692650  
N    -6.0441680   -1.5807650   -1.6121070  
C    -5.7890540   -2.9876960    0.3768030  
C    -4.8759500   -3.4585250    1.2550480  
O    -5.1670170   -4.2715520    2.2854950  
C    -3.4205540   -3.0781150    1.1749080  
O    -2.6914860   -3.4758650    2.0778910  
C    -2.9323360   -2.2111160    0.0538930  
H    -2.9754480   -0.4141140   -2.4143010  
H    -6.8410030   -3.2426560    0.4412060  
H    -4.3156270   -4.4008660    2.7585390  
H    -5.5206090   -0.2776160   -3.2599470  
C     2.7891500   -1.0313770   -0.0226630  
C     3.5209620   -0.1049660    0.6843370  
C     4.9084640   -0.2994610    0.3738880  
C     4.9801670   -1.3731360   -0.5461640  
N     3.6868190   -1.8583540   -0.7339540  
C     6.1843490   -1.8194910   -1.0958500  
C     7.3472740   -1.1748730   -0.6965690  
O     8.5490640   -1.5690690   -1.2040170  
C     7.2980030   -0.1115760    0.2436150  
O     8.5361630    0.4177580    0.5486120  
C     6.1020240    0.3282690    0.7816130  
H     3.1112910    0.5932840    1.4009630  
H     3.4076150   -2.2841810   -1.6100230  
H     6.2430480   -2.6391840   -1.8045540  
H     9.2332760   -1.0089740   -0.7983280  
H     8.4357600    1.1250700    1.2026220  
H     6.0885720    1.1475270    1.4976450  
