62


C     1.9996910   -1.0933260   -0.9857420  
C     3.0803360   -0.4095970   -0.4285960  
C     2.5361160    0.8294870    0.1009550  
C     1.1465900    0.8185040   -0.1596450  
N     0.8647660   -0.3646110   -0.8294440  
C     0.2643240    1.8682480    0.1788750  
C     0.8795730    2.9632650    0.7850010  
O     0.1256040    4.0692080    1.1255390  
C     2.2667820    2.9965230    1.0597300  
O     2.6795840    4.1632350    1.6728800  
C     3.1045750    1.9464630    0.7361700  
H    -0.0637340   -0.6460610   -1.1132680  
H     0.7330250    4.7115980    1.5366960  
H     3.6366340    4.1291530    1.8205010  
H     4.1696430    1.9691890    0.9417390  
H     1.9765920   -2.0531240   -1.4818350  
C    -2.8300420   -1.2676330    1.0112960  
C    -1.6873340   -0.5214790    0.9847970  
C    -1.9576470    0.6550340    0.1957630  
C    -3.3046080    0.5613970   -0.2335600  
N    -3.8284490   -0.6339210    0.2680560  
C    -3.9453440    1.5812630   -0.9432080  
C    -3.2004170    2.7159380   -1.2196060  
O    -3.7644850    3.7560740   -1.8895310  
C    -1.8412140    2.8284390   -0.8193660  
O    -1.2408770    4.0064240   -1.2047160  
C    -1.1842150    1.8017140   -0.1387420  
H    -0.7615530   -0.7706770    1.4836830  
H    -4.9754560    1.5195690   -1.2711460  
H    -3.0681730    4.4371340   -1.9536960  
H    -0.7106080    4.3361060   -0.4477240  
H    -3.0318000   -2.2257910    1.4672820  
C    -6.7879200   -2.0770760    3.1551250  
C    -5.6881830   -1.5245990    2.5796540  
C    -5.8945840   -1.5547570    1.1474120  
C    -7.2204020   -2.1777110    0.9303020  
N    -7.7013040   -2.4833460    2.1883260  
C    -7.8120730   -2.3648720   -0.2795690  
C    -7.0929470   -1.9342690   -1.4657240  
O    -7.5443010   -2.0067840   -2.5984850  
C    -5.6458430   -1.3375670   -1.2853730  
O    -4.9854200   -1.0906980   -2.2772800  
C    -5.1301240   -1.1325890    0.0922940  
H    -4.8283920   -1.1222030    3.0929590  
H    -8.7954070   -2.8074600   -0.4019110  
H    -7.0145010   -2.2200500    4.2032890  
H    -8.6082300   -2.8821660    2.3732820  
C     4.4368090   -0.8638130   -0.4071340  
C     4.9830960   -2.0272380   -0.9114170  
C     6.3764660   -1.9754070   -0.6133800  
C     6.5515390   -0.6635270    0.1090130  
N     5.4253210   -0.0239330    0.2253960  
C     7.8381640   -0.2314860    0.5863040  
C     8.8907860   -1.0519160    0.3607440  
O    10.1464580   -0.7954300    0.7401790  
C     8.7476510   -2.3829240   -0.3654590  
O     9.7891320   -3.0344140   -0.5037310  
C     7.4420470   -2.7973890   -0.8374740  
H     4.4698010   -2.8239690   -1.4318680  
H     7.9421330    0.7158540    1.1035870  
H    10.6600920   -1.5793360    0.4284180  
H     7.3721230   -3.7506080   -1.3518270  
