58


C    -0.9099100   -0.4408160    2.6694230  
C    -0.3085030    0.6403710    2.1074690  
C    -1.0335690    0.9564640    0.8928140  
C    -2.1283550   -0.0355930    0.8009570  
N    -1.9915250   -0.8557190    1.9054600  
C    -3.0651590   -0.1018840   -0.1926480  
C    -2.9841220    0.9363400   -1.2380450  
O    -3.8332250    1.0708970   -2.1005970  
C    -1.7780150    1.9383740   -1.2154950  
O    -1.6100350    2.6604210   -2.1802460  
C    -0.8545760    1.9329000   -0.0526940  
H     0.5436900    1.1738060    2.5000650  
H    -0.6595000   -0.9692700    3.5797950  
H    -2.5996090   -1.6319990    2.1141210  
C    -6.3960170   -1.2329450    2.5558440  
C    -5.3081430   -0.6456200    1.9912000  
C    -5.0696760   -1.3066580    0.7226320  
C    -6.1278800   -2.3378720    0.5943550  
N    -6.8807450   -2.2571290    1.7522570  
C    -6.2964580   -3.1536370   -0.4778950  
C    -5.3670890   -3.0238850   -1.5919690  
O    -5.4497030   -3.6859770   -2.6145860  
C    -4.1881990   -1.9942520   -1.4552900  
O    -3.3153210   -1.9925150   -2.3031100  
C    -4.1355760   -1.1079440   -0.2600390  
H    -4.7486950    0.1842590    2.3960310  
H    -7.0981210   -3.8815600   -0.5558420  
H    -6.8890880   -1.0044500    3.4915950  
H    -7.7318030   -2.7716450    1.9173460  
C     3.5540740    1.5482740    0.0127640  
C     3.8799410    2.8850530    0.0027910  
C     2.6522300    3.6317160    0.0005990  
C     1.5557310    2.6303790    0.0151210  
N     2.1692600    1.3988610    0.0340040  
C     0.2227600    2.9329940   -0.0180820  
C    -0.1344110    4.3688080   -0.0130820  
O    -1.2852230    4.7572030    0.0817090  
C     1.0154810    5.4381930   -0.0635910  
O     0.7163850    6.6215020   -0.1142740  
C     2.3990530    4.9717740   -0.0360210  
H     4.8777340    3.2993420   -0.0086300  
H     3.1876270    5.7174400   -0.0642470  
H     1.7221550    0.4935330   -0.0019020  
C     4.3838450    0.3722840    0.0018270  
C     5.7471110    0.2602810   -0.0328420  
C     6.0145260   -1.1586130   -0.0358600  
C     4.6546040   -1.7955180    0.0013150  
N     3.7115020   -0.8994800    0.0247560  
C     4.4895680   -3.2247800    0.0087590  
C     5.6101960   -3.9847260   -0.0181250  
O     5.6124090   -5.3216060   -0.0138780  
C     6.9958220   -3.3728230   -0.0550400  
O     7.9497460   -4.1482070   -0.0760760  
C     7.1393320   -1.9115870   -0.0635160  
H     6.4797420    1.0545590   -0.0591210  
H     3.4969960   -3.6602930    0.0309760  
H     6.5603080   -5.5841630   -0.0410730  
H     8.1471530   -1.5093630   -0.0918300  
