62


C     0.0845280    1.9886800   -0.0531060  
C    -1.1276580    1.2954020   -0.0389350  
C    -0.8384430   -0.0896580   -0.0306900  
C     0.5779450   -0.2107460   -0.0347460  
N     1.1050890    1.0514210   -0.0376200  
C     1.2757130   -1.4487600   -0.0683260  
C     0.4479190   -2.5733120   -0.1987970  
O     0.9919870   -3.8240970   -0.2994580  
C    -0.9674210   -2.4997810   -0.1963100  
O    -1.5561240   -3.7112010   -0.2907890  
C    -1.6629480   -1.2689760   -0.0692470  
H    -2.0838960    1.7855690   -0.0673680  
H     2.0777160    1.2872800   -0.1714500  
H     0.2352890   -4.4415860   -0.3481020  
H    -2.5612530   -3.5540410   -0.2826990  
C    -2.6745250    5.4230760   -0.0884950  
C    -1.8146760    6.4640040   -0.1257740  
C    -0.4852900    5.8614130   -0.1293450  
C    -0.7467650    4.3890210   -0.0911190  
N    -2.0230220    4.1463040   -0.0661390  
C     0.3484340    3.4079960   -0.0826430  
C     1.6117430    3.9480910   -0.1068900  
O     2.7426680    3.1924340   -0.1011300  
C     1.8903640    5.3966950   -0.1454050  
O     3.0728960    5.7614380   -0.1694120  
C     0.7660270    6.3535820   -0.1550910  
H    -2.0400210    7.5211210   -0.1479560  
H     3.4758280    3.8495100   -0.1364920  
H     1.0126660    7.4107670   -0.1824530  
H    -3.7572030    5.4449150   -0.0742100  
C    -3.0921850   -1.2447440    0.0138270  
C    -3.9896150   -0.2162610    0.2524540  
C    -5.2887130   -0.7933830    0.2309860  
C    -5.0588840   -2.2515040   -0.0408130  
N    -3.7839500   -2.4994090   -0.1592630  
C    -6.1363890   -3.1891480   -0.1407170  
C    -7.3899020   -2.6978840    0.0277140  
O    -8.4996750   -3.4314350   -0.0324020  
C    -7.6666420   -1.2246560    0.3095470  
O    -8.8616200   -0.9253160    0.4402960  
C    -6.5580320   -0.3074930    0.4017590  
H    -3.7691230    0.8188450    0.4546580  
H    -5.9466990   -4.2378720   -0.3404010  
H    -9.2276100   -2.7808240    0.1314320  
H    -6.7769280    0.7359760    0.6032320  
C     2.7217870   -1.5320410    0.0173030  
C     3.6497030   -0.6108050    0.5031670  
C     4.9423510   -1.1907400    0.3817470  
C     4.7647050   -2.4828650   -0.1902340  
N     3.4211900   -2.6573220   -0.4022010  
C     5.8368880   -3.3464260   -0.4497330  
C     7.1073550   -2.9005550   -0.1245800  
O     8.1872240   -3.6981670   -0.3532220  
C     7.3043700   -1.6105630    0.4502560  
O     8.6291370   -1.3216040    0.7128570  
C     6.2490130   -0.7603080    0.7042240  
H     3.4264430    0.3402450    0.9642820  
H     2.9604220   -3.5033730   -0.7046060  
H     5.7078590   -4.3316230   -0.8852500  
H     8.9756130   -3.2108750   -0.0570210  
H     8.6967300   -0.4414460    1.1115580  
H     6.4225340    0.2199470    1.1435570  
