60


C     0.9434550   -2.6425770    1.1345160  
C     2.2330400   -2.2411580    0.8888620  
C     2.1867860   -0.8578300    0.5207910  
C     0.8237130   -0.4752140    0.5568060  
N     0.0915490   -1.5852310    0.9191370  
C     0.3710840    0.8503530    0.3087130  
C     1.3817900    1.7988070    0.1040840  
O     1.0723070    3.1133130   -0.0969030  
C     2.7542550    1.4517060    0.0519250  
O     3.5538390    2.5137330   -0.1958680  
C     3.1946220    0.1144360    0.2109400  
H     3.1043250   -2.8641020    1.0089880  
H    -0.8923400   -1.5847140    1.1463160  
H     1.9232270    3.5734470   -0.2413130  
H     4.5084360    2.1819280   -0.1814640  
H     0.5593770   -3.6027900    1.4474050  
C    -1.0395570    1.1932270    0.2787880  
C    -2.1262970    0.3657160    0.0708920  
C    -3.3156020    1.1543810    0.1559240  
C    -2.8651910    2.5442690    0.4021940  
N    -1.4908210    2.4945760    0.4914290  
C    -3.6934550    3.6153880    0.4964250  
C    -5.1284570    3.3948080    0.3523770  
O    -5.9473230    4.2998120    0.3804620  
C    -5.6421010    1.9221250    0.1703760  
O    -6.8432900    1.7143490    0.2053390  
C    -4.6490860    0.8353360    0.0289030  
H    -2.0918250   -0.6780540   -0.1943740  
H    -3.3421070    4.6298700    0.6565350  
H    -0.8658360    3.2881780    0.5122640  
C    -4.0260930   -3.1311630    2.0329200  
C    -3.9567300   -1.8027210    1.7600340  
C    -4.7760100   -1.6174580    0.5660250  
C    -5.2809920   -2.9893660    0.2647570  
N    -4.8310600   -3.8696570    1.1188490  
C    -6.1740200   -3.2470320   -0.8341270  
C    -6.5468600   -2.1957970   -1.5996280  
O    -7.3685190   -2.2879450   -2.6560200  
C    -6.0175130   -0.8048880   -1.3585100  
O    -6.2981310    0.0496950   -2.1902160  
C    -5.1215900   -0.5366430   -0.1852820  
H    -3.4560140   -1.0294000    2.3249380  
H    -6.5285600   -4.2543000   -1.0221830  
H    -7.4131510   -1.3820510   -3.0341600  
H    -3.5653190   -3.6633330    2.8576820  
C     4.5896230   -0.2128340    0.0542670  
C     5.2415710   -1.4243830   -0.0242310  
C     6.6313150   -1.1308870   -0.1959320  
C     6.7080260    0.3679900   -0.2101770  
N     5.5209970    0.8853080   -0.0714800  
C     7.9476070    1.0706000   -0.3641930  
C     9.0662480    0.3170030   -0.5043650  
O    10.2917560    0.8145750   -0.6572720  
C     9.0296880   -1.2062640   -0.5008140  
O    10.1157890   -1.7734380   -0.6377360  
C     7.7551430   -1.8865730   -0.3404100  
H     4.8082940   -2.4107740   -0.0146810  
H     7.9758190    2.1543900   -0.3675980  
H    10.8802530    0.0255230   -0.7322220  
H     7.7588770   -2.9716800   -0.3430380  
