62


C    -0.7016480    1.3978020   -0.2153450  
C    -1.2084370    2.6970750   -0.2812840  
C    -2.6159970    2.6139460   -0.1592030  
C    -2.9470970    1.2326710   -0.0164100  
N    -1.7790620    0.5252150   -0.0550620  
C    -4.2785840    0.7731830    0.0968660  
C    -5.2712840    1.7562410    0.0895630  
O    -6.5681350    1.3999690    0.2593030  
C    -4.9517060    3.1390580   -0.0427810  
O    -6.0628490    3.9565130   -0.0206060  
C    -3.6525980    3.5750040   -0.1695700  
H    -0.6009000    3.5786960   -0.4090580  
H    -1.6716710   -0.4769150    0.0219240  
H    -7.1070790    2.2072720    0.1811710  
H    -5.7940040    4.8783000   -0.1488120  
H    -3.4283550    4.6343350   -0.2722130  
C     3.0560210    3.6027900   -0.7632880  
C     3.9668670    2.6053620   -0.6895200  
C     3.1925760    1.3852160   -0.4818050  
C     1.7870520    1.8524010   -0.4564130  
N     1.7144230    3.1451940   -0.6107080  
C     0.6572140    0.9278380   -0.2806260  
C     1.0111750   -0.4002140   -0.2090510  
O     0.0889520   -1.3994590   -0.0923080  
C     2.3853300   -0.8832310   -0.2978560  
O     2.5390450   -2.1262650   -0.3058270  
C     3.5388380    0.0706930   -0.3536950  
H     5.0404570    2.6707010   -0.7808970  
H     0.6150360   -2.2292850   -0.1016910  
H     3.2257910    4.6595940   -0.9277590  
C     6.9292380    1.4466470    2.2394360  
C     5.7023790    1.2805220    1.6493940  
C     5.8357700    0.2428320    0.6658100  
C     7.1874440   -0.1944700    0.7221860  
N     7.8310380    0.5672980    1.6754400  
C     7.6867980   -1.2387750   -0.0592330  
C     6.7892680   -1.8850230   -0.8959210  
O     7.2058170   -2.9211540   -1.6710140  
C     5.4258070   -1.4976350   -0.9602170  
O     4.6898940   -2.2392830   -1.8530100  
C     4.9263070   -0.4104560   -0.2258970  
H     4.8122840    1.8434870    1.8866330  
H     8.7924310    0.4542780    1.9558160  
H     8.7195940   -1.5693770   -0.0147960  
H     6.4068820   -3.2385240   -2.1348310  
H     3.8320790   -2.4432420   -1.4134570  
H     7.2386590    2.1290160    3.0183770  
C    -3.1681120   -2.6004480    2.8305460  
C    -3.2421580   -1.3659350    2.2778450  
C    -4.1320450   -1.5164710    1.1292600  
C    -4.5102160   -2.9620160    1.1566860  
N    -3.9461740   -3.5888940    2.1506580  
C    -5.4121830   -3.5305930    0.1883060  
C    -5.9086870   -2.7084150   -0.7629640  
O    -6.7522230   -3.0990130   -1.7330720  
C    -5.5244610   -1.2530960   -0.8416620  
O    -5.9492590   -0.6171050   -1.8001290  
C    -4.6217260   -0.6579780    0.1974870  
H    -2.7642690   -0.4550880    2.6084300  
H    -5.6707390   -4.5824670    0.2378340  
H    -6.8970620   -2.3004350   -2.2868440  
H    -2.6075150   -2.9028280    3.7073230  
