62


C     1.8223760   -3.0029930    2.2549480  
C     0.7233770   -2.3543550    1.7556570  
C     1.1984780   -1.4133390    0.7817240  
C     2.6095470   -1.5482690    0.7247110  
N     2.9585910   -2.5312360    1.6259140  
C     3.4458220   -0.7723570   -0.1143140  
C     2.7817250    0.1677860   -0.9094720  
O     3.4904410    0.9689980   -1.7601930  
C     1.3720450    0.3065510   -0.8781400  
O     0.8980830    1.2788680   -1.7344920  
C     0.5524560   -0.4679890   -0.0561480  
H    -0.3039370   -2.5187690    2.0459550  
H     3.9085070   -2.7719840    1.8643820  
H     2.8456390    1.5454780   -2.2083440  
H    -0.0512230    1.4103410   -1.5691670  
H     1.8943590   -3.7766900    3.0061980  
C    -2.3794510    0.8572860    3.1032540  
C    -1.2413670    0.5068210    2.4262100  
C    -1.6369230    0.1621090    1.0901000  
C    -3.0445320    0.3313080    1.0160790  
N    -3.4690920    0.7470520    2.2588660  
C    -3.7988850    0.0605490   -0.1486990  
C    -3.0716550   -0.3590390   -1.2656740  
O    -3.7133440   -0.5819700   -2.4437540  
C    -1.6642900   -0.5136550   -1.2130350  
O    -1.1102450   -0.9364970   -2.4038100  
C    -0.9217230   -0.2680150   -0.0573480  
H    -0.2388900    0.4838850    2.8274480  
H    -4.4192090    0.9923830    2.4916230  
H    -3.0604740   -0.9599900   -3.0596540  
H    -0.1950210   -1.2224540   -2.2386780  
H    -2.5120460    1.1800350    4.1261360  
C     5.5699710   -2.1633490   -0.0966340  
C     4.8967210   -0.9762570   -0.1447360  
C     5.9775110    0.0380220   -0.1505030  
C     7.2337380   -0.7633330   -0.1056520  
N     6.9855550   -2.0438990   -0.0798050  
C     8.5318000   -0.1401330   -0.0906190  
C     8.5852640    1.2130280   -0.0951350  
O     9.7237620    1.9269290   -0.0756870  
C     7.3366430    2.0474500   -0.1187700  
O     7.4639810    3.2711380   -0.1177300  
C     6.0151530    1.3831070   -0.1460870  
H     9.4256650   -0.7536550   -0.0672940  
H     9.4398990    2.8674050   -0.0851290  
H     5.1396280    2.0195550   -0.1916620  
H     5.1401010   -3.1586350   -0.1079290  
C    -6.7801850    3.2752220    0.7931800  
C    -5.6036320    2.6247660    0.6154130  
C    -5.9746680    1.2831860    0.1710710  
C    -7.4667100    1.3198920    0.1345070  
N    -7.9305710    2.4834630    0.4997430  
C    -8.2461580    0.1832610   -0.2831050  
C    -7.5782420   -0.9375910   -0.6368760  
O    -8.1714730   -2.0743380   -1.0370230  
C    -6.0747720   -1.0266460   -0.5710950  
O    -5.5739910   -2.1233680   -0.7914280  
C    -5.2666010    0.1800440   -0.1896470  
H    -4.6016260    3.0093450    0.7414320  
H    -9.3285060    0.2444700   -0.3052210  
H    -7.4392780   -2.7152120   -1.1731170  
H    -6.9296960    4.3003160    1.1119360  
