62


C     0.1278200    2.2713980   -0.0033290  
C    -1.0508670    1.5845120   -0.2701860  
C    -0.7599260    0.1873620   -0.2330890  
C     0.6207120    0.0636930    0.0777340  
N     1.1254020    1.3339770    0.1960480  
C     1.2925190   -1.1715840    0.2264170  
C     0.4901800   -2.3060680    0.0280140  
O     1.0373390   -3.5527070    0.1351410  
C    -0.8856640   -2.2037590   -0.2696890  
O    -1.5033750   -3.4371770   -0.4220140  
C    -1.5545220   -0.9826910   -0.3955120  
H    -2.0315970    2.0230170   -0.3770630  
H     2.0722490    1.5805820    0.4441420  
H     0.3239620   -4.1878990   -0.0578160  
H    -2.2936210   -3.3344660   -0.9749340  
C    -2.0328070    5.7059240   -1.7521860  
C    -1.2701420    6.7016330   -1.2034880  
C    -0.2423130    6.0659990   -0.4283140  
C    -0.4455220    4.6657270   -0.5344070  
N    -1.5546400    4.4770970   -1.3336090  
C     0.3925420    3.7054600    0.0840810  
C     1.4865220    4.2326960    0.7848460  
O     2.3887780    3.3926340    1.3932030  
C     1.6973260    5.6268660    0.9024030  
O     2.8162320    5.9517720    1.6481220  
C     0.8475440    6.5477360    0.3211230  
H    -1.4185450    7.7646220   -1.3342770  
H    -1.8245960    3.5859910   -1.7196050  
H     3.0574590    3.9548840    1.8233890  
H     2.9055410    6.9146140    1.6987690  
H     1.0304740    7.6148980    0.4265760  
H    -2.8940990    5.7631300   -2.4026970  
C     3.3717610   -0.4232320    1.4704950  
C     2.7079830   -1.2331850    0.5917750  
C     3.7736740   -2.1140020    0.0552580  
C     5.0089090   -1.6640800    0.7573160  
N     4.7620130   -0.6841120    1.5830610  
C     6.2898430   -2.2718330    0.5075710  
C     6.3531830   -3.2609180   -0.4153900  
O     7.4797260   -3.9107960   -0.7553340  
C     5.1312310   -3.7191180   -1.1573700  
O     5.2663810   -4.6202900   -1.9846490  
C     3.8246450   -3.0874860   -0.8726100  
H     7.1657870   -1.9255210    1.0449260  
H     7.2062270   -4.5601930   -1.4399000  
H     2.9629710   -3.4660790   -1.4086190  
H     2.9456160    0.3545100    2.0938080  
C    -3.6183960   -0.0490450   -1.5570020  
C    -2.9832120   -0.9066840   -0.7028960  
C    -4.0988530   -1.6662710   -0.0821560  
C    -5.3242020   -1.1110740   -0.7248480  
N    -5.0288990   -0.1745690   -1.5864620  
C    -6.6382780   -1.5864340   -0.3853830  
C    -6.7424170   -2.5405000    0.5719080  
O    -7.9057500   -3.0670430    0.9904150  
C    -5.5313210   -3.0976290    1.2597950  
O    -5.7015750   -3.9626110    2.1181060  
C    -4.1875950   -2.6048770    0.8814460  
H    -7.5083590   -1.1694690   -0.8804540  
H    -7.6625570   -3.7204600    1.6822360  
H    -3.3380530   -3.0418270    1.3956200  
H    -3.1501580    0.6814540   -2.2052350  
