62


C     1.7350950   -2.7588580    2.4177020  
C     0.6756960   -2.1667660    1.7804100  
C     1.2145760   -1.3134880    0.7575200  
C     2.6254600   -1.4540590    0.8126090  
N     2.9105310   -2.3370650    1.8323930  
C     3.5245570   -0.7861730   -0.0515710  
C     2.9134420    0.0285060   -1.0132730  
O     3.6697010    0.6988750   -1.9256780  
C     1.5063470    0.1714070   -1.1072300  
O     1.1145820    1.0227630   -2.1156220  
C     0.6254840   -0.4556600   -0.2194470  
H    -0.3669110   -2.3277250    2.0101750  
H     3.8422180   -2.5569240    2.1491630  
H     3.0248770    1.1339670   -2.5197400  
H     0.3468720    0.5992110   -2.5662570  
H     1.7508490   -3.4621570    3.2381900  
C    -2.3536280    0.6660820    2.8825510  
C    -1.2145140    0.3921820    2.1936280  
C    -1.5970970    0.0645090    0.8402430  
C    -3.0759650    0.1834510    0.7950710  
N    -3.4692310    0.5177520    2.0688850  
C    -3.8859550   -0.0405460   -0.2982890  
C    -3.1616630   -0.4823560   -1.4792950  
O    -3.6887160   -0.9463400   -2.4916990  
C    -1.5959370   -0.3678240   -1.5183010  
O    -1.0878630   -0.3814250   -2.6380020  
C    -0.8386340   -0.2575730   -0.2671370  
H    -0.2084120    0.4087210    2.5807070  
H    -2.4779740    0.9584280    3.9167420  
H    -4.4116570    0.8002400    2.2999100  
C    -6.5418100    3.2438640    1.2445260  
C    -5.4630420    2.5030880    0.8289720  
C    -5.9688810    1.2498230    0.3286360  
C    -7.3818300    1.3049520    0.4610330  
N    -7.6969490    2.5208790    1.0347320  
C    -8.2320600    0.2829310    0.0262240  
C    -7.6349730   -0.8088810   -0.5815290  
O    -8.3962230   -1.8317080   -1.0516650  
C    -6.2224430   -0.8990340   -0.7286060  
O    -5.8086160   -2.0659850   -1.3230540  
C    -5.3610130    0.0933320   -0.2499030  
H    -4.4355580    2.8379080    0.8354400  
H    -8.6325270    2.8507730    1.2136800  
H    -9.3120760    0.3303850    0.1200980  
H    -7.7691550   -2.4563400   -1.4653070  
H    -5.0772560   -1.8350250   -1.9433360  
H    -6.5820300    4.2381680    1.6663230  
C     5.6371600   -2.1520720    0.3038410  
C     4.9702140   -0.9892330    0.0355070  
C     6.0545100    0.0184430   -0.0640570  
C     7.3016800   -0.7584480    0.1791610  
N     7.0474840   -2.0222540    0.3855110  
C     8.5986440   -0.1337970    0.1759130  
C     8.6577010    1.2028210   -0.0350220  
O     9.7960170    1.9177490   -0.0571210  
C     7.4166730    2.0161040   -0.2629910  
O     7.5486570    3.2265170   -0.4422820  
C     6.0967630    1.3480000   -0.2677730  
H     9.4869890   -0.7315290    0.3478430  
H     9.5155960    2.8432630   -0.2304880  
H     5.2280010    1.9631900   -0.4689180  
H     5.2076410   -3.1416650    0.4113740  
