60


C    -1.9771520   -3.5617460    0.9617860  
C    -3.1735580   -2.8927540    0.8572120  
C    -2.8952510   -1.5971470    0.3139090  
C    -1.4975080   -1.5408040    0.1072100  
N    -0.9692490   -2.7538640    0.4944490  
C    -0.7999390   -0.3938080   -0.3545180  
C    -1.5945000    0.7342060   -0.5772530  
O    -1.0359330    1.8933260   -1.0257560  
C    -3.0017320    0.7195480   -0.3970120  
O    -3.5797600    1.9031150   -0.6988470  
C    -3.7008110   -0.4456840    0.0168540  
H    -4.1248070   -3.2869120    1.1758410  
H     0.0181080   -2.9533520    0.5477710  
H    -1.7769320    2.5185660   -1.1475550  
H    -4.5704100    1.8093500   -0.5187540  
H    -1.7643770   -4.5544510    1.3316310  
C     1.3665770   -1.4625390   -1.1154690  
C     0.6400470   -0.4261330   -0.5956720  
C     1.6631320    0.6000570   -0.2818750  
C     2.9438760   -0.0273530   -0.6942160  
N     2.7588290   -1.2211300   -1.1862530  
C     4.2194450    0.6535370   -0.5384010  
C     4.1930640    1.9108560   -0.0036060  
O     5.2842820    2.6769510    0.1615310  
C     2.9215510    2.5399080    0.4495390  
O     2.9836230    3.6756540    0.9231610  
C     1.6394090    1.8188510    0.2860930  
H     4.9538630    3.5081690    0.5714610  
H     0.7371220    2.3310320    0.5964000  
H     0.9864050   -2.3983580   -1.5076570  
C     5.5715540   -0.6990560   -2.1262440  
C     6.8098060   -1.2383150   -2.2195200  
C     7.5197500   -0.9192200   -1.0017750  
C     6.5802400   -0.1265190   -0.1707300  
N     5.4037870   -0.0001870   -0.9187920  
C     6.8607360    0.3060860    1.0826140  
C     8.1808940    0.0117790    1.6425560  
O     8.5124340    0.3631750    2.7640990  
C     9.2036420   -0.7903630    0.7617900  
O    10.3137190   -1.0300170    1.2109310  
C     8.7681800   -1.2301180   -0.5644050  
H     7.1950010   -1.8098280   -3.0516050  
H     6.1695190    0.8720650    1.6929660  
H     9.4657400   -1.8141130   -1.1571220  
H     4.7483380   -0.7375520   -2.8230630  
C    -5.1354570   -0.4389890    0.1082710  
C    -6.0465600   -1.4527270    0.3336720  
C    -7.3417320   -0.8551800    0.3042940  
C    -7.0866670    0.6003180    0.0379460  
N    -5.8091220    0.8253990   -0.0789660  
C    -8.1480410    1.5571510   -0.0662640  
C    -9.4116800    1.0876420    0.0823730  
O   -10.5063620    1.8423360    0.0134740  
C    -9.7131120   -0.3831610    0.3485860  
O   -10.9079730   -0.6737030    0.4618540  
C    -8.6153820   -1.3235690    0.4501470  
H    -5.8480140   -2.5036670    0.4619260  
H    -7.9373190    2.6036230   -0.2559160  
H   -11.2538880    1.2130050    0.1604940  
H    -8.8572130   -2.3643460    0.6391900  
