60


C     2.2755060   -1.1112790    0.5796740  
C     3.3653770   -0.3489110    0.1776400  
C     2.8200180    0.9338500   -0.2349900  
C     1.4213490    0.8739180   -0.0512990  
N     1.1311450   -0.3792990    0.4572890  
C     0.5331290    1.9403960   -0.3404020  
C     1.1286220    3.1009600   -0.8686230  
O     0.3750140    4.1599920   -1.2341510  
C     2.5292730    3.1539870   -1.0995150  
O     2.9447750    4.3451700   -1.6563340  
C     3.3710320    2.1012370   -0.7996250  
H     0.2096420   -0.6736030    0.7480220  
H     0.9789380    4.8365010   -1.5903480  
H     3.8978350    4.3155130   -1.8275820  
H     4.4354210    2.1785220   -1.0006550  
H     2.2521890   -2.1220870    0.9530730  
C    -0.8977120    1.8200470   -0.1046520  
C    -1.6748760    0.6898770   -0.2118480  
C    -3.0048750    1.0845440    0.1780700  
C    -2.8666590    2.5378530    0.5089610  
N    -1.6466590    2.9605440    0.3446330  
C    -3.9905830    3.3264940    0.9391600  
C    -5.1927240    2.7102370    1.0145500  
O    -6.3256320    3.3148550    1.3953350  
C    -5.3664450    1.2398160    0.7082060  
O    -6.4792790    0.7614930    0.9116350  
C    -4.2034610    0.4371880    0.2527990  
H    -1.3948330   -0.2681000   -0.6261800  
H    -3.8609820    4.3764670    1.1759250  
H    -7.0130380    2.6111030    1.3785330  
C    -2.3992910   -3.3235810    1.8175180  
C    -2.7245730   -2.0227250    1.5906670  
C    -3.7211670   -2.0037770    0.5391270  
C    -3.9559120   -3.4219800    0.1737140  
N    -3.1057560   -4.1668900    0.9713310  
C    -4.8548650   -3.8507480   -0.7483960  
C    -5.6596100   -2.8514490   -1.4395600  
O    -6.5207980   -3.1338770   -2.2572430  
C    -5.3942420   -1.3367590   -1.1198010  
O    -5.9662640   -0.4912310   -1.7831240  
C    -4.4131600   -0.9846560   -0.0602350  
H    -2.3372190   -1.1635850    2.1170100  
H    -5.0202040   -4.8979960   -0.9817130  
H    -1.7059180   -3.7413550    2.5357860  
H    -3.0757410   -5.1742370    0.9937150  
C     7.3945950    1.4978540    1.0099730  
C     6.0498130    1.3438900    0.9167330  
C     5.8485620   -0.0245800    0.4438730  
C     7.2266780   -0.5545000    0.3165900  
N     8.1280740    0.3376960    0.6335870  
C     7.4958900   -1.9140810   -0.0829520  
C     6.4378500   -2.7261660   -0.2949320  
O     6.5386340   -4.0273360   -0.6326540  
C     5.0273460   -2.2367770   -0.1567430  
O     4.1351170   -3.0648200   -0.3386750  
C     4.7476290   -0.7923420    0.1783020  
H     5.2819460    2.0541690    1.1853670  
H     8.5194840   -2.2604520   -0.1737490  
H     5.6143560   -4.3470910   -0.7092870  
H     7.9428860    2.3708900    1.3439970  
