58


C     0.3383550    1.4404820   -0.1006650  
C     1.6349920    0.9769980   -0.1218670  
C     1.5396060   -0.4564190   -0.0714530  
C     0.0692250   -0.7311650   -0.0310090  
N    -0.6104700    0.3780480   -0.0399020  
C    -0.4926390   -2.0837710   -0.0106000  
C     0.4445680   -3.0965300   -0.0377660  
O     0.1721590   -4.3964970   -0.0253650  
C     1.9342480   -2.8381360   -0.0295160  
O     2.6582460   -3.8227470    0.0924680  
C     2.4732940   -1.4536560   -0.0924380  
H     2.5417680    1.5590640   -0.2059600  
H     1.0526920   -4.8415770   -0.0021480  
C    -0.1175230    2.8053680   -0.1488970  
C     0.6432030    3.9401130   -0.3006410  
C    -0.2884590    5.0404720   -0.2895070  
C    -1.6259310    4.3850520   -0.1135110  
N    -1.5244490    3.0923520   -0.0328510  
C    -2.8390860    5.1605860   -0.0486790  
C    -2.7336030    6.5059460   -0.1558010  
O    -3.7740120    7.3492940   -0.1138160  
C    -1.3998210    7.1934280   -0.3356870  
O    -1.4037130    8.4208940   -0.4215290  
C    -0.1739400    6.3852760   -0.3975970  
H     1.7154540    4.0091540   -0.4219860  
H    -3.7945170    4.6644540    0.0795210  
H    -3.3874260    8.2474510   -0.2174550  
H     0.7650460    6.9147360   -0.5272500  
C    -1.9277880   -2.2909870    0.0307130  
C    -2.9234410   -1.3451890    0.0457070  
C    -4.1632500   -2.0840500    0.0878020  
C    -3.7411220   -3.5205200    0.0967720  
N    -2.4505480   -3.6414020    0.0650680  
C    -4.7076550   -4.5906660    0.1379960  
C    -6.0172080   -4.2515770    0.1676540  
O    -7.0276900   -5.1338510    0.2069800  
C    -6.4727600   -2.8102400    0.1596650  
O    -7.6872530   -2.6060450    0.1900420  
C    -5.4717310   -1.7380350    0.1181040  
H    -2.7997490   -0.2741630    0.0265370  
H    -4.3765420   -5.6231570    0.1430530  
H    -7.8441600   -4.5850720    0.2201210  
H    -5.8348770   -0.7148950    0.1140960  
C     5.2029130    0.8932170    2.4783920  
C     6.3869490    0.5450810    1.9163460  
C     6.0924610   -0.3419390    0.8094770  
C     4.6153030   -0.4803030    0.7708450  
N     4.1403170    0.2909430    1.8059270  
C     3.9257540   -1.2777070   -0.1086410  
C     4.7270260   -1.9758700   -1.1411020  
O     4.2182160   -2.5810250   -2.0667820  
C     6.2912550   -1.8723510   -1.0805310  
O     6.9530090   -2.5138430   -1.8791560  
C     6.8927030   -1.0011560   -0.0697930  
H     7.3693790    0.8605870    2.2354350  
H     7.9757050   -0.9283600   -0.0455490  
H     5.0034140    1.5344710    3.3265310  
H     3.1627690    0.4177380    2.0219860  
