60


C     2.0186140   -0.4494590    0.5065130  
C     3.2728890    0.1125730    0.3501320  
C     3.0687500    1.5418010    0.1588870  
C     1.6802110    1.7846340    0.2068330  
N     1.0645130    0.5461080    0.4227110  
C     1.1051170    3.0484780    0.0627720  
C     1.9755260    4.1101040   -0.1396780  
O     1.4838870    5.3682420   -0.2881400  
C     3.3792390    3.8921560   -0.1926280  
O     4.1077580    5.0425280   -0.3983310  
C     3.9326490    2.6333780   -0.0473390  
H     0.0354210    3.2212890    0.0983100  
H     2.2411920    5.9637600   -0.4272170  
H     5.0516030    4.8270740   -0.4427460  
H     5.0043920    2.4691060   -0.0870080  
H     1.7165920   -1.4736490    0.6686570  
C    -0.9979220    0.3632200    1.7318210  
C    -2.3081590    0.0804320    1.5020330  
C    -2.4751090   -0.1453160    0.0863630  
C    -1.1360760    0.0110430   -0.5154370  
N    -0.2835260    0.3475410    0.5361160  
C    -0.8242250   -0.1439240   -1.8251150  
C    -1.8984410   -0.5383450   -2.7242840  
O    -1.7534230   -0.6910080   -3.9250200  
C    -3.3203590   -0.8004540   -2.1097190  
O    -4.1609340   -1.2970020   -2.8471920  
C    -3.5795770   -0.4618720   -0.6870230  
H    -3.0700230   -0.0043990    2.2598340  
H     0.1708720    0.0135930   -2.2261110  
H    -0.4762430    0.5765550    2.6548020  
C    -4.9377610   -0.4917960   -0.1734580  
C    -5.4713790    0.1325400    0.9380680  
C    -6.8748700   -0.1642560    0.9841840  
C    -7.1535180   -1.0180440   -0.1973700  
N    -5.9474550   -1.1891990   -0.8392550  
C    -8.3814270   -1.5000090   -0.5181910  
C    -9.5073270   -1.1687670    0.3502640  
O   -10.6467840   -1.5580690    0.1434690  
C    -9.2333430   -0.2691560    1.6117080  
O   -10.1636920    0.0154650    2.3513660  
C    -7.8657530    0.1937800    1.8499720  
H    -4.9509570    0.7932630    1.6131930  
H    -8.5686980   -2.1213520   -1.3882660  
H    -7.6884260    0.8173750    2.7211540  
H    -5.7943470   -1.5876320   -1.7570680  
C     4.5205180   -0.6064420    0.3769530  
C     4.7490180   -1.9513780    0.5414000  
C     6.1721750   -2.1214630    0.4872870  
C     6.7025670   -0.7287420    0.2760540  
N     5.7412580    0.1445140    0.2127680  
C     8.1130260   -0.4659030    0.1662570  
C     8.9529170   -1.5233180    0.2597290  
O    10.2844330   -1.4401770    0.1777340  
C     8.4488560   -2.9413850    0.4726560  
O     9.3076680   -3.8224830    0.5428080  
C     7.0148390   -3.1829390    0.5810090  
H     4.0182170   -2.7360340    0.6805190  
H     8.4719880    0.5458490    0.0141980  
H    10.6036320   -2.3670390    0.2816120  
H     6.6899550   -4.2074970    0.7322900  
