64


C     0.6844390    1.6810600   -0.2768980  
C     1.6915580    0.7343430   -0.3359730  
C     1.0987480   -0.5513450   -0.1804510  
C    -0.3041810   -0.3413170   -0.0835000  
N    -0.5195230    1.0129390   -0.1402340  
C    -1.2539810   -1.3825610    0.0427840  
C    -0.6940800   -2.6673200    0.1279950  
O    -1.5003040   -3.7628250    0.2975640  
C     0.6936440   -2.9055990    0.0263760  
O     1.0281340   -4.2397520    0.1546990  
C     1.6327040   -1.8708140   -0.1196580  
H     2.7373050    0.9357470   -0.4970770  
H    -1.4096160    1.4772620   -0.0533460  
H    -0.8884980   -4.5266060    0.2973900  
H     1.6192560   -4.4745100   -0.5943960  
C     3.9368380    4.2871230    1.1016980  
C     3.3828900    5.4894620    0.7469610  
C     2.0995620    5.2060530    0.1689980  
C     1.9408540    3.7964920    0.1861700  
N     3.0809990    3.2609770    0.7494850  
C     0.7790240    3.1370960   -0.2813620  
C    -0.2533390    3.9725890   -0.7196480  
O    -1.4434370    3.4298830   -1.1440630  
C    -0.1074980    5.3800960   -0.7468030  
O    -1.2235050    6.0411400   -1.2326850  
C     1.0507020    6.0058370   -0.3259860  
H     3.8314090    6.4637390    0.8848050  
H     3.1738510    2.2926820    1.0255280  
H    -2.0041980    4.1729510   -1.4283700  
H    -1.0499700    6.9935560   -1.2525490  
H     1.1355600    7.0902120   -0.3561290  
H     4.8852470    4.0693030    1.5725370  
C     5.1527630   -0.1636250    2.0203120  
C     6.1597250   -0.9228140    1.5344590  
C     5.5260960   -1.8255610    0.5810050  
C     4.0768840   -1.4462170    0.6101760  
N     3.8767720   -0.4697580    1.4496750  
C     3.0751710   -2.1596780   -0.1992880  
C     3.5867580   -3.1718790   -0.9664960  
O     2.8119020   -3.9552990   -1.7767930  
C     5.0160950   -3.5444520   -1.0355410  
O     5.3412150   -4.4629320   -1.8000200  
C     5.9880780   -2.8126000   -0.2094300  
H     7.2085620   -0.8983400    1.7959610  
H     3.4583270   -4.5605320   -2.2133790  
H     7.0294900   -3.1131960   -0.2749480  
H     5.2046050    0.6182500    2.7688390  
C    -2.6887670   -1.1383050    0.0656180  
C    -3.4270620   -0.0601710   -0.4148580  
C    -4.8026760   -0.3248810   -0.1534280  
C    -4.8645870   -1.5905270    0.4956120  
N    -3.5770730   -2.0504570    0.6207170  
C    -6.0730940   -2.1748820    0.8948700  
C    -7.2393700   -1.4728670    0.6347130  
O    -8.4455340   -1.9953820    1.0009200  
C    -7.1970520   -0.2062590   -0.0130220  
O    -8.4436710    0.3643330   -0.1975310  
C    -6.0056060    0.3697870   -0.4053370  
H    -3.0394720    0.7850830   -0.9656480  
H    -3.2890080   -2.9670430    0.9312800  
H    -6.1255140   -3.1391630    1.3895530  
H    -9.1285020   -1.3580540    0.7294940  
H    -8.3443160    1.2119800   -0.6552980  
H    -5.9985860    1.3398420   -0.8988720  
