62


C    -0.6561360    1.3935080    0.0268730  
C    -1.1444550    2.6924530    0.1121000  
C    -2.5668970    2.6175810    0.1828400  
C    -2.9109660    1.2387780    0.1364310  
N    -1.7418310    0.5280600    0.0331360  
C    -4.2479590    0.7814210    0.1558480  
C    -5.2362750    1.7644900    0.2562350  
O    -6.5415090    1.3968410    0.3496330  
C    -4.9028600    3.1436380    0.3155950  
O    -6.0040280    3.9699670    0.4208140  
C    -3.5939000    3.5791880    0.2749120  
H    -0.5506380    3.5904220    0.2075460  
H    -1.6387040   -0.4757370    0.0912250  
H    -7.0735860    2.2115760    0.3679270  
H    -5.7171540    4.8945940    0.4490780  
H    -3.3640270    4.6418050    0.3187230  
C     2.9787790    3.3583720   -1.4783100  
C     3.8739930    2.3709760   -1.1631530  
C     3.1344830    1.3038410   -0.5485050  
C     1.7775070    1.7167200   -0.5179100  
N     1.7169040    2.9824150   -1.0632290  
C     0.7151420    0.9098510   -0.0510240  
C     1.0905930   -0.3955960    0.3024370  
O     0.1432030   -1.2903490    0.7169420  
C     2.4302740   -0.8416000    0.2713260  
O     2.5775600   -2.1352640    0.7217030  
C     3.4929480   -0.0041540   -0.0972810  
H     4.9376310    2.4040240   -1.3444360  
H     0.8546020    3.4274640   -1.3391490  
H     0.6272140   -2.1226050    0.8909550  
H     3.1962640   -2.5844670    0.1048250  
H     3.1372890    4.3141290   -1.9573900  
C     7.2418490    1.8801010    1.4525210  
C     5.9334750    1.6358570    1.2043650  
C     5.9079390    0.3684960    0.4762990  
C     7.3411720   -0.0104100    0.3788190  
N     8.1200140    0.8733360    0.9385660  
C     7.7671850   -1.2254140   -0.2686470  
C     6.8079220   -2.0460600   -0.7506900  
O     7.0614920   -3.2283910   -1.3456290  
C     5.3541140   -1.7209780   -0.6072080  
O     4.5642980   -2.5949340   -0.9963450  
C     4.9077830   -0.4112080   -0.0359190  
H     5.0772790    2.2283100    1.4895670  
H     8.8220680   -1.4664620   -0.3373930  
H     6.1862210   -3.6164370   -1.5543550  
H     7.6755970    2.7179650    1.9848440  
C    -3.2211150   -2.9376070    2.4416450  
C    -3.2700290   -1.6404060    2.0541820  
C    -4.1389180   -1.6270220    0.8795200  
C    -4.5338110   -3.0579170    0.7108940  
N    -3.9971170   -3.8173480    1.6246190  
C    -5.4237240   -3.4832540   -0.3389370  
C    -5.8922180   -2.5376240   -1.1835300  
O    -6.7205150   -2.7868990   -2.2120240  
C    -5.4883090   -1.0904760   -1.0659160  
O    -5.8806510   -0.3313880   -1.9453750  
C    -4.6024770   -0.6469320    0.0607100  
H    -2.7845610   -0.7889210    2.5085210  
H    -5.6951930   -4.5289810   -0.4313000  
H    -6.8434910   -1.9209200   -2.6596620  
H    -2.6820650   -3.3593500    3.2819340  
