64


C     4.0076240   -0.0845970    0.0489470  
C     4.7628460    1.0754670    0.1418390  
C     3.8574070    2.1749080    0.2470010  
C     2.5423770    1.6330170    0.2211230  
N     2.6683620    0.2706660    0.0883030  
C     1.3728090    2.4295390    0.2767950  
C     1.6006970    3.8052780    0.3439630  
O     0.5276310    4.6776030    0.3762930  
C     2.9000260    4.3622830    0.3793580  
O     2.9078090    5.7443190    0.4551420  
C     4.0294750    3.5695670    0.3372420  
H     5.8401380    1.1298470    0.2102440  
H     1.9186600   -0.4034890    0.1587200  
H     0.8950260    5.5768990    0.4569970  
H     3.8188270    6.0601120    0.5450200  
H     5.0216920    4.0153070    0.3590060  
C     7.6887710   -1.7689110   -1.7033700  
C     7.4372530   -3.0878360   -1.4346690  
C     6.1612860   -3.1482710   -0.7785360  
C     5.6900410   -1.8151960   -0.6620870  
N     6.6505340   -0.9942780   -1.2177050  
C     4.4409590   -1.4750350   -0.0889520  
C     3.6598060   -2.5601450    0.3264210  
O     2.4152240   -2.3401180    0.8603760  
C     4.1202480   -3.8945820    0.2242550  
O     3.2193400   -4.8267330    0.7096120  
C     5.3574950   -4.2037170   -0.3068220  
H     8.0816400   -3.9219940   -1.6759690  
H     6.4970930   -0.0205320   -1.4312160  
H     2.0351920   -3.2092360    1.0772660  
H     3.5718330   -5.7181060    0.5721960  
H     5.6892600   -5.2376910   -0.3741560  
H     8.5331520   -1.3048750   -2.1933980  
C    -0.5891810   -0.8163390    2.6869200  
C     0.2844040    0.1203120    2.2005630  
C    -0.3586740    0.7602570    1.0851160  
C    -1.6334040    0.1607950    0.9457380  
N    -1.7378610   -0.8074190    1.9184820  
C    -2.6197490    0.5898920    0.0168690  
C    -2.2447520    1.6973160   -0.7718360  
O    -3.0629240    2.1850310   -1.7242100  
C    -0.9610080    2.2991850   -0.6529560  
O    -0.7573700    3.3308070   -1.5472350  
C     0.0125390    1.8410780    0.2332720  
H     1.2671760    0.3344310    2.5935130  
H    -2.5991110   -1.2865180    2.1363240  
H    -2.5782720    2.9411750   -2.1142220  
H    -0.3707720    4.0826110   -1.0469010  
H    -0.4892760   -1.5001120    3.5178500  
C    -3.9084150   -0.0603020   -0.0760670  
C    -4.2128390   -1.3796570    0.1916260  
C    -5.6293560   -1.5100100   -0.0063600  
C    -6.0715160   -0.1249540   -0.3813270  
N    -5.0756910    0.7083680   -0.4308250  
C    -7.4564070    0.1767930   -0.6425210  
C    -8.3434880   -0.8419610   -0.5653450  
O    -9.6599750   -0.7207180   -0.7893700  
C    -7.9234900   -2.2538630   -0.2097190  
O    -8.8201410   -3.1020190   -0.1678560  
C    -6.5200160   -2.5337100    0.0673980  
H    -3.5211400   -2.1880330    0.3853180  
H    -7.7533290    1.1870190   -0.9012170  
H   -10.0182550   -1.6290090   -0.6566190  
H    -6.2563070   -3.5541570    0.3281820  
