62


C     2.2693930   -1.9481290    2.5092740  
C     3.4073550   -1.4533030    1.9269740  
C     2.9988430   -0.6136980    0.8356590  
C     1.5774440   -0.6277540    0.8227720  
N     1.1646620   -1.4572980    1.8436260  
C     0.7942500    0.0913870   -0.0998610  
C     1.5070230    0.8802000   -1.0085760  
O     0.8346620    1.6554690   -1.8946050  
C     2.9220470    0.9389550   -1.0030820  
O     3.4409650    1.7608180   -1.9819730  
C     3.7003390    0.1759030   -0.1245090  
H     4.4180990   -1.6744770    2.2355360  
H     0.2022900   -1.6594920    2.0646840  
H     1.5200140    2.1053490   -2.4256450  
H     4.1242550    2.3185660   -1.5546300  
H     2.1527750   -2.6174300    3.3498140  
C    -2.3345230    0.9834380    2.9408940  
C    -1.1587290    0.8353220    2.2735480  
C    -1.4743250    0.3532820    0.9423120  
C    -2.9492850    0.2436000    0.8887510  
N    -3.4076750    0.6347370    2.1354230  
C    -3.6907070   -0.1541360   -0.1879890  
C    -2.9299680   -0.4736500   -1.4107820  
O    -3.4591020   -0.7192670   -2.4799320  
C    -1.3575340   -0.4718570   -1.3483020  
O    -0.7486300   -0.9212120   -2.3016850  
C    -0.6797590    0.0309300   -0.1275200  
H    -0.1726600    1.0529380    2.6550650  
H    -2.5093950    1.3244130    3.9529970  
H    -4.3820630    0.6610050    2.3946070  
C    -6.7202080    3.0049250    0.5227060  
C    -7.8361480    2.2241310    0.3841990  
C    -7.3874230    0.8872850    0.1070460  
C    -5.9696480    0.9197350    0.0979600  
N    -5.5865710    2.2191240    0.3815630  
C    -5.1674010   -0.2099190   -0.1743180  
C    -5.8513530   -1.3985700   -0.4405710  
O    -5.1491550   -2.5412630   -0.6677210  
C    -7.2692830   -1.4476530   -0.4308740  
O    -7.7809910   -2.7048470   -0.6960850  
C    -8.0392550   -0.3328380   -0.1576740  
H    -8.8609090    2.5589200    0.4696510  
H    -4.6509610    2.5742280    0.2527560  
H    -5.7888690   -3.2255910   -0.9314100  
H    -8.7343840   -2.6385500   -0.8532230  
H    -9.1252370   -0.4009910   -0.1531040  
H    -6.6288490    4.0624890    0.7267180  
C     6.8108310   -3.0389570   -0.1676900  
C     5.6165040   -2.4063450   -0.2263810  
C     5.9310520   -0.9797380   -0.1491650  
C     7.4152060   -0.9501870   -0.0463560  
N     7.9276980   -2.1480220   -0.0465040  
C     8.1496870    0.2872290    0.0402840  
C     7.4430620    1.4371140   -0.0220870  
O     7.9989630    2.6639560    0.0112210  
C     5.9538630    1.4353160   -0.1870100  
O     5.4229900    2.5457300   -0.3326850  
C     5.1763540    0.1572210   -0.1686630  
H     4.6326910   -2.8392420   -0.3272780  
H     9.2302410    0.2757280    0.1287190  
H     7.2564490    3.2954870   -0.0921440  
H     7.0058900   -4.1036500   -0.2099750  
