60


C     4.1870430    0.5468580    0.1584940  
C     4.3674660    1.9244690    0.2336530  
C     3.1418620    2.5344420   -0.1405070  
C     2.2246820    1.4922910   -0.4500090  
N     2.8802520    0.3075370   -0.2661130  
C     0.8769670    1.7261660   -0.8319070  
C     0.4899920    3.0792200   -0.8986870  
O    -0.7469280    3.4297830   -1.3199390  
C     1.4074890    4.1253220   -0.5931490  
O     0.8553720    5.3835020   -0.7268270  
C     2.7107470    3.8761270   -0.2241140  
H     5.2851280    2.4060400    0.5310130  
H     2.4730000   -0.6155120   -0.3165470  
H    -0.7917350    4.4032480   -1.2901170  
H     1.5166200    6.0587090   -0.5147630  
H     3.3908050    4.6952830   -0.0011950  
C    -0.0284860    0.6332680   -1.1346040  
C     0.2585370   -0.5973380   -1.6702850  
C    -0.9935090   -1.3089930   -1.7413530  
C    -1.9842900   -0.3496230   -1.1630740  
N    -1.4314890    0.7697280   -0.8185720  
C    -3.3950330   -0.6890250   -1.0363490  
C    -3.7837990   -1.8928370   -1.5470980  
O    -5.0535830   -2.3228710   -1.5750270  
C    -2.8001700   -2.8704620   -2.1265770  
O    -3.2625920   -3.9351660   -2.5445440  
C    -1.3789920   -2.5237020   -2.1973520  
H     1.2074620   -0.9512650   -2.0482180  
H    -5.0041680   -3.2200360   -1.9810850  
H    -0.7066120   -3.2602060   -2.6254610  
C    -4.2700500    1.6106600   -0.6695470  
C    -5.2256120    2.2412930    0.0541000  
C    -5.8984470    1.2463990    0.8562970  
C    -5.2501010   -0.0498580    0.5357190  
N    -4.2747580    0.2256010   -0.4287740  
C    -5.5611310   -1.2194930    1.1466050  
C    -6.6251030   -1.2208890    2.1509770  
O    -6.9655460   -2.2311050    2.7476410  
C    -7.3525920    0.1334110    2.4711810  
O    -8.2539640    0.1422910    3.2960170  
C    -6.9016150    1.3343560    1.7693480  
H    -5.4358300    3.3010740    0.0444780  
H    -5.0775210   -2.1613630    0.9245970  
H    -7.3819440    2.2756900    2.0188690  
H    -3.5377210    2.0184310   -1.3495810  
C     8.3748700    0.6165390    1.5166980  
C     8.6627620   -0.7008650    1.5913360  
C     7.4387370   -1.3828090    1.1822510  
C     6.4788990   -0.2736540    0.8860630  
N     7.0344240    0.8839780    1.0838900  
C     5.1047120   -0.5363250    0.4350010  
C     4.7810620   -1.8645110    0.3061640  
O     3.5585350   -2.2986230   -0.1013770  
C     5.7142100   -2.9742580    0.5944850  
O     5.3036600   -4.1309110    0.4434190  
C     7.0866590   -2.6735160    1.0475280  
H     9.5905650   -1.1704270    1.8870640  
H     3.6280340   -3.2812930   -0.0819860  
H     7.7407060   -3.5166490    1.2485840  
H     9.0179760    1.4591880    1.7386880  
