60


C    -1.8330390   -2.4036280    2.1763430  
C    -0.7671020   -1.7168490    1.6579970  
C    -1.3077180   -0.7552460    0.7392810  
C    -2.7181450   -0.9252630    0.7336400  
N    -3.0062540   -1.9601330    1.5970270  
C    -3.5977190   -0.1470610   -0.0559780  
C    -2.9944960    0.9000640   -0.7698980  
O    -3.7528390    1.7835670   -1.4670320  
C    -1.5870280    1.0782820   -0.7980340  
O    -1.1577900    2.0793730   -1.6470160  
C    -0.7403090    0.2469080   -0.0731620  
H     0.2736360   -1.8675390    1.9075490  
H    -3.9227290   -2.0138510    2.0339920  
H    -3.1303980    2.4009220   -1.8950160  
H    -0.4013190    2.5561250   -1.2585780  
H    -1.8552730   -3.1872340    2.9207040  
C     1.5590830   -0.5849720   -0.5828540  
C     2.8492660   -0.1415600   -0.6257350  
C     2.8096960    1.2562510   -0.1961680  
C     1.3900380    1.5572560    0.1138920  
N     0.6721100    0.4069300   -0.1533110  
C     0.9416330    2.7604730    0.5752340  
C     1.9070770    3.8411360    0.7599860  
O     1.6043720    4.9404900    1.1965320  
C     3.4027040    3.5623300    0.3728420  
O     4.2208730    4.4619270    0.4660260  
C     3.7654400    2.2130120   -0.0841780  
H    -0.0847950    2.9294500    0.8884810  
H     4.8079200    2.0342380   -0.3267860  
H     1.1689700   -1.5644060   -0.8236000  
C     4.0837860   -1.7525420   -2.1409160  
C     4.0015190   -0.9125920   -1.0710310  
C     5.3224760   -1.0337470   -0.4188440  
C     6.0649970   -2.0052510   -1.2775180  
N     5.3322220   -2.4202080   -2.2731380  
C     7.4159420   -2.3999900   -0.9764230  
C     7.9947640   -1.8863340    0.1354810  
O     9.2431090   -2.1725310    0.5379990  
C     7.2607370   -0.9336590    1.0380840  
O     7.8470930   -0.5182510    2.0348540  
C     5.8768740   -0.5312850    0.7002340  
H     7.9329310   -3.0972550   -1.6263060  
H     9.3771300   -1.6606190    1.3655450  
H     5.3852580    0.1578190    1.3797070  
H     3.3157060   -1.9386070   -2.8828040  
C    -6.7971580   -0.9548370    2.9383770  
C    -7.9102350   -0.8934880    2.1754040  
C    -7.4288230   -0.6963460    0.8135020  
C    -5.9338770   -0.6185880    0.9516280  
N    -5.5830190   -0.7981950    2.1957520  
C    -5.0529400   -0.3948190   -0.1862490  
C    -5.6709540   -0.4317810   -1.4088660  
O    -5.0208220   -0.3695040   -2.5742150  
C    -7.1632530   -0.5419100   -1.5768100  
O    -7.6066900   -0.5447020   -2.7239430  
C    -8.0273720   -0.6558100   -0.3903910  
H    -8.9418850   -0.9867950    2.4842440  
H    -5.7204200   -0.3940330   -3.2655720  
H    -9.0977470   -0.7337290   -0.5535890  
H    -6.7260510   -1.1051290    4.0088710  
