58


C    -0.1392810   -1.1962350   -0.4276610  
C    -0.3695900   -2.5236200   -0.6755870  
C    -1.7909770   -2.7377310   -0.6439830  
C    -2.4056530   -1.4194020   -0.3336160  
N    -1.3536680   -0.5490120   -0.1798550  
C    -3.7538940   -1.1910940   -0.1759340  
C    -4.6335190   -2.3554300   -0.4678590  
O    -5.8491580   -2.2817960   -0.4885390  
C    -3.9903310   -3.7558890   -0.7862810  
O    -4.7365870   -4.7068720   -0.9578400  
C    -2.5410720   -3.8551150   -0.8497490  
H     0.3764670   -3.2680880   -0.9133670  
H    -2.1034770   -4.8272770   -1.0544580  
H    -1.4878080    0.4512210   -0.2026850  
C     2.3098800   -0.9889900    0.0170420  
C     1.1122620   -0.4676530   -0.3824620  
C     1.3561440    0.9339220   -0.7197310  
C     2.7930620    1.1777540   -0.4576270  
N     3.3257420   -0.0409730    0.0086760  
C     3.4254320    2.3436590   -0.7171870  
C     2.6392690    3.4660900   -1.2415770  
O     3.1324260    4.5537300   -1.4852410  
C     1.1131670    3.2368380   -1.5042220  
O     0.4335960    4.1543190   -1.9321100  
C     0.5577500    1.9045020   -1.2344320  
H     4.4826690    2.5078280   -0.5495980  
H    -0.4846800    1.7532380   -1.4944020  
H     2.5252700   -1.9867970    0.3739730  
C     6.1773620   -3.2409480   -1.0531870  
C     5.0579130   -2.4744940   -1.0515240  
C     5.3335870   -1.4123170   -0.0930830  
C     6.7088980   -1.7161570    0.4050590  
N     7.1945130   -2.7843170   -0.1615740  
C     7.3731550   -0.8846850    1.3753230  
C     6.7116780    0.1987390    1.8427710  
O     7.2176510    1.0581280    2.7407220  
C     5.3159900    0.5309570    1.3958000  
O     4.7505420    1.4800610    1.9262110  
C     4.6580540   -0.3244960    0.3569810  
H     4.1694740   -2.5965060   -1.6545510  
H     8.3747780   -1.1350520    1.7059090  
H     6.5110660    1.7118460    2.9283760  
H     6.3734980   -4.1248230   -1.6481780  
C    -7.0183790   -0.0448490    2.6569560  
C    -6.0969090   -0.7717550    1.9883820  
C    -5.4233870    0.1747550    1.0991270  
C    -6.1061790    1.4732620    1.3894530  
N    -7.0332690    1.3438510    2.2917610  
C    -5.7337070    2.6979820    0.7314000  
C    -4.6994310    2.6500170   -0.1363590  
O    -4.2284270    3.7222730   -0.7978340  
C    -3.9534760    1.3760780   -0.4009250  
O    -2.9618750    1.4696210   -1.1350020  
C    -4.3860420    0.0826570    0.2148640  
H    -5.9028540   -1.8292850    2.0721930  
H    -6.2629560    3.6180930    0.9519140  
H    -3.4603160    3.4101340   -1.3203620  
H    -7.7203720   -0.3852000    3.4082030  
