58


C     1.0191650    1.6752090   -0.1961740  
C     1.7211240    0.4926910   -0.1597210  
C     0.7785030   -0.5849180   -0.2414800  
C    -0.5573440    0.0376410   -0.3478880  
N    -0.3471350    1.3910850   -0.3306680  
C    -1.7625780   -0.6278900   -0.4467380  
C    -1.6671380   -2.0961630   -0.4378250  
O    -2.6341940   -2.8358120   -0.5361590  
C    -0.2578550   -2.7847960   -0.3050780  
O    -0.2350220   -3.9989450   -0.2045670  
C     0.9582780   -1.9487990   -0.2570480  
H     2.7895640    0.4122600   -0.0647800  
H    -1.0745450    2.0885250   -0.2672400  
C     4.1594390   -1.7208510    2.7771550  
C     5.0490990   -2.6315910    2.3219770  
C     4.4669340   -3.1451220    1.0862860  
C     3.1754150   -2.3920890    0.9496250  
N     3.0047420   -1.5684460    1.9414050  
C     2.2638890   -2.6213690   -0.1630220  
C     2.6580420   -3.5563310   -1.0775810  
O     1.9600460   -3.8499810   -2.1801080  
C     3.9490980   -4.3194470   -0.9616400  
O     4.2118040   -5.1294440   -1.8490320  
C     4.8419370   -4.0708120    0.1839330  
H     5.9870930   -2.9353570    2.7654600  
H     2.4662700   -4.5615810   -2.6317640  
H     5.7580000   -4.6512800    0.2369340  
H     4.2220490   -1.1176480    3.6750670  
C    -3.2658100    1.2527120   -1.2479430  
C    -3.0359870    0.0592180   -0.6113170  
C    -4.3763670   -0.3117000   -0.0811790  
C    -5.2585870    0.8079920   -0.5089750  
N    -4.6013670    1.7047000   -1.1976820  
C    -6.6589900    0.8476520   -0.1834130  
C    -7.1673220   -0.1678810    0.5548140  
O    -8.4510570   -0.2579590    0.9410790  
C    -6.3031260   -1.3037670    1.0166570  
O    -6.8297350   -2.1861430    1.6931370  
C    -4.8690230   -1.3307420    0.6483630  
H    -7.2677900    1.6788880   -0.5215500  
H    -8.5070950   -1.0936130    1.4551550  
H    -4.2947520   -2.1929480    0.9627390  
H    -2.5517590    1.8429080   -1.8102370  
C     5.1202430    3.2688430    0.0790290  
C     4.8980670    4.6006430    0.1155930  
C     3.4492750    4.7479750    0.0388200  
C     2.9379720    3.3407740   -0.0387550  
N     3.9190730    2.4912510   -0.0170100  
C     1.5035570    3.0415190   -0.1307920  
C     0.6803660    4.1395030   -0.1503860  
O    -0.6631710    4.0721300   -0.2341350  
C     1.1761710    5.5491570   -0.0753130  
O     0.3301860    6.4449420   -0.0984590  
C     2.6198850    5.8079190    0.0215140  
H     5.6210170    5.4013620    0.1838400  
H    -0.9710000    5.0094030   -0.2230150  
H     2.9402690    6.8439930    0.0720210  
H     6.0666570    2.7435650    0.1120150  
