60


C     1.4289580    0.1079580   -0.7559800  
C     2.7116320    0.3301870   -0.2684310  
C     2.7118070    1.6839960    0.2597800  
C     1.4192620    2.2140060    0.0545360  
N     0.6455850    1.2214840   -0.5659650  
C     1.0451980    3.4962010    0.4653530  
C     2.0144540    4.2675700    1.0886650  
O     1.7130740    5.5279400    1.5069690  
C     3.3218870    3.7539290    1.2971900  
O     4.1724700    4.6360440    1.9301860  
C     3.6807150    2.4806920    0.8949830  
H     0.0585770    3.9080360    0.2918920  
H     2.5260320    5.9109180    1.8800250  
H     5.0602660    4.2501930    1.9744500  
H     4.6775410    2.0852610    1.0609470  
H     1.0243770   -0.7540290   -1.2676530  
C    -2.6366290   -1.1689450    0.8780090  
C    -3.6660460   -0.6535900    0.1419090  
C    -3.0808380    0.4072790   -0.6891690  
C    -1.6399050    0.4424700   -0.3528020  
N    -1.4341810   -0.5395760    0.5871320  
C    -0.7287060    1.3033930   -0.8968350  
C    -1.2050620    2.2857340   -1.8787710  
O    -0.4730450    3.0819850   -2.4394070  
C    -2.7442830    2.2924950   -2.2041000  
O    -3.1703750    3.1431020   -2.9657400  
C    -3.6105970    1.2885030   -1.5739850  
H    -4.6560450    1.2838760   -1.8569180  
H    -2.6592130   -1.9809070    1.5921940  
H    -0.5398110   -0.7517570    1.0040460  
C    -6.3498270   -1.5310360    3.5700380  
C    -5.3087920   -1.1415940    2.7875060  
C    -5.7085140   -1.3241730    1.4080880  
C    -7.0928020   -1.8549420    1.4544440  
N    -7.4111250   -1.9759660    2.7936290  
C    -7.8593040   -2.1382910    0.3695640  
C    -7.2900650   -1.9007120   -0.9465580  
O    -7.8960010   -2.0919950   -1.9892400  
C    -5.8122600   -1.3652580   -1.0332660  
O    -5.3222150   -1.2095840   -2.1390880  
C    -5.0633080   -1.0883180    0.2176440  
H    -4.3692710   -0.7410960    3.1359720  
H    -8.8729190   -2.5209680    0.4351250  
H    -6.4349430   -1.5281840    4.6486220  
H    -8.3092400   -2.2690270    3.1452080  
C     3.7904220   -0.6118770   -0.3075450  
C     3.8229490   -1.8863950   -0.8356780  
C     5.1407400   -2.3819910   -0.5993820  
C     5.8367450   -1.2533930    0.1164520  
N     5.0503420   -0.2309840    0.2821510  
C     7.2077920   -1.3606290    0.5394580  
C     7.8531650   -2.5187720    0.2666480  
O     9.1245010   -2.7722920    0.5931710  
C     7.1792190   -3.6766110   -0.4552800  
O     7.8783470   -4.6783630   -0.6403760  
C     5.7955350   -3.5461380   -0.8719770  
H     3.0248000   -2.4107130   -1.3430330  
H     7.6894630   -0.5361160    1.0532120  
H     9.2869320   -3.6864720    0.2581160  
H     5.3438370   -4.3889050   -1.3857000  
