62


C    -0.2550640    1.9399360    0.2279010  
C     1.1113070    1.7107990    0.1664250  
C     1.3109990    0.3372510   -0.1545920  
C     0.0244890   -0.2489110   -0.2946650  
N    -0.9095950    0.7490210   -0.0969940  
C    -0.1913020   -1.6095480   -0.5887380  
C     0.9641050   -2.3793180   -0.7461590  
O     0.8595410   -3.7049000   -1.0338900  
C     2.2608340   -1.8082130   -0.6271120  
O     3.2764530   -2.7167060   -0.8140070  
C     2.4716870   -0.4602760   -0.3459450  
H     1.8798160    2.4578070    0.3026870  
H    -1.8716520    0.5557080    0.1418900  
H     1.7642890   -4.0651350   -1.0673510  
H     4.1227320   -2.2912910   -0.5881320  
C     4.7575510    1.3749180    3.0880540  
C     3.7880040    0.7954980    2.3114170  
C     4.3447510    0.6267340    0.9986990  
C     5.6742670    1.1254800    1.0442470  
N     5.8960370    1.5754190    2.3292260  
C     6.5333260    1.1097290   -0.0615370  
C     6.0399740    0.5816590   -1.2433650  
O     6.8258380    0.5534410   -2.3583500  
C     4.7173310    0.0709430   -1.3122240  
O     4.3694450   -0.4119330   -2.5584480  
C     3.8531600    0.0778160   -0.2151110  
H     2.7936670    0.5221030    2.6332490  
H     6.7553790    1.9828450    2.6628610  
H     7.5469770    1.4959250   -0.0277520  
H     6.2826220    0.1971540   -3.0828660  
H     3.4080070   -0.5558450   -2.5805430  
H     4.7349610    1.6650080    4.1290190  
C    -0.5630920    4.2383060    1.2454540  
C    -0.9793270    3.1419500    0.5401930  
C    -2.3661980    3.4845660    0.1325330  
C    -2.5941060    4.8321800    0.7146700  
N    -1.5326950    5.2599480    1.3494520  
C    -3.8396160    5.5264320    0.5397640  
C    -4.8091360    4.9287190   -0.1984430  
O    -6.0187880    5.4710390   -0.4349100  
C    -4.5992900    3.5898150   -0.8249760  
O    -5.5158670    3.0979180   -1.4862860  
C    -3.3059870    2.8954790   -0.6300770  
H    -3.9798900    6.5051420    0.9853890  
H    -6.4924980    4.8185000   -0.9942380  
H    -3.1894270    1.9407550   -1.1332760  
H     0.3969380    4.3792860    1.7264910  
C    -2.5414790   -1.6904890   -1.5272970  
C    -1.5466160   -2.1721980   -0.7255590  
C    -2.1141480   -3.3218950   -0.0196200  
C    -3.5144000   -3.4556920   -0.4905320  
N    -3.7094810   -2.4308790   -1.3963450  
C    -4.3822460   -4.4118520   -0.0717470  
C    -3.9215530   -5.3781510    0.9200220  
O    -4.6266760   -6.2743420    1.3582720  
C    -2.4457040   -5.2450130    1.4472600  
O    -2.0430220   -6.0362030    2.2849540  
C    -1.6044610   -4.1691160    0.9094280  
H    -5.4031580   -4.4913940   -0.4325990  
H    -0.5835620   -4.0997450    1.2672480  
H    -2.5043020   -0.8620760   -2.2231570  
H    -4.5545010   -2.2810540   -1.9251640  
