60


C    -1.4305130   -1.6105050    3.0383570  
C    -0.4934860   -0.9298510    2.3084970  
C    -1.1977850   -0.1409810    1.3388090  
C    -2.5815240   -0.3750440    1.5499350  
N    -2.6919640   -1.2700370    2.5910750  
C    -3.6166050    0.2251070    0.7938840  
C    -3.1814750    1.1180180   -0.1922630  
O    -4.0856070    1.7824800   -0.9664600  
C    -1.8095650    1.3971520   -0.4043810  
O    -1.5838570    2.2972240   -1.4274180  
C    -0.7901530    0.7680320    0.3215750  
H     0.5755700   -0.9970080    2.4372900  
H    -3.5585670   -1.6902050    2.8892460  
H    -3.5496690    2.3686980   -1.5369370  
H    -0.9669500    2.9851270   -1.0969730  
H    -1.3073070   -2.3106590    3.8523470  
C     2.5885640   -1.9448320   -0.4828790  
C     3.6438360   -1.0940870   -0.6122110  
C     3.0433620    0.2473020   -0.4402810  
C     1.6009630   -0.0232150   -0.1780010  
N     1.3502250   -1.2999910   -0.2260120  
C     0.6295730    1.0516840    0.0367550  
C     1.1318970    2.3122730   -0.1179530  
O     0.3703120    3.4380640    0.0052890  
C     2.5507130    2.6137500   -0.4204830  
O     2.8852450    3.7980910   -0.5188610  
C     3.5091860    1.5009150   -0.5785060  
H     1.0019740    4.1817230   -0.1369100  
H     4.5385390    1.7588270   -0.8062370  
H     2.6067560   -3.0268940   -0.5383740  
C     5.4151440   -2.3385470   -1.8829200  
C     5.0210920   -1.4188880   -0.9492620  
C     6.2499600   -0.8907760   -0.3546780  
C     7.3743780   -1.5817660   -1.0345210  
N     6.7939330   -2.4545460   -1.9363610  
C     8.6870650   -1.3632650   -0.7725950  
C     9.0366960   -0.3919100    0.2613560  
O    10.1890930   -0.1229450    0.5608530  
C     7.8640000    0.3252500    1.0229540  
O     8.1300720    1.1234430    1.9063170  
C     6.4831050    0.0053910    0.6390150  
H     9.4925160   -1.8811870   -1.2842150  
H     5.6872270    0.5051750    1.1813730  
H     4.7944090   -2.9281180   -2.5446930  
H     7.3029860   -3.0234320   -2.5950980  
C    -5.6240760   -0.2080580    2.2896720  
C    -5.0273760   -0.0456060    1.0708210  
C    -6.1306120   -0.2839180    0.1086580  
C    -7.3121590   -0.5734730    0.9685600  
N    -7.0075460   -0.5199920    2.2366990  
C    -8.6044130   -0.8718230    0.4085450  
C    -8.7175240   -0.9057560   -0.9406870  
O    -9.8572340   -1.1770600   -1.5997980  
C    -7.5400920   -0.6385580   -1.8334670  
O    -7.7191530   -0.6911470   -3.0498390  
C    -6.2256350   -0.3224640   -1.2330810  
H    -9.4452970   -1.0692270    1.0642320  
H    -9.6222210   -1.1268980   -2.5524580  
H    -5.4079960   -0.1058630   -1.9099910  
H    -5.1647280   -0.0825990    3.2635910  
