58


C     2.0370960   -0.3705870   -0.5194810  
C     1.1629320    0.5664830   -0.0617530  
C     1.9769540    1.7088990    0.3635370  
C     3.3928650    1.3037820    0.1760520  
N     3.3725870    0.0286580   -0.4004380  
C     4.4610610    2.0567890    0.5447580  
C     4.2180210    3.3777140    1.1233130  
O     5.1211710    4.1212920    1.4729700  
C     2.7302810    3.8445310    1.2859400  
O     2.5041960    4.9478760    1.7534640  
C     1.6606720    2.9216910    0.8805060  
H     5.4895330    1.7234830    0.4661690  
H     0.6363400    3.2521220    1.0036690  
H     1.8202400   -1.3297510   -0.9638660  
C     7.3109760    0.2871010   -2.2869880  
C     7.8000550   -0.9181270   -1.9020400  
C     6.7625890   -1.5853660   -1.1427990  
C     5.6166520   -0.6467610   -1.1153460  
N     6.0016110    0.4584740   -1.8321870  
C     4.4324480   -0.8971470   -0.4725130  
C     4.2744660   -2.1960520    0.1910770  
O     3.2474920   -2.5381500    0.7669510  
C     5.4808420   -3.2082810    0.1465320  
O     5.3312440   -4.2948380    0.6803400  
C     6.7017030   -2.8066660   -0.5445740  
H     8.7794680   -1.3151090   -2.1246260  
H     7.5285380   -3.5091540   -0.5573950  
H     7.7801130    1.0691350   -2.8685130  
H     5.4544440    1.3010050   -1.9295360  
C    -0.8945730   -2.9599700    1.4224230  
C    -2.1886260   -2.5622760    1.2881260  
C    -2.1776710   -1.2169780    0.7621210  
C    -0.7549060   -0.8670650    0.5802660  
N    -0.0299390   -1.9598450    1.0042050  
C    -0.2721660    0.3295640    0.0909510  
C    -1.2720030    1.3242490   -0.2771030  
O    -0.9956460    2.4321600   -0.7149990  
C    -2.7994020    0.9644920   -0.1312330  
O    -3.5989830    1.8102600   -0.4943170  
C    -3.2030290   -0.3414530    0.4463610  
H    -3.0600800   -3.1574710    1.5100950  
H    -0.4945980   -3.8991470    1.7800340  
H     0.9819800   -2.0101800    1.0532070  
C    -5.0933430   -1.3495780    1.7796500  
C    -4.5993380   -0.6273940    0.7201310  
C    -5.8191250   -0.2649200   -0.0485960  
C    -6.9303110   -0.8901810    0.7227520  
N    -6.4901640   -1.5049810    1.7920630  
C    -8.3019210   -0.7987910    0.3057880  
C    -8.5714200   -0.1317040   -0.8425380  
O    -9.8002800    0.0272470   -1.3568250  
C    -7.4752160    0.4955990   -1.6552520  
O    -7.7918470    1.0729710   -2.6935640  
C    -6.0726690    0.4018550   -1.1906720  
H    -9.0790490   -1.2636740    0.9021680  
H    -9.6720460    0.5444130   -2.1826730  
H    -5.3225420    0.9042930   -1.7878050  
H    -4.5231440   -1.7573800    2.6050270  
