60


C     2.6999700   -1.4385310    0.6331730  
C     3.7208450   -0.5245610    0.3991200  
C     3.0687430    0.7395290    0.1015570  
C     1.6760980    0.5100900    0.1772110  
N     1.4881280   -0.8213880    0.5103270  
C     0.7281940    1.5245480   -0.0503550  
C     1.2143300    2.7963210   -0.3521380  
O     0.3417970    3.8178130   -0.5701050  
C     2.6107450    3.0328670   -0.4151780  
O     2.9267940    4.3402400   -0.7152190  
C     3.5378010    2.0310010   -0.1976810  
H     0.5922600   -1.2832090    0.5693780  
H     0.8726800    4.6059770   -0.7840630  
H     3.8871790    4.4289390   -0.8104380  
H     4.6061100    2.2144420   -0.2459050  
H     2.7589020   -2.4893530    0.8774400  
C    -1.5307480    1.9669390    0.9166010  
C    -2.8088690    1.5214940    0.7948230  
C    -2.8178180    0.4985560   -0.2208050  
C    -1.4162010    0.3754190   -0.6839940  
N    -0.6696000    1.2927960    0.0500040  
C    -0.9852130   -0.4990740   -1.6327030  
C    -1.9590370   -1.4100700   -2.2213540  
O    -1.6550100   -2.2809600   -3.0216690  
C    -3.4664860   -1.2515530   -1.8156470  
O    -4.2974880   -1.8696740   -2.4522600  
C    -3.8225610   -0.2948800   -0.7307530  
H    -3.6565660    1.8608740    1.3689150  
H     0.0448020   -0.5567690   -1.9672480  
H    -1.1250830    2.7292660    1.5664490  
C    -5.2049780   -0.2030530   -0.2927840  
C    -5.9220230    0.9153620    0.0421190  
C    -7.2377910    0.4434550    0.4120500  
C    -7.1457560   -1.0451720    0.2635190  
N    -5.9725210   -1.4188800   -0.1489810  
C    -8.2656990   -1.9013820    0.5667030  
C    -9.4160730   -1.3135300    0.9695460  
O   -10.5390400   -1.9801580    1.2768340  
C    -9.5420080    0.1850640    1.1132180  
O   -10.6284170    0.6257980    1.4899720  
C    -8.3848210    1.0381040    0.8135760  
H    -5.6069700    1.9468230   -0.0284200  
H    -8.1723180   -2.9759000    0.4562280  
H   -11.1893790   -1.2864380    1.5279560  
H    -8.5110060    2.1091610    0.9394290  
C     5.1284320   -0.8018790    0.4510830  
C     5.7798560   -1.9816210    0.7314850  
C     7.1786190   -1.6938370    0.6444520  
C     7.2338220   -0.2313120    0.2875930  
N     6.0435070    0.2802170    0.1771030  
C     8.4852500    0.4550220    0.1059740  
C     9.6190330   -0.2662760    0.2682830  
O    10.8543730    0.2256700    0.1341790  
C     9.5972710   -1.7443610    0.6286820  
O    10.6975910   -2.2894810    0.7494380  
C     8.3202030   -2.4166060    0.8070940  
H     5.3389700   -2.9397740    0.9693300  
H     8.5013250    1.5082830   -0.1511350  
H    11.4491460   -0.5408390    0.3134030  
H     8.3397630   -3.4711240    1.0633290  
