58


C     3.5070190   -0.1124590    0.2010040  
C     4.3263820    0.8901580    0.6809770  
C     3.5576430    2.1001000    0.7492800  
C     2.1969670    1.7512390    0.2761390  
N     2.2363380    0.4139710   -0.0417070  
C     1.1585010    2.6351310    0.1695040  
C     1.4163830    4.0228370    0.6124880  
O     0.5360570    4.8627430    0.6778790  
C     2.8642350    4.4148290    1.0773520  
O     3.0883740    5.5755960    1.3864190  
C     3.8805860    3.3691590    1.1319030  
H     5.3453970    0.7797100    1.0164800  
H     4.8758300    3.6460330    1.4662230  
H     1.4572310   -0.1762850   -0.3032960  
C     7.2828700   -2.3902270   -0.4654470  
C     6.3542220   -1.3996760   -0.3257170  
C     5.0682230   -2.0268300   -0.1786170  
C     5.3202270   -3.4850220   -0.2564240  
N     6.6873580   -3.6348060   -0.4015520  
C     4.3706980   -4.4528300   -0.1849500  
C     2.9847470   -4.0331040   -0.0584150  
O     2.0498700   -4.8095990    0.0483820  
C     2.6726260   -2.4937010   -0.0725810  
O     1.4941950   -2.1678640   -0.1434560  
C     3.7883300   -1.5207390   -0.0124180  
H     6.5559640   -0.3419700   -0.3710540  
H     4.5915580   -5.5150620   -0.2122140  
H     8.3512080   -2.3069250   -0.6148870  
H     7.1577150   -4.5169290   -0.5333940  
C    -1.8992800   -0.3615740    1.3764530  
C    -0.7974320    0.4185860    1.2887720  
C    -0.9708220    1.3035520    0.1562920  
C    -2.2971310    0.9820140   -0.4172850  
N    -2.8159720   -0.0774920    0.3513490  
C    -2.8852030    1.6805980   -1.4166260  
C    -2.1370460    2.7767380   -2.0274950  
O    -2.6003040    3.4823250   -2.9086860  
C    -0.6722620    3.0381340   -1.5398530  
O     0.0275370    3.8059070   -2.1726090  
C    -0.1728360    2.2920860   -0.3526200  
H     0.0601740    0.3764450    1.9430990  
H    -3.8768110    1.4732810   -1.7987950  
H    -2.1306900   -1.1526330    2.0755900  
C    -6.0019400   -1.1423490    3.2200140  
C    -4.8621140   -0.6065080    2.7159890  
C    -4.8800990   -0.9498730    1.2985610  
C    -6.1404150   -1.7231670    1.1282090  
N    -6.7922900   -1.8309240    2.2532260  
C    -6.5552420   -2.2441510   -0.1500620  
C    -5.7577520   -2.0140390   -1.2169850  
O    -6.0281540   -2.4329390   -2.4652780  
C    -4.4631500   -1.2627960   -1.0932220  
O    -3.7573240   -1.1708910   -2.0911640  
C    -4.0656510   -0.6976770    0.2393310  
H    -4.1191320   -0.0181270    3.2351470  
H    -7.4841980   -2.7969330   -0.2327150  
H    -5.2587550   -2.1671730   -3.0127420  
H    -6.3632400   -1.0915250    4.2401310  
