60


C    -0.2602340    0.7422120    2.9232400  
C    -1.0280100   -0.2094790    2.3051830  
C    -0.1722590   -0.9277230    1.4023860  
C     1.1272950   -0.3760660    1.5480800  
N     1.0423670    0.6326070    2.4830020  
C     2.2655790   -0.8190120    0.8332260  
C     2.0310970   -1.8862890   -0.0403610  
O     3.0567920   -2.4268910   -0.7583560  
C     0.7467140   -2.4627230   -0.1977800  
O     0.7113780   -3.4894150   -1.1236820  
C    -0.3813350   -1.9901480    0.4815840  
H    -2.0815040   -0.3762430    2.4710410  
H     1.7808740    1.2933140    2.6723670  
H     2.6574780   -3.1657050   -1.2585450  
H     0.2488640   -4.2510490   -0.7173320  
H    -0.5309290    1.4951720    3.6491670  
C    -4.1738050   -0.0677880   -0.6309670  
C    -5.0154680   -1.1419420   -0.7995290  
C    -4.2105180   -2.2866750   -0.4983240  
C    -2.8593590   -1.7202870   -0.1417820  
N    -2.8589960   -0.4230670   -0.2298710  
C    -1.7185480   -2.5618380    0.2113360  
C    -1.9822340   -3.8977000    0.1725750  
O    -1.0489970   -4.8461720    0.4240350  
C    -3.3239570   -4.4988480   -0.1556280  
O    -3.3905770   -5.7330310   -0.1226680  
C    -4.4357680   -3.6261200   -0.4901270  
H    -6.0585000   -1.1508950   -1.0780040  
H    -1.5430340   -5.6998990    0.3367430  
H    -5.3866330   -4.0869370   -0.7362920  
C    -5.6353530    1.7295540   -1.4143720  
C    -5.6817120    3.0790260   -1.4572800  
C    -4.4685610    3.5833660   -0.8503750  
C    -3.6784190    2.3974820   -0.4425380  
N    -4.4473440    1.2672310   -0.8198370  
C    -2.4851320    2.4731630    0.1904910  
C    -1.9452180    3.8057370    0.4951080  
O    -0.8984410    3.9581530    1.1037700  
C    -2.7493890    5.0700160    0.0361810  
O    -2.2954560    6.1812130    0.2554100  
C    -4.0338430    4.8506800   -0.6340670  
H    -6.4798130    3.6752790   -1.8764010  
H    -1.9175120    1.6047380    0.4963840  
H    -4.6060050    5.7238190   -0.9324280  
H    -6.3515190    1.0098340   -1.7824240  
C     4.1363720    0.1903590    2.2246230  
C     3.5862570   -0.2243620    1.0449010  
C     4.6105040    0.1379090    0.0359990  
C     5.7059740    0.7601910    0.8316050  
N     5.4229580    0.7793500    2.1052900  
C     6.9043490    1.2623660    0.2111870  
C     7.0041690    1.1750220   -1.1365170  
O     8.0590010    1.6075570   -1.8490080  
C     5.9080500    0.5716070   -1.9669320  
O     6.0697820    0.5289520   -3.1861650  
C     4.6919830    0.0521680   -1.3043660  
H     7.6854660    1.7020480    0.8215020  
H     7.8362440    1.4088060   -2.7850340  
H     3.9370200   -0.4020400   -1.9347520  
H     3.7134370    0.0808350    3.2166630  
