58


C    -1.8493730   -0.2879210    0.7247230  
C    -0.9083760    0.6745360    0.5315290  
C    -1.5981710    1.9168870    0.1940910  
C    -3.0415190    1.5980590    0.1938790  
N    -3.1310790    0.2483580    0.5448250  
C    -4.0294450    2.4794160   -0.0818940  
C    -3.6502310    3.8608220   -0.3953780  
O    -4.4662060    4.7272600   -0.6564130  
C    -2.1226090    4.2296860   -0.3838450  
O    -1.7833810    5.3730560   -0.6320160  
C    -1.1512420    3.1695900   -0.0714040  
H    -5.0819580    2.2173100   -0.0798850  
H    -0.0997440    3.4384180   -0.0593130  
H    -1.7374090   -1.3313250    0.9840060  
C    -5.0394770   -0.5695030    1.8625160  
C    -6.1089300   -1.3721160    1.6672730  
C    -6.0811970   -1.8264050    0.2866850  
C    -4.8850700   -1.2159180   -0.3366010  
N    -4.2919780   -0.4533540    0.6728090  
C    -4.4918590   -1.3983290   -1.6178920  
C    -5.3105720   -2.2674150   -2.4674700  
O    -5.0377650   -2.4999960   -3.6327220  
C    -6.5924470   -2.9237690   -1.8361830  
O    -7.2884140   -3.6478680   -2.5269990  
C    -6.9005340   -2.6391630   -0.4276510  
H    -6.8554930   -1.6305870    2.4043860  
H    -3.6099640   -0.9356630   -2.0481300  
H    -7.7866030   -3.1007500   -0.0026930  
H    -4.7061910   -0.0374400    2.7432470  
C     1.4125350    0.8782130   -0.3353460  
C     2.6935680    0.6123350    0.0471830  
C     2.6096250    0.0422420    1.3924410  
C     1.1712790   -0.0004750    1.7453370  
N     0.4821300    0.5321910    0.6551210  
C     0.6854800   -0.4616200    2.9242310  
C     1.6306020   -0.9435800    3.9300860  
O     1.2786770   -1.3765750    5.0156860  
C     3.1606610   -0.8897680    3.5864030  
O     3.9706720   -1.2800920    4.4099140  
C     3.5588360   -0.3644570    2.2732080  
H    -0.3703590   -0.4762780    3.1709960  
H     4.6208840   -0.3127430    2.0576380  
H     1.0584940    1.2740880   -1.2776100  
C     4.1789560    2.0068170   -1.4568330  
C     3.8898940    0.8857060   -0.7372140  
C     5.0303500   -0.0144130   -1.0026900  
C     5.9125380    0.7766900   -1.9145740  
N     5.4032060    1.9490960   -2.1742810  
C     7.1510030    0.2441970   -2.4169290  
C     7.4898780   -1.0184760   -2.0610960  
O     8.6095850   -1.6392030   -2.4603070  
C     6.6073590   -1.8511150   -1.1709020  
O     6.9746040   -2.9913040   -0.9003510  
C     5.3434180   -1.2769130   -0.6563500  
H     7.7744290    0.8474120   -3.0674010  
H     8.5796610   -2.5321770   -2.0523460  
H     4.7387770   -1.9133420   -0.0179670  
H     3.5877500    2.9137660   -1.5145830  
