60


C     0.3518230    2.3123540    0.1085010  
C    -0.8912530    1.7531330   -0.0838800  
C    -0.7151940    0.3313920    0.0351020  
C     0.7329020    0.1693570    0.3120690  
N     1.3507250    1.3113980    0.3452080  
C     1.3424730   -1.1422930    0.5138870  
C     0.4819380   -2.2047960    0.5452040  
O     0.8674030   -3.4661270    0.8265530  
C    -0.9704580   -2.0699330    0.2711420  
O    -1.6377570   -3.1102830    0.3273490  
C    -1.5745090   -0.7401690   -0.0448150  
H    -1.8053770    2.2920050   -0.2658320  
H     0.0443340   -3.9995370    0.7572760  
C    -1.9657420    5.8388380   -1.0985850  
C    -1.0800240    6.8419630   -0.9123120  
C     0.1239360    6.1944670   -0.4084260  
C    -0.2281350    4.7360760   -0.3531850  
N    -1.4488220    4.5465640   -0.7603960  
C     0.7223670    3.7125690    0.0970420  
C     1.9544940    4.1928750    0.4930020  
O     2.9505740    3.4496290    0.9785700  
C     2.3139830    5.6537280    0.4403850  
O     3.4434480    5.9704870    0.8172030  
C     1.3364790    6.6417770   -0.0375710  
H    -1.2134890    7.8996770   -1.0910170  
H     3.6785820    4.0914540    1.1548620  
H     1.6463720    7.6821030   -0.0595520  
H    -2.9840990    5.9019210   -1.4625570  
C    -3.4445600    0.2927840   -1.3559460  
C    -2.9556530   -0.6347380   -0.4620090  
C    -4.1620870   -1.4026190   -0.0648740  
C    -5.2661660   -0.7549310   -0.8317690  
N    -4.8238150    0.2205140   -1.5884590  
C    -6.6326470   -1.1784610   -0.7220310  
C    -6.9128140   -2.1935290    0.1316690  
O    -8.1388950   -2.6906070    0.3409700  
C    -5.8298870   -2.8565610    0.9377920  
O    -6.1606810   -3.7630430    1.6989670  
C    -4.4280450   -2.4071830    0.7922180  
H    -7.3999560   -0.6820670   -1.3054270  
H    -8.0226470   -3.4036680    1.0077470  
H    -3.6789090   -2.9325990    1.3697960  
H    -2.8622960    1.0215610   -1.9060590  
C     3.5048510   -0.3868140    1.4627230  
C     4.8037030   -0.7942220    1.4491750  
C     4.8853260   -1.9606320    0.6106050  
C     3.5767330   -2.2332550    0.1423200  
N     2.7248910   -1.2578090    0.6884960  
C     3.3130750   -3.2589400   -0.7705050  
C     4.3802180   -4.0468470   -1.1820830  
O     4.1632230   -5.0671800   -2.0656080  
C     5.6883720   -3.8036700   -0.7011890  
O     6.6447250   -4.6694070   -1.1980770  
C     5.9505730   -2.7697330    0.1826720  
H     5.6204590   -0.3131560    1.9701060  
H     2.3243120   -3.4715680   -1.1525180  
H     5.0225200   -5.4921110   -2.2288360  
H     7.5097030   -4.4394730   -0.8281050  
H     6.9664980   -2.5808060    0.5244770  
H     3.0403800    0.4619090    1.9362960  
