62


C    -1.6610200   -1.7350530    0.1927030  
C    -3.0028540   -1.4997580    0.2154770  
C    -3.2014260   -0.0856780    0.0406760  
C    -1.9129360    0.4960990   -0.0844900  
N    -0.9679970   -0.5328280    0.0365650  
C    -1.7239290    1.8421000   -0.3921140  
C    -2.8626740    2.6206510   -0.5644630  
O    -2.7357980    3.9406360   -0.8671000  
C    -4.1598090    2.0733700   -0.4420680  
O    -5.1724560    2.9918190   -0.6182970  
C    -4.3629940    0.7260690   -0.1061030  
H    -3.7654240   -2.2535890    0.3423650  
H    -0.7474630    2.2917090   -0.5060780  
H    -3.6472790    4.2747240   -0.9716550  
H    -5.8303650    2.5800610   -1.2174190  
H    -1.1121670   -2.6588280    0.2701310  
C     1.8132150   -2.9854580   -2.1225250  
C     2.9984310   -2.3986670   -1.8045050  
C     2.6666370   -1.3075150   -0.9011450  
C     1.2038500   -1.3801750   -0.7957560  
N     0.7058820   -2.3672600   -1.5005900  
C     0.4275720   -0.4247200   -0.0113830  
C     1.1272110    0.5511360    0.6405670  
O     0.5463950    1.4886200    1.4260450  
C     2.5914740    0.6660750    0.5346190  
O     3.1111960    1.6231380    1.1339340  
C     3.4006500   -0.3598800   -0.2201140  
H     3.9724030   -2.6498220   -2.1962800  
H     1.2873240    2.0531010    1.7345990  
H     1.6397980   -3.8268810   -2.7821780  
C     4.8344550   -0.2966860   -0.1573900  
C     5.7935030   -1.2518660   -0.5286800  
C     7.0685250   -0.7201430   -0.2456950  
C     6.8626320    0.5814720    0.3118150  
N     5.5171510    0.8051060    0.3508140  
C     7.9236860    1.4012590    0.7183070  
C     9.2054800    0.9028090    0.5622280  
O    10.2728250    1.6492900    0.9383650  
C     9.4312700   -0.3990990    0.0065750  
O    10.7662780   -0.7278210   -0.0740970  
C     8.3920940   -1.2052140   -0.3925380  
H     5.5820960   -2.2379290   -0.9115070  
H     5.0249190    1.5883770    0.7618100  
H     7.7770970    2.3886470    1.1422530  
H    11.0763430    1.1316350    0.7527250  
H    10.8658520   -1.6144640   -0.4520020  
H     8.5817820   -2.1903750   -0.8125560  
C    -6.2180800   -1.8428770    3.0458660  
C    -5.3508440   -1.0374070    2.3907860  
C    -6.0384900   -0.6503610    1.1589110  
C    -7.3520950   -1.3425770    1.2552110  
N    -7.4541530   -2.0445880    2.3480700  
C    -8.3573900   -1.2172350    0.2296050  
C    -8.0838400   -0.4055320   -0.8152400  
O    -8.9417910   -0.1662850   -1.8258660  
C    -6.7935530    0.3514990   -0.9044750  
O    -6.6963180    1.1463150   -1.8501340  
C    -5.7035140    0.1410050    0.0987520  
H    -4.3653110   -0.7222790    2.6990050  
H    -9.2999360   -1.7451850    0.3213000  
H    -8.4935530    0.4822600   -2.4083960  
H    -6.0863680   -2.3257270    4.0065710  
