58


C     1.0137840    0.8257970   -0.4152910  
C     1.2368810    2.1665090   -0.6482250  
C     2.6556690    2.3844130   -0.6620830  
C     3.2743030    1.0612110   -0.4096950  
N     2.2355500    0.1705030   -0.2393030  
C     4.6222140    0.8405760   -0.3188420  
C     5.4980380    1.9912490   -0.6502980  
O     6.6917820    1.8722820   -0.8582870  
C     4.8552060    3.4135870   -0.8119660  
O     5.5922380    4.3821350   -0.9235920  
C     3.4009350    3.5128330   -0.8371790  
H     0.4890490    2.9147040   -0.8610730  
H     2.9586700    4.4935400   -0.9842390  
H     2.3177130   -0.8289070   -0.4032570  
C    -3.1035660    2.0843330    0.6116380  
C    -1.7610860    2.0024120    0.4479210  
C    -1.4522820    0.6862220   -0.0494670  
C    -2.7438320   -0.0287060   -0.1481290  
N    -3.7425770    0.8938820    0.2501140  
C    -2.8740450   -1.3150290   -0.5526340  
C    -1.6564760   -2.0559260   -0.8741770  
O    -1.6694390   -3.2096550   -1.2677100  
C    -0.2728050   -1.3499230   -0.6911910  
O     0.7332220   -2.0347870   -0.8069300  
C    -0.2461530    0.0982800   -0.3759710  
H    -1.0520660    2.7758370    0.6972350  
H    -3.8318860   -1.8079560   -0.6375550  
H    -3.6902320    2.9100640    0.9849230  
C    -5.1115180    0.7251740    0.3134970  
C    -6.0541590    1.6624410    0.6749590  
C    -7.3051070    0.9757860    0.5769220  
C    -6.9372400   -0.4150240    0.1277730  
N    -5.6455990   -0.5420250   -0.0218400  
C    -7.9227430   -1.4307470   -0.0915950  
C    -9.2174330   -1.0877350    0.1215150  
O   -10.2487210   -1.9137050   -0.0376650  
C    -9.6277900    0.3101480    0.5750230  
O   -10.8359970    0.4926630    0.7328930  
C    -8.6041500    1.3196270    0.7902900  
H    -5.9133810    2.6931020    0.9629230  
H    -7.6298970   -2.4235050   -0.4138630  
H   -11.0452150   -1.3772180    0.1907570  
H    -8.9273880    2.3038560    1.1131020  
C     7.6888360   -0.1294910    2.6507370  
C     7.9201630   -1.4408710    2.4196600  
C     6.9872370   -1.8081680    1.3571180  
C     6.2778570   -0.5293510    1.0372970  
N     6.6688630    0.4342320    1.8126320  
C     5.2373290   -0.4534880    0.0124460  
C     4.8837250   -1.6418780   -0.5535870  
O     3.9102070   -1.7596840   -1.4826140  
C     5.5577830   -2.9398080   -0.2313240  
O     5.1680870   -3.9459400   -0.8246370  
C     6.6484470   -2.9660820    0.7602690  
H     8.6206300   -2.0980950    2.9158050  
H     3.8770920   -2.7177310   -1.7057830  
H     7.1040620   -3.9286440    0.9721020  
H     8.1700270    0.5181230    3.3735730  
