62


C    -1.8619600   -0.4790670    1.3526980  
C    -0.7374170    0.2805790    1.2892060  
C    -0.8955800    1.2084670    0.1985520  
C    -2.1572200    0.9473570   -0.3881590  
N    -2.7463710   -0.1145200    0.3248450  
C    -2.6919940    1.7329120   -1.4109380  
C    -1.9206680    2.7921210   -1.8617310  
O    -2.3851130    3.5950310   -2.8567240  
C    -0.6506180    3.0731250   -1.2996490  
O    -0.0083610    4.1450790   -1.8820530  
C    -0.1011920    2.2853550   -0.2786150  
H     0.1338730    0.1578700    1.9124090  
H    -3.6594640    1.5519860   -1.8594910  
H    -1.6922210    4.2689940   -2.9934330  
H     0.3061930    4.7376240   -1.1667490  
H    -2.1155840   -1.3066900    1.9975020  
C     3.4384220   -0.2910170    0.4362470  
C     4.3449210    0.6315910    0.8947230  
C     3.6488070    1.8920290    0.9344410  
C     2.2708990    1.5672140    0.4345070  
N     2.1530370    0.3081970    0.1537040  
C     1.2349050    2.5948260    0.2792120  
C     1.6317930    3.8488120    0.6314710  
O     0.8277450    4.9425080    0.5380430  
C     2.9899340    4.1974490    1.1597350  
O     3.1865620    5.3840870    1.4474290  
C     3.9944680    3.1495390    1.2987580  
H     5.3500290    0.4500950    1.2505300  
H     1.3904810    5.6825110    0.8756100  
H     4.9737940    3.4346520    1.6699500  
C     6.9724130   -2.3702220   -1.1597900  
C     6.4545860   -3.6387680   -1.1630460  
C     5.1203090   -3.5479880   -0.6433730  
C     4.8860170   -2.1872930   -0.3276110  
N     6.0342160   -1.4954710   -0.6420710  
C     3.6452550   -1.6997620    0.1604700  
C     2.6377050   -2.6667680    0.3442740  
O     1.4468850   -2.3217200    0.8859300  
C     2.8708420   -4.0335920    0.0403150  
O     1.7822180   -4.8445070    0.2983150  
C     4.0845060   -4.4820350   -0.4419290  
H     6.9608790   -4.5333070   -1.4984060  
H     6.1068360   -0.4892400   -0.6375470  
H     0.8772350   -3.1115190    0.8612000  
H     1.9583180   -5.7411500   -0.0225150  
H     4.2337640   -5.5375400   -0.6603180  
H     7.9417980   -2.0095830   -1.4730400  
C    -5.9481880   -1.2666210    3.1443240  
C    -4.7885230   -0.7470910    2.6687070  
C    -4.8341920   -0.9750480    1.2274820  
C    -6.1273980   -1.6651700    1.0138330  
N    -6.7776980   -1.8328490    2.1350480  
C    -6.5857550   -2.0566960   -0.2969410  
C    -5.7934520   -1.7731770   -1.3537170  
O    -6.0984530   -2.0726340   -2.6313790  
C    -4.4641210   -1.0982620   -1.1888340  
O    -3.7696560   -0.9629030   -2.1909530  
C    -4.0168280   -0.6653180    0.1810800  
H    -4.0081220   -0.2427990    3.2197290  
H    -7.5415580   -2.5562970   -0.4089470  
H    -5.3201560   -1.7947640   -3.1602090  
H    -6.2970520   -1.2827820    4.1699680  
