62


C    -0.8041610    1.9110400   -0.1406320  
C    -1.5870240    0.7972780    0.1526480  
C    -2.9491480    1.1333730   -0.1005840  
C    -2.9487660    2.4783590   -0.5675140  
N    -1.6447620    2.9170640   -0.5793940  
C    -4.1065260    3.1517530   -0.9572740  
C    -5.2932000    2.4349540   -0.9013340  
O    -6.4606530    3.0134600   -1.2857450  
C    -5.3316740    1.0862940   -0.4530760  
O    -6.5963510    0.5459260   -0.4596480  
C    -4.1838340    0.4171890   -0.0125580  
H    -1.2294650   -0.1124590    0.6075490  
H    -1.3295640    3.8597880   -0.7540670  
H    -4.1037630    4.1758740   -1.3156280  
H    -7.1345000    2.3113560   -1.1875750  
H    -6.5271090   -0.3508750   -0.8844060  
C     2.4147190   -1.0466500   -0.4162440  
C     3.4976950   -0.2221420   -0.1446710  
C     2.9434810    1.1116690    0.0378810  
C     1.5390110    1.0016040   -0.1071410  
N     1.2557740   -0.3271750   -0.3638550  
C     0.6403160    2.0928360   -0.0462170  
C     1.2449330    3.3491350    0.1003780  
O     0.4778410    4.4870160    0.1320840  
C     2.6445920    3.4818990    0.2291710  
O     3.0624290    4.7928840    0.3780890  
C     3.4977600    2.3945060    0.2090670  
H     0.3455900   -0.6622600   -0.6426820  
H     1.0853050    5.2326080    0.2854080  
H     4.0112910    4.8075710    0.5715510  
H     4.5658640    2.5300300    0.3303500  
H     2.4111830   -2.0976950   -0.6532910  
C     5.4115070   -3.5743690   -2.2298310  
C     6.6928600   -3.4852830   -1.8115860  
C     6.7154000   -2.3445990   -0.9014560  
C     5.3036860   -1.8438610   -0.8938730  
N     4.5561220   -2.5678710   -1.6756440  
C     4.8826400   -0.6807960   -0.0986830  
C     5.8754050   -0.1186290    0.6620260  
O     5.6780780    0.9194460    1.5105840  
C     7.2801900   -0.5983140    0.6684720  
O     8.0891080   -0.0198690    1.4032470  
C     7.6710620   -1.7508320   -0.1669330  
H     7.5337190   -4.1093400   -2.0808030  
H     6.5608140    1.0666260    1.9201710  
H     8.7104300   -2.0632830   -0.1313670  
H     4.9778190   -4.2940090   -2.9137890  
C    -6.2403900   -3.2095690   -1.5014590  
C    -5.7433020   -4.1707770   -0.6909430  
C    -4.8858740   -3.4699240    0.2561980  
C    -4.9574360   -2.0334870   -0.1610700  
N    -5.7661560   -1.9017020   -1.1812550  
C    -4.2227760   -0.9695210    0.5077240  
C    -3.5536040   -1.3680800    1.6381190  
O    -2.8781700   -0.5283530    2.4395190  
C    -3.4890890   -2.7909840    2.1027430  
O    -2.8514750   -3.0296580    3.1316410  
C    -4.1831500   -3.8433470    1.3422430  
H    -5.9396430   -5.2334550   -0.7151940  
H    -2.5211900   -1.0949300    3.1608270  
H    -4.1112880   -4.8610680    1.7132550  
H    -6.9306120   -3.3178670   -2.3289730  
