62


C     1.9316520   -0.5395580    0.0519980  
C     3.2532850   -0.1589460   -0.1270600  
C     3.2272030    1.2734050   -0.3760940  
C     1.8701970    1.6728650   -0.3494370  
N     1.0944840    0.5440870   -0.0686930  
C     1.4504930    2.9876360   -0.5699570  
C     2.4298610    3.9298010   -0.8396110  
O     2.0836150    5.2285540   -1.0621650  
C     3.7970950    3.5506220   -0.8857650  
O     4.6547840    4.5953670   -1.1649240  
C     4.2023410    2.2487810   -0.6613890  
H     0.4070230    3.2785810   -0.5521030  
H     2.9048190    5.7204160   -1.2364750  
H     5.5687280    4.2740150   -1.1609920  
H     5.2565050    1.9941930   -0.6733050  
H     1.5288330   -1.5149780    0.2835540  
C    -1.0782080   -0.3209920    3.6063620  
C    -2.3460130   -0.2038560    3.0982790  
C    -2.2100520    0.1456290    1.7121230  
C    -0.8204250    0.2182320    1.4391920  
N    -0.1557230   -0.0693370    2.6081640  
C    -0.3063160    0.5155530    0.1646850  
C    -1.2231700    0.7560340   -0.8566560  
O    -0.7886190    1.0372390   -2.1089530  
C    -2.6200700    0.7319330   -0.5974730  
O    -3.3948070    1.0791560   -1.6814400  
C    -3.1183950    0.4277300    0.6674840  
H    -3.2653990   -0.3620210    3.6434800  
H     0.8475930   -0.0738480    2.7142740  
H    -1.5846920    1.1669180   -2.6579130  
H    -4.2209240    0.5602140   -1.6947050  
H    -0.7494670   -0.5719110    4.6046340  
C    -5.1634500    1.2681480    1.8423930  
C    -6.5091660    1.1317840    1.7830460  
C    -6.7984870    0.1585640    0.7496450  
C    -5.4825160   -0.2726710    0.2127920  
N    -4.5190260    0.4352390    0.9099150  
C    -5.3235520   -1.1998090   -0.7753210  
C    -6.5186110   -1.8144670   -1.3520730  
O    -6.4725730   -2.6703910   -2.2211020  
C    -7.9204400   -1.3494050   -0.8156130  
O    -8.9313540   -1.8250590   -1.3052710  
C    -7.9573410   -0.3573320    0.2662250  
H    -7.2350310    1.6565630    2.3870470  
H    -4.3535510   -1.5722860   -1.0924170  
H    -8.9320460   -0.0658030    0.6459090  
H    -4.5564860    1.9061000    2.4700880  
C     3.7836090   -4.3953720   -1.4342120  
C     3.2693260   -3.1479470   -1.2947720  
C     4.2761110   -2.3972390   -0.5476590  
C     5.3618600   -3.3819150   -0.3345050  
N     5.0704770   -4.5505170   -0.8421630  
C     6.5843080   -3.0376730    0.3494800  
C     6.7229600   -1.7654410    0.7816750  
O     7.8183480   -1.2951650    1.4121170  
C     5.6443200   -0.7400060    0.5871980  
O     5.8716410    0.3889290    1.0229670  
C     4.3530760   -1.1124900   -0.0833750  
H     2.3380050   -2.7666650   -1.6878630  
H     7.3587660   -3.7840580    0.4879600  
H     7.6163880   -0.3554880    1.6105060  
H     3.3422600   -5.2448780   -1.9417050  
