60


C     2.0814990   -1.1434970   -0.9814690  
C     3.1564280   -0.4360570   -0.4421430  
C     2.5820890    0.7598510    0.1517280  
C     1.1919070    0.7205330   -0.0969470  
N     0.9299420   -0.4468310   -0.8026170  
C     0.2935380    1.7395170    0.2973050  
C     0.8607710    2.7555730    1.0840450  
O     0.0749700    3.7199930    1.6304610  
C     2.2534960    2.7951710    1.3489410  
O     2.6361380    3.8791830    2.1151110  
C     3.1237690    1.8344270    0.8763110  
H    -0.0070100   -0.8447600   -0.8059110  
H     0.6653120    4.3341560    2.1020740  
H     3.5908970    3.8376060    2.2742870  
H     4.1905950    1.8714450    1.0717360  
H     2.0727100   -2.1096930   -1.4659080  
C    -2.9210270   -1.2950490    0.2848390  
C    -4.0389720   -0.5707070   -0.0300700  
C    -3.5218070    0.7955160   -0.2648050  
C    -2.0468760    0.6853980   -0.0165870  
N    -1.7226970   -0.5523010    0.2626340  
C    -1.1331810    1.8128270   -0.0982780  
C    -1.6932850    2.9734910   -0.5684720  
O    -1.0024850    4.0852110   -0.8336070  
C    -3.1639190    3.1195320   -0.8198020  
O    -3.5698590    4.2155040   -1.2065580  
C    -4.0668970    1.9713060   -0.6245460  
H    -1.6735320    4.7436940   -1.1242500  
H    -5.1153530    2.1207570   -0.8432880  
H    -2.8819920   -2.3416340    0.5473500  
C    -5.8339620   -3.8728520    2.2098980  
C    -7.1129040   -3.8627100    1.7759240  
C    -7.1761610   -2.7750570    0.8048440  
C    -5.7868140   -2.2143520    0.7837640  
N    -5.0165450   -2.8603710    1.6069670  
C    -5.4075050   -1.0762410   -0.0651600  
C    -6.4136730   -0.5947560   -0.8608600  
O    -6.2579230    0.4063910   -1.7518280  
C    -7.8034090   -1.1430600   -0.8571560  
O    -8.6203560   -0.6303440   -1.6254810  
C    -8.1504400   -2.2669260    0.0304970  
H    -7.9284660   -4.5082270    2.0706730  
H    -7.1438500    0.5079000   -2.1708210  
H    -9.1736720   -2.6288220    0.0024120  
H    -5.3758540   -4.5333340    2.9358640  
C     4.5254480   -0.8429060   -0.4761480  
C     5.0998050   -1.9478960   -1.0767850  
C     6.4934360   -1.8766570   -0.7943040  
C     6.6410310   -0.6178060    0.0233020  
N     5.4987740   -0.0225950    0.2030780  
C     7.9218780   -0.1844650    0.5144660  
C     8.9940570   -0.9530880    0.2115210  
O    10.2481410   -0.6887500    0.5911460  
C     8.8792670   -2.2291740   -0.6126460  
O     9.9397740   -2.8340090   -0.8137790  
C     7.5809600   -2.6461240   -1.0955890  
H     4.6021890   -2.7137990   -1.6554810  
H     8.0064320    0.7234370    1.1013730  
H    10.7766750   -1.4324820    0.2116930  
H     7.5301330   -3.5595710   -1.6796660  
