58


C     0.9502650   -0.8383230    0.0581460  
C    -0.2911550   -1.4129610   -0.0152060  
C    -1.2680180   -0.3541680   -0.0567800  
C    -0.5058820    0.9111400   -0.0116080  
N     0.8254930    0.5558800    0.0350790  
C    -1.0439060    2.1709410   -0.0059960  
C    -2.5087300    2.2569310   -0.1476910  
O    -3.0958160    3.3097480   -0.3202370  
C    -3.3443510    0.9331500   -0.1237690  
O    -4.5533020    1.0159240   -0.0211480  
C    -2.6381570   -0.3763240   -0.1495860  
H    -0.4946620   -2.4702660   -0.0906480  
H     1.5646010    1.2029650    0.2703830  
C     2.2558660   -1.4504900    0.0856240  
C     2.6158540   -2.7102680    0.4819180  
C     4.0432450   -2.8320620    0.3291720  
C     4.5132160   -1.5301680   -0.2025240  
N     3.3935410   -0.7063180   -0.2747390  
C     5.7971710   -1.2588410   -0.5355730  
C     6.8029880   -2.3034860   -0.3311880  
O     7.9825500   -2.1479740   -0.6006090  
C     6.3339370   -3.6768030    0.2732180  
O     7.1609650   -4.5540800    0.4644920  
C     4.9106440   -3.8519430    0.5751010  
H     1.9511430   -3.4579160    0.8903680  
H     6.1251730   -0.3033860   -0.9332470  
H     4.5935390   -4.8105080    0.9742700  
H     3.3461050    0.0720630   -0.9195690  
C     2.5144600    3.8925670   -2.1606010  
C     1.5050160    3.0518360   -1.8153330  
C     0.8328580    3.7066790   -0.6973560  
C     1.6025350    4.9763670   -0.5134430  
N     2.5876660    5.0709520   -1.3647100  
C     1.2397020    5.9497620    0.4812870  
C     0.1677900    5.6813930    1.2623610  
O    -0.2791080    6.4950920    2.2293430  
C    -0.5973870    4.3882790    1.1480280  
O    -1.4516250    4.1666020    1.9973470  
C    -0.2451730    3.3993970    0.0747590  
H     1.2093350    2.1319880   -2.2994480  
H     1.8139770    6.8639590    0.5811920  
H    -1.0289020    6.0218190    2.6519250  
H     3.2316530    3.7704970   -2.9644380  
C    -3.1051820   -3.9481070    2.5035720  
C    -2.7031110   -2.7701390    1.9550590  
C    -3.4287590   -2.6001400    0.7152340  
C    -4.3057560   -3.7909390    0.5903220  
N    -4.0404340   -4.5784330    1.6961710  
C    -5.1939750   -4.0048110   -0.4131620  
C    -5.3061960   -2.9965610   -1.4601570  
O    -6.0936470   -3.0809400   -2.3883260  
C    -4.3521600   -1.7525460   -1.3925070  
O    -4.3313440   -0.9806440   -2.3331790  
C    -3.4513440   -1.5951340   -0.2183130  
H    -1.9857190   -2.0833350    2.3773200  
H    -5.8399230   -4.8758120   -0.4647670  
H    -2.7965290   -4.4107320    3.4318290  
H    -4.5408660   -5.4210670    1.9327270  
