60


C    -0.4579490   -1.5580620   -0.4672880  
C     0.9130800   -1.5313700   -0.3017990  
C     1.3014640   -0.1693070   -0.1128230  
C     0.1091010    0.6060180   -0.1839410  
N    -0.9303750   -0.2547700   -0.4408060  
C     0.0726320    2.0070690   -0.0135210  
C     1.2905060    2.5771040    0.3983800  
O     1.3534010    3.8887840    0.7304000  
C     2.4867710    1.8230430    0.5049790  
O     3.5780340    2.5844200    0.8658980  
C     2.5454910    0.4611530    0.1948440  
H     1.5563200   -2.3988390   -0.2808470  
H    -1.8891560    0.0254970   -0.2561380  
H     2.2839720    4.0468510    0.9857630  
H     4.0659070    2.0801310    1.5519530  
C    -1.1040050   -3.8493220   -1.3088360  
C    -1.3567950   -2.6887550   -0.6342680  
C    -2.7040200   -2.8224140   -0.0834190  
C    -3.2078710   -4.1498010   -0.5150580  
N    -2.1789510   -4.7286130   -1.2294120  
C    -4.4405840   -4.6350530   -0.2170260  
C    -5.3383950   -3.8093850    0.5858870  
O    -6.4643850   -4.1596020    0.9041630  
C    -4.8175940   -2.4036470    1.0602710  
O    -5.5671230   -1.6759280    1.6971060  
C    -3.4549930   -2.0078510    0.7025510  
H    -4.7907630   -5.6124920   -0.5342050  
H    -3.0967710   -1.0542530    1.0750180  
H    -0.2179390   -4.1262490   -1.8642190  
H    -2.2350520   -5.6166570   -1.7030270  
C    -4.2527370    1.6496830    1.1205350  
C    -4.7146740    2.8701370    0.7729500  
C    -3.5871330    3.5501830    0.1501760  
C    -2.4520090    2.5667860    0.2483350  
N    -2.8662160    1.4584720    0.7973940  
C    -1.1123170    2.8665500   -0.2452500  
C    -1.0157730    4.0289810   -0.9665420  
O     0.0853900    4.4115180   -1.6166390  
C    -2.1466170    5.0158590   -1.1058330  
O    -1.9277860    6.0367260   -1.7562020  
C    -3.4482380    4.7268350   -0.4878090  
H    -5.7135140    3.2651210    0.8938920  
H    -0.1347600    5.2865470   -2.0100130  
H    -4.2386600    5.4606640   -0.6104830  
H    -4.7900620    0.8249210    1.5758450  
C     4.4119100   -2.4374650   -2.6479760  
C     3.5927080   -1.4948540   -2.1260620  
C     4.1502470   -1.1848560   -0.8104150  
C     5.3418990   -2.0688160   -0.7146750  
N     5.4893440   -2.8065870   -1.7795460  
C     6.1993290   -2.0701090    0.4437830  
C     5.9094530   -1.1992770    1.4355850  
O     6.6430280   -1.0688810    2.5575590  
C     4.7502380   -0.2551680    1.3378740  
O     4.6373610    0.5605760    2.2642260  
C     3.7961090   -0.3207710    0.1866630  
H     2.7224220   -1.0399360   -2.5745960  
H     7.0530980   -2.7367450    0.4908120  
H     6.2215960   -0.3485080    3.0714450  
H     4.3479910   -2.9151790   -3.6183150  
