60


C    -1.1972380   -1.4507940    0.4132180  
C    -0.3797400   -0.3811810    0.0660680  
C    -1.2793330    0.7389670   -0.1738040  
C    -2.5932830    0.2785380    0.0693820  
N    -2.5001410   -1.0495800    0.4378240  
C    -3.7651580    1.0513630   -0.1309130  
C    -3.5572280    2.3580150   -0.6125420  
O    -4.5932820    3.2103710   -0.7766580  
C    -2.2446410    2.8270820   -0.8702510  
O    -2.2096350    4.1302250   -1.3285060  
C    -1.1212840    2.0509800   -0.6637080  
H    -3.2983060   -1.6522830    0.5765410  
H    -4.2239310    4.0492620   -1.1069310  
H    -1.2891230    4.4138680   -1.4296590  
H    -0.1340800    2.4553260   -0.8541090  
H    -0.9164400   -2.4674600    0.6322180  
C     2.1604660   -3.8493800   -0.7327060  
C     3.4019850   -3.3063490   -0.7273270  
C     3.1996040   -1.8878640   -0.4667880  
C     1.7285360   -1.7485210   -0.3245120  
N     1.1312680   -2.8972480   -0.4977650  
C     1.0709960   -0.4664500   -0.0313250  
C     1.9361760    0.5790110    0.1671900  
O     1.5339320    1.8234070    0.5324040  
C     3.4032370    0.4705420    0.0417680  
O     4.0675200    1.4907760    0.2715220  
C     4.0492850   -0.8247680   -0.3480100  
H     4.3474730   -3.8131910   -0.8537630  
H     2.3709280    2.3311290    0.6240500  
H     1.8834100   -4.8860510   -0.8809790  
C     6.0526130   -1.6651150   -1.6000230  
C     5.4702140   -0.8843040   -0.6300350  
C     6.6209560   -0.1996970    0.0036950  
C     7.8053310   -0.7359400   -0.7315060  
N     7.4519210   -1.5779980   -1.6710220  
C     9.1497440   -0.3474340   -0.4109450  
C     9.3277160    0.5270470    0.6089950  
O    10.5197260    0.9758780    1.0213570  
C     8.1580960    1.0763130    1.3826020  
O     8.3990810    1.8577340    2.2992420  
C     6.7835260    0.6654720    1.0227250  
H     9.9795930   -0.7581070   -0.9749910  
H    10.3288710    1.5839800    1.7698030  
H     5.9715230    1.1057300    1.5870570  
H     5.5329350   -2.2873530   -2.3186470  
C    -5.0850230    0.5086800    0.1394020  
C    -5.4435870   -0.3974230    1.1106920  
C    -6.8514530   -0.6419300    0.9249620  
C    -7.2125640    0.2047820   -0.2603840  
N    -6.1931700    0.8753380   -0.7074770  
C    -8.5525770    0.2244200   -0.7904880  
C    -9.4851510   -0.5297390   -0.1639130  
O   -10.7712160   -0.6068440   -0.5344000  
C    -9.1542440   -1.3783590    1.0457240  
O   -10.0791520   -2.0278600    1.5386570  
C    -7.7843470   -1.3960110    1.5571640  
H    -4.8353980   -0.7653860    1.9260090  
H    -8.7863340    0.8366160   -1.6542790  
H   -11.1831300   -1.2259400    0.1109900  
H    -7.5827050   -2.0229350    2.4203680  
