60


C    -2.4107290    0.7648130    0.1339970  
C    -1.0733170    1.0480420    0.4526240  
C    -0.6838940    2.1962060   -0.2751570  
C    -1.8347400    2.6071300   -1.0249010  
N    -2.8475320    1.7241370   -0.7631770  
C    -1.8472960    3.7339740   -1.8465030  
C    -0.6758460    4.4719260   -1.8925520  
O    -0.6033820    5.5873860   -2.6491170  
C     0.4928680    4.0952710   -1.1535560  
O     1.5416380    4.9489870   -1.3647550  
C     0.5382790    2.9513770   -0.3569530  
H    -0.4820710    0.4901610    1.1587530  
H    -3.8197140    1.7762260   -1.0559240  
H    -2.7186410    4.0494480   -2.4096270  
H     0.2927380    5.9507550   -2.4928040  
H     1.9631170    5.1036710   -0.4796870  
C     2.6301990   -0.9999550    0.0500740  
C     1.7799530    0.0422860   -0.2862450  
C     2.2263880    1.2214980    0.3805810  
C     3.4305680    0.8096920    1.1504240  
N     3.6090800   -0.5356560    0.9166040  
C     4.1683790    1.6297500    1.9379050  
C     3.7614920    3.0212110    2.0185590  
O     4.3126330    3.8456630    2.7300860  
C     2.5665940    3.5018890    1.1176970  
O     2.3815220    4.7234110    1.0871130  
C     1.7618550    2.5328380    0.3710340  
H     0.9614970   -0.0128930   -0.9847530  
H     5.0218200    1.2982160    2.5198760  
H     4.4276040   -1.0920660    1.1329210  
C    -0.6702800   -3.6096710   -1.2491620  
C     0.0461100   -4.6831360   -1.6625690  
C     1.4382930   -4.3937690   -1.3915230  
C     1.4695340   -3.0285640   -0.8124550  
N     0.1717270   -2.5989410   -0.7734070  
C     2.6149630   -2.3780200   -0.3900440  
C     3.8463980   -3.1866090   -0.3730950  
O     4.8813650   -2.8305470    0.1776210  
C     3.8475610   -4.5834930   -1.0895940  
O     4.9088950   -5.1703790   -1.2129840  
C     2.5729480   -5.1246790   -1.5572390  
H    -0.3426740   -5.5950700   -2.0911740  
H     2.5773290   -6.1129540   -2.0062280  
H    -1.7393190   -3.4470070   -1.2511920  
H    -0.1632290   -1.8349600   -0.1912650  
C    -6.7271310    0.2062030   -0.4109020  
C    -6.9424790   -0.9325350    0.2862090  
C    -5.6313790   -1.3346850    0.7852440  
C    -4.7096560   -0.2800940    0.2884850  
N    -5.3550470    0.6098510   -0.4137040  
C    -3.2707810   -0.2974300    0.5805600  
C    -2.8339860   -1.3933110    1.2909410  
O    -1.5158390   -1.6054770    1.5807220  
C    -3.7135570   -2.4591860    1.7704750  
O    -3.2070970   -3.4163140    2.3816430  
C    -5.1655220   -2.3772280    1.5007470  
H    -7.8777870   -1.4505260    0.4464710  
H    -1.5274730   -2.4449400    2.0993500  
H    -5.7846090   -3.1838890    1.8827220  
H    -7.4447950    0.8178040   -0.9429070  
