60


C    -3.8175020    1.5995070   -1.1936480  
C    -2.5185860    1.8642870   -0.8643920  
C    -2.0930840    0.8401580    0.0459040  
C    -3.1929320   -0.0325700    0.2342930  
N    -4.2558100    0.4594550   -0.5270320  
C    -3.1109040   -1.1946190    1.0042680  
C    -1.9002600   -1.4760220    1.6207640  
O    -1.7871720   -2.5869540    2.4022500  
C    -0.7870520   -0.6201330    1.4611360  
O     0.3291120   -1.0270490    2.1637080  
C    -0.8534660    0.5447250    0.6788060  
H    -1.9303860    2.6855690   -1.2455860  
H    -3.9516440   -1.8580830    1.1594510  
H    -0.8944010   -2.5788770    2.7891380  
H     0.9650310   -0.2921620    2.2188260  
H    -4.4910500    2.1267440   -1.8516690  
C     0.2991560    1.4203550    0.5379240  
C     0.3871050    2.7816110    0.4358790  
C     1.7757990    3.1467790    0.3313030  
C     2.5366670    1.8845470    0.3710230  
N     1.6123450    0.8711590    0.5737320  
C     3.8921380    1.7643540    0.1841010  
C     4.6501750    3.0443710    0.0975120  
O     5.8619100    3.1022520    0.1586410  
C     3.8475660    4.3916710    0.0165480  
O     4.4653850    5.4265540   -0.1831900  
C     2.3995660    4.3504810    0.1851770  
H    -0.4434590    3.4701430    0.4865270  
H     1.8565940    5.2896020    0.1402780  
H     1.8020580   -0.0552460    0.2000120  
C     4.5669390    0.4839180    0.1018880  
C     4.2197280   -0.7170240    0.6780090  
C     5.2097670   -1.6690810    0.2326510  
C     6.1051360   -0.8695050   -0.6641420  
N     5.7342440    0.3733410   -0.7371980  
C     7.2252740   -1.4730530   -1.3411070  
C     7.4577330   -2.7878780   -1.1201730  
O     8.4645040   -3.4809290   -1.6711400  
C     6.5804180   -3.6157310   -0.2083390  
O     6.8733280   -4.8046360   -0.0748940  
C     5.4358230   -2.9849510    0.4572880  
H     3.4389390   -0.9135000    1.3993980  
H     7.8541410   -0.8736160   -1.9896500  
H     8.3684390   -4.3953920   -1.3213220  
H     4.8216180   -3.6143370    1.0940460  
C    -7.2172670   -0.6251040    2.4818510  
C    -8.2295200   -1.0798720    1.7106800  
C    -7.7534380   -0.9484400    0.3358790  
C    -6.3726900   -0.3877830    0.4858870  
N    -6.0684550   -0.1975660    1.7331640  
C    -5.5386580   -0.1050020   -0.6746690  
C    -6.0876190   -0.3340660   -1.9015840  
O    -5.4542070   -0.0906670   -3.0601670  
C    -7.4726490   -0.8853580   -2.0662540  
O    -7.8686350   -1.0793090   -3.2144130  
C    -8.2900580   -1.1865610   -0.8749300  
H    -9.1959080   -1.4513270    2.0216520  
H    -6.0856290   -0.3689760   -3.7613660  
H    -9.2866990   -1.5824950   -1.0435190  
H    -7.1775670   -0.5509360    3.5615750  
