62


C     0.6911060    1.0347550   -1.9963790  
C     2.0414780    0.8084950   -1.9575740  
C     2.4684420    1.0179280   -0.6038540  
C     1.3129550    1.3648680    0.1435310  
N     0.2307510    1.3767380   -0.7285290  
C     1.3376540    1.6000140    1.5207810  
C     2.5655720    1.4952130    2.1570860  
O     2.6580990    1.7419660    3.4954710  
C     3.7329760    1.1522270    1.4335240  
O     4.8785830    1.1092350    2.2153550  
C     3.7218040    0.8989190    0.0597530  
H     2.6588680    0.5322610   -2.8000640  
H     0.4549290    1.8786550    2.0839160  
H     3.6018090    1.6856640    3.7276700  
H     5.6522760    1.2789330    1.6554060  
H     0.0013440    1.0217780   -2.8288000  
C    -3.0819480   -1.4077880   -0.8928280  
C    -4.0875630   -0.5543840   -0.4654090  
C    -3.4500800    0.7287460   -0.2320750  
C    -2.0771070    0.5644650   -0.5289950  
N    -1.8813820   -0.7387700   -0.9323030  
C    -1.1306120    1.5965910   -0.3918760  
C    -1.5918910    2.8285040    0.0631360  
O    -0.7333280    3.8720410    0.2015500  
C    -2.9667770    2.9983040    0.3805420  
O    -3.2697170    4.2717680    0.8200040  
C    -3.8897810    1.9816270    0.2403880  
H    -0.9980480   -1.1187270   -1.2380870  
H    -1.2601540    4.6349240    0.4999790  
H    -4.2318900    4.3847890    0.8445970  
H    -4.9377800    2.1564930    0.4567190  
H    -3.1513190   -2.4305530   -1.2361070  
C    -5.8419310   -4.1951190    1.2196620  
C    -7.1617630   -3.9308350    1.0336830  
C    -7.2578180   -2.6286660    0.4100460  
C    -5.8675270   -2.1532920    0.2363310  
N    -5.0531090   -3.1713560    0.7096470  
C    -5.4897710   -0.9407930   -0.2796540  
C    -6.6006030   -0.0488240   -0.6769730  
O    -6.4263690    1.0731830   -1.1260750  
C    -8.0902190   -0.5505640   -0.5264520  
O    -8.9855680    0.2082740   -0.8681110  
C    -8.3262450   -1.8748050    0.0269120  
H    -7.9895880   -4.5715250    1.3007720  
H    -9.3531160   -2.2091930    0.1356660  
H    -5.3725940   -5.0601520    1.6699270  
H    -4.0732770   -3.0326750    0.9118430  
C     5.3616200    0.9907550   -1.8898370  
C     4.9434630    0.5414810   -0.6708240  
C     5.9565760   -0.4807960   -0.3096130  
C     6.9108840   -0.4762200   -1.4569360  
N     6.5574930    0.3878440   -2.3676740  
C     8.0559940   -1.3477870   -1.4917360  
C     8.2325210   -2.2067520   -0.4589950  
O     9.2502920   -3.0798380   -0.3664940  
C     7.2749540   -2.2540340    0.6966970  
O     7.4990180   -3.0619070    1.5970490  
C     6.1150330   -1.3352840    0.7202450  
H     8.7367760   -1.3120990   -2.3351250  
H     9.1069320   -3.5579370    0.4794960  
H     5.4570410   -1.3889160    1.5812230  
H     4.8850730    1.7476350   -2.5008530  
