58


C    -2.1925390   -0.2578650    0.3941400  
C    -1.5661370    0.9451940    0.2687750  
C    -2.5749430    1.8862070   -0.2225910  
C    -3.8277120    1.1149820   -0.3879360  
N    -3.5326420   -0.2093650   -0.0094660  
C    -5.0070340    1.6581420   -0.7676160  
C    -5.0444100    3.0845630   -1.1010560  
O    -6.0651010    3.6476800   -1.4603820  
C    -3.7129340    3.9032970   -0.9940610  
O    -3.7112910    5.0822000   -1.3045560  
C    -2.5115840    3.2083060   -0.5128290  
H    -5.9276810    1.0971770   -0.8672480  
H    -1.6123680    3.7969600   -0.3739460  
H    -1.7929370   -1.1966950    0.7537160  
C     2.0397490   -1.0638170   -1.1694840  
C     3.0141910   -0.3810060   -0.4819420  
C     2.3126970    0.6349400    0.3146750  
C     0.8708440    0.4592690    0.0338340  
N     0.7833440   -0.5961750   -0.8579120  
C    -0.1490520    1.2100640    0.5511680  
C     0.2429600    2.2993210    1.4671050  
O    -0.5673000    3.0408150    1.9973490  
C     1.7695630    2.4995490    1.7835520  
O     2.0893180    3.4010500    2.5391190  
C     2.7488850    1.6041270    1.1584630  
H     3.8012830    1.7425030    1.3728660  
H     2.1515010   -1.8753250   -1.8760920  
H    -0.0726870   -0.8742870   -1.3155480  
C     4.4317640   -0.6281590   -0.5520850  
C     5.1116490   -1.5800390   -1.2735980  
C     6.5020720   -1.3764310   -0.9796740  
C     6.5115720   -0.2162340   -0.0218880  
N     5.3070680    0.2112310    0.2213630  
C     7.7358760    0.3071870    0.5215160  
C     8.8909040   -0.2862940    0.1378500  
O    10.1047190    0.0852520    0.5551880  
C     8.9158530   -1.4596480   -0.8269800  
O    10.0239810   -1.9201240   -1.1048220  
C     7.6591250   -1.9728850   -1.3651910  
H     4.7039230   -2.3364670   -1.9300580  
H     7.7155040    1.1447510    1.2096920  
H    10.7303540   -0.5289150    0.1057270  
H     7.7148280   -2.8117210   -2.0518180  
C    -4.3604770   -3.1865460    3.1513730  
C    -3.8484100   -2.0990840    2.5222670  
C    -4.4688760   -2.1025240    1.2025520  
C    -5.3458220   -3.3073090    1.2152380  
N    -5.2784630   -3.9353720    2.3559870  
C    -6.1657510   -3.6722890    0.0876410  
C    -6.1203230   -2.8853480   -1.0110150  
O    -6.8373600   -3.1061420   -2.1258830  
C    -5.2261700   -1.6818140   -1.0869800  
O    -5.1621270   -1.0797440   -2.1535340  
C    -4.4143810   -1.2925460    0.1122430  
H    -3.1657970   -1.3623840    2.9213120  
H    -6.7970930   -4.5520190    0.1410610  
H    -6.5695210   -2.4128320   -2.7656290  
H    -4.1600830   -3.5227330    4.1615360  
