58


C    -2.2698820    3.6898740   -0.5159130  
C    -3.4448880    3.0065220   -0.5182000  
C    -3.1333060    1.5990800   -0.4027340  
C    -1.6636210    1.5164720   -0.3095320  
N    -1.2014120    2.8115070   -0.4025920  
C    -0.9227710    0.3632410   -0.1917700  
C    -1.6958480   -0.8803570   -0.0517550  
O    -1.1947630   -1.9497160    0.2446820  
C    -3.2605420   -0.8286050   -0.1991310  
O    -3.8570260   -1.8902040   -0.1531180  
C    -3.9443330    0.4768690   -0.3876290  
H    -4.4297060    3.4427650   -0.5715710  
H    -2.0908650    4.7545970   -0.5804320  
H    -0.2270670    3.0693640   -0.3752220  
C     2.1995910    2.3490700    2.3101360  
C     1.0229100    1.9508260    1.7590830  
C     1.3401770    1.0449130    0.6718700  
C     2.8093840    0.9521410    0.6348160  
N     3.2711450    1.7934350    1.6230180  
C     3.5555120    0.1187740   -0.1743810  
C     2.7885960   -0.7020610   -1.1377970  
O     3.3004360   -1.4170100   -1.9761390  
C     1.2204050   -0.5798200   -1.1521200  
O     0.6110190   -1.1595300   -2.0292780  
C     0.5379850    0.3074060   -0.1678850  
H     0.0349170    2.2217850    2.0993920  
H     2.3800810    2.9996350    3.1553960  
H     4.2319780    1.7839260    1.9381580  
C     4.9981350    0.0373500   -0.0877750  
C     5.8933830    1.0389060    0.2240000  
C     7.1963670    0.4214790    0.2041050  
C     6.9116690   -1.0152560   -0.1165200  
N     5.6416740   -1.2328120   -0.2916970  
C     7.9683630   -1.9904880   -0.2019250  
C     9.2371060   -1.5588190   -0.0110090  
O    10.3199840   -2.3460420   -0.0695090  
C     9.5566090   -0.1118220    0.2933350  
O    10.7434930    0.1782890    0.4531930  
C     8.4647770    0.8595390    0.3937000  
H     5.6949440    2.0982350    0.3205080  
H     7.7349640   -3.0251400   -0.4264080  
H    11.0815110   -1.7486030    0.1078570  
H     8.7320630    1.8863390    0.6242590  
C    -6.0350300    1.4112040   -1.4474570  
C    -5.3741930    0.5314080   -0.6229900  
C    -6.4701700   -0.2896690   -0.0463430  
C    -7.7066620    0.2872940   -0.6473010  
N    -7.4315250    1.2675260   -1.4720700  
C    -9.0175760   -0.2070840   -0.3333050  
C    -9.1129380   -1.2251150    0.5562740  
O   -10.2670410   -1.7818080    0.9497050  
C    -7.8893220   -1.8209750    1.1947350  
O    -8.0538700   -2.7308290    2.0042470  
C    -6.5494890   -1.3027490    0.8372010  
H    -9.8888260    0.2393910   -0.7993530  
H   -10.0144940   -2.4821900    1.5915580  
H    -5.6963820   -1.7911300    1.2905480  
H    -5.5825420    2.1509390   -2.0962600  
