60


C     2.4420070   -2.0342430    0.5700290  
C     3.4521930   -1.3073640   -0.0266970  
C     2.8574420   -0.0467240   -0.4225410  
C     1.4967010   -0.0813110   -0.0297340  
N     1.2734410   -1.3072070    0.5620110  
C     0.5855580    0.9638680   -0.3113920  
C     1.1061570    2.0766590   -0.9822870  
O     0.3153080    3.1570230   -1.2042160  
C     2.4641420    2.1189250   -1.3860120  
O     2.8056270    3.2841030   -2.0391220  
C     3.3335300    1.0762240   -1.1272790  
H     0.4081270   -1.5920830    0.9952990  
H     0.8275080    3.7906890   -1.7373000  
H     3.7242380    3.2365880   -2.3430790  
H     4.3649300    1.1265440   -1.4668740  
H     2.4832500   -3.0112570    1.0298280  
C    -1.7083810    0.2116360    3.4621050  
C    -0.6852670    0.4040140    2.5945320  
C    -1.3156800    0.6150870    1.2942030  
C    -2.7692880    0.5158360    1.5865790  
N    -2.9941640    0.2824970    2.8488530  
C    -3.7770640    0.6876710    0.5502340  
C    -3.3261660    0.9931490   -0.7000580  
O    -4.1343780    1.2219390   -1.7485250  
C    -1.8685770    1.0443420   -1.0303960  
O    -1.5758150    1.1948110   -2.2126370  
C    -0.8367760    0.8900850    0.0518740  
H     0.3742690    0.4261570    2.8060180  
H    -3.5310210    1.3431700   -2.5161360  
H    -1.6560270    0.0307170    4.5287980  
C    -5.7524210    1.0872330    2.0063840  
C    -7.0666850    0.7673590    2.0628840  
C    -7.3632160   -0.0728330    0.9251950  
C    -6.0905850   -0.2188580    0.1760680  
N    -5.1366880    0.5345480    0.8699540  
C    -5.9475450   -0.9971730   -0.9243430  
C    -7.1218710   -1.7055840   -1.4351790  
O    -7.0776580   -2.4273850   -2.4194730  
C    -8.4874770   -1.5283890   -0.6809340  
O    -9.4788840   -2.1012520   -1.1060490  
C    -8.5040930   -0.6878500    0.5166550  
H    -7.7655230    1.0776430    2.8262470  
H    -5.0154090   -1.1156490   -1.4605170  
H    -9.4417340   -0.5962540    1.0564690  
H    -5.1550010    1.6750420    2.6859100  
C     5.2505080   -3.0052790   -0.6005510  
C     4.8178350   -1.7703880   -0.2222210  
C     6.0684450   -1.0193830    0.0317460  
C     7.1542990   -1.9963330   -0.2717720  
N     6.6678300   -3.1507090   -0.6312850  
C     8.5442470   -1.6422790   -0.1434930  
C     8.8457170   -0.3955390    0.2930650  
O    10.0982420    0.0649980    0.4595460  
C     7.7747350    0.5978200    0.6370280  
O     8.1226630    1.7129880    1.0237250  
C     6.3530430    0.2126280    0.4930270  
H     9.3119790   -2.3697610   -0.3831060  
H     9.9968500    0.9857810    0.7850930  
H     5.6094180    0.9550940    0.7658790  
H     4.6375530   -3.8521560   -0.8855430  
