60


C    -0.9149870   -1.3191330    2.3713340  
C    -2.1168810   -1.4086460    1.7228650  
C    -2.1531640   -0.3610810    0.7417680  
C    -0.9159630    0.3281890    0.8363120  
N    -0.1871220   -0.2693320    1.8404700  
C    -0.5702590    1.4377810    0.0329100  
C    -1.5151830    1.8053310   -0.9276370  
O    -1.2421990    2.8096120   -1.7970500  
C    -2.7450480    1.1135860   -1.0667190  
O    -3.5569970    1.6281010   -2.0570110  
C    -3.1089100    0.0525000   -0.2290370  
H    -2.8977830   -2.1210470    1.9385910  
H     0.7367980    0.0155920    2.1259640  
H    -2.0342630    2.8897620   -2.3630780  
H    -3.8603100    0.8850120   -2.6199070  
H    -0.5120620   -1.9119850    3.1802880  
C     3.7661810    0.2699290   -0.0167450  
C     2.3939160    0.2226520   -0.0870390  
C     1.9380410    1.5722330    0.1516460  
C     3.1964230    2.3446040    0.3666710  
N     4.2535820    1.5918860    0.2727460  
C     3.1796290    3.7600020    0.6339430  
C     1.9755930    4.3743030    0.6618130  
O     1.8040270    5.6857500    0.8898270  
C     0.6797920    3.6213350    0.4726110  
O    -0.3561060    4.2626540    0.6220690  
C     0.7049060    2.1581160    0.1825430  
H     1.7761730   -0.6161470   -0.3715260  
H     4.1093860    4.2963180    0.7866670  
H     0.8297180    5.8199790    0.8882220  
C     3.5946960   -4.0676250    0.9663410  
C     3.3011900   -2.7481170    0.8033750  
C     4.4489080   -2.1182550    0.1922400  
C     5.4557390   -3.1907030    0.0259470  
N     4.8666120   -4.3500550    0.4955040  
C     6.7140080   -3.0215640   -0.4589380  
C     7.1168100   -1.6819270   -0.8580030  
O     8.2461970   -1.4048720   -1.2318630  
C     6.0322570   -0.5467480   -0.8294530  
O     6.2852310    0.4923110   -1.4061660  
C     4.7142190   -0.8153580   -0.1796590  
H     2.3778640   -2.2688350    1.0868370  
H     7.4396030   -3.8260140   -0.5316470  
H     2.9871160   -4.8568220    1.3890380  
H     5.3264600   -5.2452460    0.5508900  
C    -6.2623320   -0.8414850    2.7447670  
C    -7.2037940   -1.4508130    1.9916750  
C    -6.6576810   -1.4620740    0.6367520  
C    -5.3152830   -0.8097500    0.7757820  
N    -5.0996900   -0.4447250    2.0026480  
C    -4.4249260   -0.6042840   -0.3720290  
C    -4.9389800   -1.0071660   -1.5687030  
O    -4.2749010   -0.8672010   -2.7508000  
C    -6.2684000   -1.6577410   -1.7368540  
O    -6.5999680   -1.9971810   -2.8754150  
C    -7.1226320   -1.8752900   -0.5559740  
H    -8.1667970   -1.8345650    2.2987340  
H    -4.8791640   -1.2609250   -3.4234680  
H    -8.0884590   -2.3445090   -0.7167440  
H    -6.2875550   -0.6251950    3.8057950  
