58


C    -0.5214420    0.7276150    1.2664480  
C    -0.5623690    1.8516690    0.4856830  
C    -1.8155370    1.7670610   -0.2692000  
C    -2.4509130    0.4852030    0.1285260  
N    -1.6003450   -0.1069530    1.0400690  
C    -3.6367480   -0.0009400   -0.3659980  
C    -4.3975760    0.9489030   -1.2184830  
O    -5.5778740    0.8057520   -1.4831450  
C    -3.6698150    2.2227560   -1.7675420  
O    -4.2133820    2.8697640   -2.6480300  
C    -2.3762330    2.5870050   -1.1936880  
H    -1.9203400    3.5148890   -1.5169740  
H     0.2184190    0.4540110    2.0083580  
H    -1.9986530   -0.7547630    1.7288240  
C     3.8057240    1.5548570    0.1609330  
C     4.1223630    2.8922090    0.2381030  
C     2.8924850    3.6243790    0.3599050  
C     1.8056780    2.6155780    0.3577120  
N     2.4268830    1.3900990    0.2585310  
C     0.4656250    2.8953710    0.4320550  
C     0.1048410    4.3253490    0.5310780  
O    -1.0481990    4.7113620    0.6310040  
C     1.2486100    5.4094890    0.5272030  
O     0.9286580    6.5877260    0.5823660  
C     2.6320690    4.9618100    0.4499830  
H     5.1156730    3.3163600    0.2089300  
H     3.4142090    5.7144090    0.4543310  
H     1.9791120    0.4949240    0.1210430  
C     4.6361410    0.3902490    0.0041690  
C     5.9959740    0.2888250   -0.1078040  
C     6.2646180   -1.1227450   -0.2480830  
C     4.9089550   -1.7680500   -0.2009280  
N     3.9668330   -0.8827390   -0.0534510  
C     4.7464690   -3.1933110   -0.3111130  
C     5.8655030   -3.9416390   -0.4591840  
O     5.8695610   -5.2734700   -0.5731240  
C     7.2470580   -3.3209810   -0.5098010  
O     8.1993410   -4.0864870   -0.6461430  
C     7.3877940   -1.8640810   -0.3963050  
H     6.7255760    1.0862280   -0.0972130  
H     3.7571830   -3.6354150   -0.2761880  
H     6.8155720   -5.5275300   -0.6671560  
H     8.3923620   -1.4549390   -0.4378630  
C    -3.9930150   -2.4733910    3.3533650  
C    -4.8734140   -3.4169730    2.9556170  
C    -5.1033950   -3.1550470    1.5404490  
C    -4.2758960   -1.9361180    1.2421390  
N    -3.6157670   -1.5718210    2.3091800  
C    -4.2457280   -1.3115070   -0.0729720  
C    -4.8775190   -2.0280610   -1.0607800  
O    -4.8304660   -1.6991790   -2.3527320  
C    -5.6862110   -3.2673330   -0.7965390  
O    -6.2291020   -3.8098960   -1.7571650  
C    -5.7888540   -3.7936500    0.5755660  
H    -5.3106700   -4.2144790    3.5396160  
H    -5.4082860   -2.3458200   -2.8166160  
H    -6.3841700   -4.6884970    0.7278190  
H    -3.5589610   -2.3310650    4.3354740  
