58


C     0.1772460    1.6039080   -0.0420460  
C    -1.0669810    1.0271890    0.0467560  
C    -0.8452210   -0.3970920    0.0055380  
C     0.6405320   -0.5337850   -0.0841400  
N     1.2273480    0.6212590   -0.1287340  
C     1.3002610   -1.8263210   -0.1222560  
C     0.4870080   -2.9149330   -0.1182750  
O     0.9321100   -4.1771770   -0.1658450  
C    -1.0154140   -2.8118440   -0.0721550  
O    -1.6426020   -3.8634970   -0.1742750  
C    -1.6715560   -1.4817390    0.0339430  
H    -2.0088250    1.5420600    0.1337930  
H     0.1206490   -4.7337980   -0.1752850  
C    -2.3970220    5.1427330    0.3688090  
C    -1.5035150    6.1552880    0.3288660  
C    -0.2098670    5.5088150    0.1577870  
C    -0.5233140    4.0391860    0.1163010  
N    -1.8042810    3.8464080    0.2371930  
C     0.5158120    3.0145010   -0.0399080  
C     1.8010920    3.5036500   -0.1709220  
O     2.8960860    2.7677300   -0.3446190  
C     2.1198460    4.9801720   -0.1346390  
O     3.3017000    5.3021380   -0.2587580  
C     1.0483240    5.9678760    0.0406640  
H    -1.6851930    7.2181210    0.4055530  
H     3.6331060    3.4218330   -0.3953300  
H     1.3304010    7.0160680    0.0621380  
H    -3.4723160    5.2026720    0.4870150  
C     4.3590830   -0.6419690    2.7953950  
C     5.5109350   -0.9396680    2.1524260  
C     5.0930480   -1.5048640    0.8726100  
C     3.5953570   -1.4445060    0.9201380  
N     3.1756480   -0.9554930    2.0477270  
C     2.7735480   -1.9262570   -0.1783040  
C     3.4320150   -2.4771500   -1.2330900  
O     2.8199530   -2.9692430   -2.3216280  
C     4.9328230   -2.5590940   -1.2974300  
O     5.4310470   -3.0615480   -2.3042640  
C     5.7406450   -2.0397350   -0.1796290  
H     6.5271060   -0.8106550    2.4982990  
H     3.5468290   -3.2867690   -2.9023380  
H     6.8197060   -2.1272780   -0.2635680  
H     4.2389640   -0.2106120    3.7821850  
C    -4.8560840    0.4657390   -2.4100150  
C    -3.6646000    0.0449180   -1.9115940  
C    -3.9450470   -0.7545970   -0.7386090  
C    -5.4229590   -0.7715730   -0.5990580  
N    -5.9120510    0.0005150   -1.6348540  
C    -6.1092620   -1.4473840    0.3579090  
C    -5.3506150   -2.2172780    1.3333460  
O    -5.8717610   -2.8850770    2.2129750  
C    -3.7830350   -2.1750450    1.2506560  
O    -3.1389750   -2.7031430    2.1388890  
C    -3.1381190   -1.4450740    0.1278490  
H    -2.6883560    0.2766910   -2.3081670  
H    -7.1930680   -1.4588570    0.4207280  
H    -5.0560100    1.0812480   -3.2771240  
H    -6.8898670    0.1345770   -1.8385410  
