60


C     0.5135970   -1.2547660    0.1991890  
C     1.7310230   -0.6101620    0.0827530  
C     2.7508700   -1.5332700    0.4584850  
C     2.0982880   -2.7514460    0.7903900  
N     0.7438960   -2.5659470    0.5988160  
C     2.7762940   -3.8947640    1.2157040  
C     4.1597000   -3.8180670    1.3150080  
O     4.8621190   -4.8921390    1.7678390  
C     4.8463850   -2.6370730    0.9536470  
O     6.2066220   -2.7209550    1.1224370  
C     4.1811860   -1.4784140    0.5044610  
H     1.8855310    0.4031350   -0.2512380  
H     0.0281360   -3.1930340    0.9340380  
H     2.2701220   -4.8167570    1.4830260  
H     5.7985860   -4.6278680    1.8030450  
H     6.5738040   -1.8186800    1.1785870  
C    -1.2471590    0.5367560    0.1976250  
C    -0.8273560   -0.7443420   -0.0199070  
C    -1.9799100   -1.4712990   -0.5519330  
C    -3.0940350   -0.4952430   -0.6023220  
N    -2.5762520    0.7078680   -0.1820320  
C    -4.3651970   -0.8027100   -1.0098540  
C    -4.6171050   -2.1666860   -1.5020500  
O    -5.7027950   -2.5232580   -1.9299990  
C    -3.4241320   -3.1904100   -1.5008280  
O    -3.6295800   -4.3141240   -1.9272620  
C    -2.1248880   -2.7468850   -1.0001110  
H    -1.3081140   -3.4600910   -1.0258110  
H    -0.6883360    1.3709790    0.5991470  
H    -3.1405240    1.5075870    0.0694620  
C    -6.3076090    0.3261400   -2.0907130  
C    -7.2141700    1.2916050   -1.8156170  
C    -6.9628470    1.7582250   -0.4696530  
C    -5.8125900    0.9646010    0.0332940  
N    -5.4276200    0.1233480   -1.0074860  
C    -5.3118560    1.0708340    1.2946400  
C    -5.9098200    2.0477060    2.2051680  
O    -5.5219290    2.2032040    3.3524590  
C    -7.0943590    2.9294790    1.6725620  
O    -7.5810680    3.7745710    2.4059340  
C    -7.5722220    2.6902200    0.3074220  
H    -7.9913240    1.6445540   -2.4778700  
H    -4.5287810    0.4316350    1.6869250  
H    -8.4211900    3.2728280   -0.0372610  
H    -6.1823270   -0.2704680   -2.9811490  
C     4.9261590   -0.2944380    0.1358210  
C     6.2437040   -0.1764910   -0.2737920  
C     6.4703990    1.2260960   -0.4872100  
C     5.1595850    1.8663770   -0.1394120  
N     4.2676660    0.9832850    0.2058430  
C     4.9744080    3.2914540   -0.2067840  
C     6.0256680    4.0373110   -0.6218720  
O     6.0061410    5.3687300   -0.7419340  
C     7.3584320    3.4171750   -1.0005190  
O     8.2422970    4.1954250   -1.3658150  
C     7.5245950    1.9710670   -0.9101830  
H     6.9250820   -0.9678920   -0.5546330  
H     4.0218680    3.7337180    0.0626980  
H     6.9077030    5.6075300   -1.0611080  
H     8.4912430    1.5598300   -1.1835860  
