64


C     3.2368670    0.6336780    0.1754980  
C     3.6827090    1.8461400    0.6838460  
C     2.5339140    2.6552160    0.9465300  
C     1.3956340    1.8870980    0.5837150  
N     1.8537000    0.6792710    0.1159310  
C     0.0652560    2.3500370    0.7052040  
C    -0.0768000    3.6470070    1.2064710  
O    -1.3233200    4.1823710    1.3886750  
C     1.0510990    4.4303460    1.5637780  
O     0.7204980    5.6893910    2.0401060  
C     2.3436230    3.9580420    1.4477570  
H     4.7054580    2.0944490    0.9307190  
H     1.2839780   -0.0992100   -0.1798570  
H    -1.1947210    5.0470030    1.8174260  
H     1.5040230    6.0975400    2.4367910  
H     3.1882160    4.5822780    1.7325950  
C     7.3573600    0.2759490   -1.3485510  
C     7.3925650   -1.0870830   -1.4772610  
C     6.1065700   -1.5819340   -1.0728070  
C     5.3306700   -0.4579580   -0.6901490  
N     6.1250850    0.6593080   -0.8510420  
C     3.9869480   -0.5454800   -0.2531470  
C     3.4398530   -1.8346860   -0.2636190  
O     2.1298950   -2.0341340    0.1051570  
C     4.2038460   -2.9661900   -0.6376300  
O     3.4971480   -4.1539300   -0.5653890  
C     5.5251220   -2.8636260   -1.0275860  
H     8.2334110   -1.6736090   -1.8211580  
H     5.7722710    1.6037400   -0.8211910  
H     1.9654800   -2.9924160    0.0514180  
H     4.0778260   -4.8922350   -0.8005490  
H     6.0899750   -3.7492590   -1.3107470  
H     8.1161030    1.0167940   -1.5582120  
C    -1.2059370    0.1720200    0.7083730  
C    -1.0788740    1.4902180    0.3556560  
C    -2.2320430    1.8023060   -0.4706020  
C    -3.0028770    0.6247700   -0.5996730  
N    -2.3530270   -0.3873570    0.1348700  
C    -4.2169130    0.6015230   -1.2925070  
C    -4.6317480    1.7750620   -1.9044540  
O    -5.8054020    1.7954730   -2.5994640  
C    -3.8502880    2.9530180   -1.8127100  
O    -4.3888040    4.0389010   -2.4730070  
C    -2.6622420    2.9786020   -1.1055560  
H    -4.8270620   -0.2857680   -1.3933690  
H    -5.9196600    2.6973490   -2.9454050  
H    -3.8152880    4.8091380   -2.3453770  
H    -2.0946660    3.8981470   -1.0054130  
H    -0.5587210   -0.4495030    1.3090200  
C    -2.5068120   -2.9067790    3.7654300  
C    -2.3361170   -1.8227830    2.9670800  
C    -2.6954410   -2.2785340    1.6278280  
C    -3.0622360   -3.7009290    1.8187500  
N    -2.9530660   -4.0655360    3.0692720  
C    -3.5105420   -4.5347600    0.7303900  
C    -3.5928850   -3.9797780   -0.4986440  
O    -4.0015440   -4.6377130   -1.6014110  
C    -3.2104380   -2.5520800   -0.7500250  
O    -3.2248230   -2.1582820   -1.9124780  
C    -2.7795230   -1.6872870    0.4015400  
H    -2.0321000   -0.8264330    3.2531870  
H    -3.7734440   -5.5703650    0.9152680  
H    -3.9064530   -3.9983050   -2.3395050  
H    -2.3545550   -2.9726350    4.8360790  
