60


C     2.4043640   -1.2658120   -0.5374430  
C     3.5979800   -0.6089980   -0.2692770  
C     3.2280350    0.7700010    0.0196390  
C     1.8194020    0.8531980   -0.0741470  
N     1.3532190   -0.4053660   -0.3942130  
C     1.0729980    2.0523220    0.0632460  
C     1.8297300    3.2156990    0.3000630  
O     1.2250800    4.4056680    0.5142370  
C     3.2422310    3.1451140    0.3948420  
O     3.8351680    4.3671200    0.6518480  
C     3.9401110    1.9614920    0.2667950  
H     0.3936180   -0.6051270   -0.6367990  
H     1.9304680    5.0618770    0.6596570  
H     4.7917030    4.2480170    0.7462220  
H     5.0161010    1.9399340    0.3920880  
H     2.2423940   -2.2956940   -0.8099080  
C    -0.3747010    2.0601070   -0.0407140  
C    -1.2569710    1.0718810    0.3406500  
C    -2.5677590    1.5411210   -0.0254340  
C    -2.3047640    2.8627970   -0.6692330  
N    -1.0400370    3.1703120   -0.6629350  
C    -3.3652920    3.6604650   -1.2296800  
C    -4.6228980    3.1748400   -1.1379840  
O    -5.7096670    3.7981970   -1.6177160  
C    -4.9311740    1.8586830   -0.4625480  
O    -6.1196550    1.5363890   -0.4133010  
C    -3.8371570    1.0391960    0.1080100  
H    -1.0253750    0.1641370    0.8790430  
H    -3.1413170    4.6098990   -1.7025880  
H    -6.4659200    3.2144510   -1.3837860  
C    -3.5779660   -0.5408510    2.0315380  
C    -4.1513140   -0.1892650    0.8389740  
C    -5.0580880   -1.2879620    0.4851170  
C    -4.9445320   -2.2877330    1.5768880  
N    -4.0298370   -1.7694860    2.4754670  
C    -5.6208700   -3.4625230    1.6323660  
C    -6.5206670   -3.7958730    0.5331240  
O    -7.1716420   -4.8284620    0.4907690  
C    -6.6372580   -2.7702840   -0.6508450  
O    -7.3647510   -3.0352400   -1.5940560  
C    -5.8622550   -1.5241510   -0.5818440  
H    -5.5183470   -4.1715670    2.4482170  
H    -5.9847850   -0.8184110   -1.3943160  
H    -2.8725150    0.0248700    2.6253720  
H    -3.7933680   -2.1889470    3.3614440  
C     7.4412120    0.1225840    1.8532560  
C     8.2359740   -0.8308740    1.3223890  
C     7.3901240   -1.5413700    0.3678320  
C     6.0642920   -0.8449230    0.4501470  
N     6.1114180    0.1224230    1.3196020  
C     4.9079170   -1.2592750   -0.3504760  
C     5.1331090   -2.3537260   -1.1496910  
O     4.1811250   -2.9119390   -1.9319470  
C     6.4442270   -3.0430130   -1.2660510  
O     6.5361620   -3.9875500   -2.0560890  
C     7.5878460   -2.5862020   -0.4529030  
H     9.2702660   -1.0489740    1.5494750  
H     4.6498450   -3.6266080   -2.4199250  
H     8.5253170   -3.1235080   -0.5596140  
H     7.6886940    0.8570170    2.6103760  
