64


C    -2.7765700    1.2443370    0.8850600  
C    -3.7781340    0.4849060    0.3129240  
C    -3.1188990   -0.6399640   -0.3135320  
C    -1.7297740   -0.5011010   -0.0781700  
N    -1.5508210    0.6500740    0.6635390  
C    -0.7564850   -1.3983780   -0.5700850  
C    -1.2391850   -2.4674540   -1.3248670  
O    -0.3782880   -3.4050700   -1.8078100  
C    -2.6299510   -2.6164400   -1.5741950  
O    -2.9369450   -3.7333930   -2.3317580  
C    -3.5671330   -1.7296000   -1.0842080  
H    -0.6553000    1.0180690    0.9453370  
H    -0.9102720   -4.0457160   -2.3111690  
H    -3.8963870   -3.7809120   -2.4551870  
H    -4.6266220   -1.8798340   -1.2693800  
H    -2.8535270    2.1415140    1.4837580  
C    -5.7974260    4.2647530   -0.6616930  
C    -7.0865340    3.8731900   -0.4075130  
C    -7.0361880    2.4998560    0.0093500  
C    -5.6715630    2.1123410   -0.0047500  
N    -4.9394670    3.2123170   -0.4046800  
C    -5.2143780    0.8172140    0.3256660  
C    -6.2100330   -0.0984970    0.6719110  
O    -5.8741590   -1.3806780    1.0213330  
C    -7.5802300    0.2696920    0.6890200  
O    -8.4266530   -0.7650590    1.0579810  
C    -8.0062470    1.5451620    0.3729720  
H    -7.9694670    4.4902290   -0.5045430  
H    -3.9510790    3.1860050   -0.6038430  
H    -6.7015000   -1.8227230    1.2806250  
H    -9.3231980   -0.4176240    1.1728090  
H    -9.0649810    1.7962460    0.3938240  
H    -5.4113310    5.2167960   -0.9981900  
C     1.3154680   -1.3689960    3.3012420  
C     2.5915960   -1.1475060    2.8485340  
C     2.5264610   -1.0670360    1.4169100  
C     1.1639460   -1.2384330    1.0585950  
N     0.4505910   -1.4166950    2.2267710  
C     0.6836770   -1.2185450   -0.2658520  
C     1.6509440   -1.0116230   -1.2524310  
O     1.2844340   -0.9676120   -2.5614880  
C     3.0153610   -0.8350980   -0.9185080  
O     3.8324570   -0.6536120   -2.0271840  
C     3.4912890   -0.8440860    0.3949330  
H     3.4715750   -1.0437200    3.4663560  
H    -0.5355300   -1.6265550    2.2654370  
H     2.1065550   -0.9042280   -3.0795160  
H     4.7274570   -0.9616210   -1.8150820  
H     0.9464100   -1.4938640    4.3094390  
C     5.6674650   -1.3322930    1.6254700  
C     4.9118630   -0.6596180    0.7083870  
C     5.8371470    0.3792460    0.1895540  
C     7.1115610    0.1389880    0.9264660  
N     7.0023740   -0.8635090    1.7542630  
C     8.2776460    0.9536150    0.7070300  
C     8.1802240    1.9798260   -0.1723240  
O     9.1852580    2.8234680   -0.4657580  
C     6.9037110    2.2650250   -0.9079160  
O     6.8896070    3.2149620   -1.6901820  
C     5.7233280    1.4019850   -0.6808110  
H     9.1924320    0.7449990    1.2508320  
H     8.8131230    3.4508810   -1.1235810  
H     4.8261320    1.6305220   -1.2462140  
H     5.3533300   -2.1706280    2.2349550  
