60


C    -1.5292070    3.4556780   -1.2318690  
C    -2.7789900    2.8940200   -1.2333850  
C    -2.6322100    1.5298190   -0.8114080  
C    -1.2518760    1.3262470   -0.5513540  
N    -0.6066030    2.5180090   -0.8083090  
C    -0.7095140    0.1026220   -0.1070920  
C    -1.6271390   -0.9375320    0.0615530  
O    -1.1912300   -2.1616270    0.4783450  
C    -3.0070670   -0.7533030   -0.1871920  
O    -3.7589280   -1.8973690    0.0333180  
C    -3.5489420    0.4621840   -0.6085400  
H    -3.6984660    3.3980980   -1.4923650  
H     0.3946480    2.6373570   -0.8120120  
H    -1.9680650   -2.7497700    0.4837920  
H    -4.5720400   -1.8530980   -0.4940570  
H    -1.2141190    4.4563260   -1.4914940  
C     1.4863230    0.7354990    0.9799370  
C     0.7289360   -0.0558970    0.1683450  
C     1.6380550   -1.0636240   -0.3819530  
C     2.9750120   -0.7700710    0.1833940  
N     2.8135870    0.3068820    1.0212600  
C     4.1110490   -1.4726010   -0.1225630  
C     3.9801450   -2.6311600   -1.0161530  
O     4.9198390   -3.3577760   -1.2988050  
C     2.5601900   -2.9513500   -1.6121080  
O     2.4539920   -3.9089710   -2.3595490  
C     1.4335680   -2.0974340   -1.2370080  
H     0.4580130   -2.3340430   -1.6440030  
H     1.1764860    1.5752710    1.5881170  
H     3.5750710    0.8263950    1.4333840  
C     6.2751720   -2.0800680    0.9606040  
C     7.4165070   -1.4833970    1.3763230  
C     7.3172940   -0.0771330    1.0526860  
C     5.9986810    0.1002670    0.3919000  
N     5.3861760   -1.1480530    0.3888510  
C     5.5575530    1.2843950   -0.1155080  
C     6.4032310    2.4671390    0.0296420  
O     6.0778850    3.5675090   -0.3903220  
C     7.7812650    2.3065790    0.7653720  
O     8.4866660    3.2899370    0.9234530  
C     8.1645500    0.9697050    1.2287160  
H     8.2538210   -1.9701150    1.8549420  
H     4.6315610    1.3907930   -0.6690450  
H     9.1372930    0.8608230    1.6987520  
H     5.9799410   -3.1170430    1.0085670  
C    -5.5967560    1.2552910   -1.9017630  
C    -4.9865410    0.6235120   -0.8568530  
C    -6.1140500    0.2327220    0.0220900  
C    -7.3284870    0.7202250   -0.6983520  
N    -7.0143550    1.3084330   -1.8192450  
C    -8.6512060    0.5357900   -0.1624010  
C    -8.7692110   -0.0731960    1.0421220  
O    -9.9381690   -0.3023500    1.6613160  
C    -7.5646860   -0.5527000    1.8031490  
O    -7.7499470   -1.0953640    2.8904190  
C    -6.2150190   -0.3673010    1.2243190  
H    -9.5129280    0.8928850   -0.7153720  
H    -9.7064560   -0.7490630    2.5048420  
H    -5.3738270   -0.7391710    1.7999300  
H    -5.1132080    1.6960020   -2.7651800  
