58


C     1.6674870   -0.2135540   -0.0469990  
C     1.0532350    1.0115640   -0.0391250  
C     2.1209260    2.0119830   -0.0923780  
C     3.3952860    1.2607050   -0.1213440  
N     3.0531170   -0.1109040   -0.0714750  
C     4.6162100    1.8298180   -0.2409440  
C     4.6975720    3.2939090   -0.3134770  
O     5.7584370    3.8833840   -0.4312120  
C     3.3640020    4.1102770   -0.2276510  
O     3.4135610    5.3286940   -0.2452660  
C     2.1003820    3.3673970   -0.1384470  
H     5.5435350    1.2717610   -0.2830810  
H     1.1682790    3.9185770   -0.1237140  
H     1.2127570   -1.1908040   -0.0180020  
C    -0.3690530    1.2348740    0.0218140  
C    -1.3862930    0.3080280    0.0434890  
C    -2.6061150    1.0639950    0.0961180  
C    -2.1511900    2.4926720    0.0946670  
N    -0.8519140    2.5825000    0.0549690  
C    -3.0768940    3.5913020    0.1087230  
C    -4.3961590    3.2909260    0.1203880  
O    -5.3739250    4.2019420    0.1409290  
C    -4.8977290    1.8624470    0.1535780  
O    -6.1090090    1.7116550    0.2828460  
C    -3.9337790    0.7337320    0.0992120  
H    -1.3034050   -0.7685620    0.0065910  
H    -2.7142340    4.6129520    0.1040150  
H    -6.2113090    3.6860940    0.1795990  
C    -3.3550630   -2.8703610    2.6709610  
C    -3.2818620   -1.6270020    2.1256070  
C    -4.1427060   -1.6136360    0.9630660  
C    -4.7367500   -2.9711160    0.8794180  
N    -4.2013270   -3.6873900    1.9338110  
C    -5.6412010   -3.3719360   -0.0500940  
C    -6.0705480   -2.4058590   -1.0525940  
O    -6.9048510   -2.6539190   -1.9083120  
C    -5.4157970   -0.9794160   -1.0320970  
O    -5.6570900   -0.2144020   -1.9481480  
C    -4.4765990   -0.6305000    0.0666880  
H    -2.6911970   -0.8020200    2.4930190  
H    -6.0764270   -4.3662560   -0.0716650  
H    -2.8605530   -3.2619120    3.5502070  
H    -4.4647160   -4.6286540    2.1803310  
C     6.8661800   -1.2810530    1.9294840  
C     5.7525210   -0.5662760    1.6295920  
C     5.0879880   -1.3247060    0.5771090  
C     5.9774820   -2.5006850    0.3638390  
N     7.0130390   -2.4699000    1.1562900  
C     5.6710270   -3.5399230   -0.5859320  
C     4.5140650   -3.4476010   -1.2795510  
O     4.0952410   -4.3638240   -2.1714340  
C     3.5708730   -2.3030630   -1.0844950  
O     2.5267890   -2.3004250   -1.7333730  
C     3.9298820   -1.2023210   -0.1286500  
H     5.4146270    0.3547620    2.0805100  
H     6.3536190   -4.3727700   -0.7120840  
H     3.2414650   -4.0343230   -2.5221150  
H     7.6196530   -1.0515560    2.6731250  
