60


C     0.3800000    1.5761140   -0.1173540  
C     1.4687580    0.7913580    0.2175430  
C     2.6532420    1.5396700   -0.0671260  
C     2.2300110    2.8007150   -0.5674270  
N     0.8501870    2.8012960   -0.5741280  
C     3.1187340    3.8168340   -0.9300810  
C     4.4721050    3.5601760   -0.7726610  
O     5.3855490    4.5054050   -1.1267780  
C     4.9234090    2.3210200   -0.2493340  
O     6.2932980    2.2297950   -0.1599440  
C     4.0463110    1.2898020    0.1018340  
H     1.4068620   -0.1841010    0.6781210  
H     0.2762140    3.5026050   -1.0170890  
H     2.7938990    4.7763560   -1.3186040  
H     6.2679260    4.1287750   -0.9622140  
H     6.5330780    1.3034560    0.0218720  
C    -1.5952400    0.0389040   -0.2103930  
C    -1.0360680    1.2741230   -0.0493640  
C    -2.1349900    2.1960870    0.2140150  
C    -3.3773020    1.3884860    0.1810110  
N    -2.9868970    0.0721740   -0.0961380  
C    -4.6094990    1.8837200    0.4477190  
C    -4.7414500    3.3111300    0.7466940  
O    -5.8173570    3.8371410    0.9822580  
C    -3.4417590    4.1866500    0.7706600  
O    -3.5287330    5.3788910    1.0172160  
C    -2.1624720    3.5229900    0.5057190  
H    -5.5105880    1.2855460    0.4420500  
H    -1.2643420    4.1255570    0.5938770  
H    -1.1072060   -0.9005740   -0.4176590  
C    -2.4634670   -3.8319200    1.6792900  
C    -3.5923450   -4.4638650    1.2859930  
C    -4.3175360   -3.4894600    0.4760080  
C    -3.4396220   -2.2823920    0.4973580  
N    -2.3606380   -2.4866830    1.1921690  
C    -3.8153190   -1.0585210   -0.1985960  
C    -4.9753560   -1.0818090   -0.9204020  
O    -5.4187930   -0.0488330   -1.6574080  
C    -5.8644250   -2.2795270   -0.9459830  
O    -6.8907740   -2.2098440   -1.6249170  
C    -5.4798390   -3.4969170   -0.2037150  
H    -3.9106710   -5.4712120    1.5151360  
H    -6.2686150   -0.3596760   -2.0451860  
H    -6.1566680   -4.3440050   -0.2589820  
H    -1.6599070   -4.2151300    2.2958390  
C     5.5457460   -0.2240210    1.5225970  
C     4.5707250    0.0120770    0.5935280  
C     4.2016250   -1.3459910    0.1240900  
C     5.0657170   -2.2617630    0.9198790  
N     5.8444280   -1.5995120    1.7301570  
C     5.0071710   -3.6904810    0.7522290  
C     4.1582000   -4.1855900   -0.1806390  
O     4.0049110   -5.4945870   -0.4438140  
C     3.2980220   -3.2852540   -1.0191740  
O     2.5478310   -3.8067380   -1.8431810  
C     3.3718480   -1.8200760   -0.8232310  
H     5.6401820   -4.3326210    1.3546260  
H     3.3353750   -5.5403020   -1.1608430  
H     2.7340590   -1.2004290   -1.4452340  
H     6.0637600    0.5113860    2.1283000  
