60


C    -2.2008180    2.7012500    1.6704630  
C    -1.0589810    2.1177380    1.1824110  
C    -1.4660610    0.9714490    0.4115500  
C    -2.8829950    0.9188040    0.4889580  
N    -3.2994870    1.9592540    1.2941610  
C    -3.6662570   -0.0605200   -0.1675310  
C    -2.9465810   -0.8984110   -1.0325830  
O    -3.5918790   -1.7857050   -1.8282770  
C    -1.5286870   -0.8610250   -1.1298590  
O    -1.0214680   -1.8062350   -1.9864560  
C    -0.7503510    0.0156270   -0.3718990  
H    -0.0528960    2.4883380    1.3175410  
H    -4.2415880    2.3303740    1.1883590  
H    -2.8856920   -2.2308340   -2.3388040  
H    -0.2716880   -1.3835610   -2.4744180  
H    -2.3225000    3.6000890    2.2588960  
C     2.0250860    0.0931320    3.0041220  
C     3.2166550    0.1129660    2.3561470  
C     2.9355930    0.0478010    0.9389970  
C     1.4575930    0.0013390    0.8153350  
N     0.9718660    0.0049440    2.0990500  
C     0.7296330   -0.0323890   -0.3565390  
C     1.5364630   -0.1478700   -1.5637050  
O     1.0724960   -0.3531310   -2.6878160  
C     3.1054630   -0.0392450   -1.4803430  
O     3.7262010   -0.1012280   -2.5254590  
C     3.7551380    0.0681080   -0.1574100  
H     4.1953850    0.1277100    2.8076510  
H     1.8179040    0.1167480    4.0656730  
H    -0.0059350    0.1328670    2.3190700  
C     6.7801230   -2.4913080    1.7878270  
C     7.9385680   -1.9216110    1.3857490  
C     7.5366250   -0.7764000    0.5752630  
C     6.0361400   -0.8165750    0.6036550  
N     5.6061730   -1.8189110    1.3127670  
C     5.2253170    0.1621670   -0.1062940  
C     5.9100360    1.1310960   -0.7814290  
O     5.3156720    2.1340280   -1.4391350  
C     7.4122800    1.1931700   -0.8199430  
O     7.9272450    2.1141650   -1.4517450  
C     8.2026840    0.1740350   -0.1063300  
H     8.9511370   -2.2336700    1.6003800  
H     6.0458690    2.6548220   -1.8415250  
H     9.2841170    0.2490270   -0.1675510  
H     6.6486300   -3.3712200    2.4063200  
C    -7.1043330    2.7856200   -0.0853750  
C    -8.1573380    1.9395120   -0.0995600  
C    -7.5746280    0.6049850   -0.0313680  
C    -6.0899900    0.8418160   -0.0212610  
N    -5.8378280    2.1229760   -0.0270120  
C    -5.1234150   -0.2482910    0.0098840  
C    -5.6677950   -1.4920400    0.2089140  
O    -4.9413880   -2.5993370    0.3937660  
C    -7.1464050   -1.7521600    0.2380330  
O    -7.5204330   -2.9131470    0.4055900  
C    -8.0900360   -0.6314680    0.0868010  
H    -9.2108400    2.1790410   -0.1347120  
H    -5.5956720   -3.3286860    0.4785290  
H    -9.1508690   -0.8606460    0.1127660  
H    -7.1143520    3.8686630   -0.1107730  
