60


C     0.5479080   -2.2364900   -0.0253680  
C     1.1239240   -3.5120530   -0.1186590  
C     2.5244800   -3.3558970   -0.0969740  
C     2.7908750   -1.9581230    0.0222590  
N     1.5893790   -1.3182100    0.0655860  
C     4.0999770   -1.4125290    0.0500650  
C     5.1438700   -2.3472040   -0.0390390  
O     6.4270820   -1.9527310    0.0423680  
C     4.8822250   -3.7525740   -0.1551660  
O     6.0338570   -4.5031130   -0.2197580  
C     3.6083590   -4.2632210   -0.1797680  
H     0.5859880   -4.4464840   -0.1495420  
H     1.4269100   -0.3234590    0.1518170  
H     6.9871730   -2.7459530   -0.0445970  
H     5.8159030   -5.4444020   -0.2917750  
H     3.4369890   -5.3337390   -0.2633080  
C    -3.3869460   -4.2564970   -0.8415480  
C    -2.0480740   -4.0193130   -0.7944850  
C    -1.9052470   -2.6646130   -0.2841270  
C    -3.2908130   -2.2243580   -0.0880130  
N    -4.1572720   -3.1573360   -0.4015400  
C    -3.6273270   -0.8837520    0.3760310  
C    -2.5864540   -0.0419350    0.6500270  
O    -2.7489520    1.2143360    1.1236540  
C    -1.1848430   -0.4440650    0.4407390  
O    -0.3251310    0.4211740    0.6776340  
C    -0.8342920   -1.8482990    0.0131560  
H    -1.2617970   -4.6779230   -1.1307570  
H    -1.8407320    1.5803020    1.1911660  
H    -3.8959320   -5.1511500   -1.1782990  
C    -5.9687370   -1.3476860    1.0467450  
C    -7.1772220   -0.7379930    1.0477290  
C    -7.0155470    0.5630410    0.4419760  
C    -5.5805710    0.6764860    0.0827450  
N    -4.9722060   -0.5152120    0.5051590  
C    -5.0560420    1.7273630   -0.5924610  
C    -5.9367850    2.8466280   -0.9356810  
O    -5.5389790    3.8324710   -1.5363850  
C    -7.4462200    2.7677410   -0.5140800  
O    -8.1865450    3.7024300   -0.7787050  
C    -7.9014140    1.5562890    0.1677170  
H    -8.0993260   -1.1550990    1.4262190  
H    -4.0158720    1.8010810   -0.8780420  
H    -8.9554670    1.4825200    0.4176390  
H    -5.6912330   -2.3326630    1.3868250  
C     4.3290640    0.0230340    0.1568670  
C     3.5782850    0.9480650    0.8342710  
C     4.2053850    2.2259300    0.5805970  
C     5.3594790    1.8928940   -0.3164080  
N     5.4331460    0.6179860   -0.5564040  
C     6.2421120    2.9151490   -0.8194060  
C     6.0060850    4.1916460   -0.4369490  
O     6.7442950    5.2437210   -0.8168180  
C     4.8583790    4.5550760    0.4795520  
O     4.7289850    5.7440270    0.7704030  
C     3.9636780    3.4992580    0.9682690  
H     2.7355940    0.7751810    1.4894200  
H     7.0649390    2.6493510   -1.4734660  
H     6.3279720    6.0214340   -0.3809730  
H     3.1453460    3.7998990    1.6152370  
