62


C     1.9268150   -0.6261980    0.1296880  
C     1.0097960    0.3863160   -0.0038360  
C     1.7769780    1.6135020   -0.1333410  
C     3.1480950    1.2683970   -0.0614670  
N     3.2225740   -0.1199310    0.1101300  
C     4.1668960    2.2164760   -0.1937250  
C     3.7937910    3.5421050   -0.3681030  
O     4.7547460    4.5022260   -0.4984570  
C     2.4262900    3.9092870   -0.4100070  
O     2.2116350    5.2628540   -0.5772200  
C     1.4197920    2.9660010   -0.2948910  
H     5.2176520    1.9638810   -0.1479190  
H     4.2978840    5.3544640   -0.6038500  
H     1.2592230    5.4382640   -0.6033340  
H     0.3757180    3.2639310   -0.3414970  
H     1.7650240   -1.6887400    0.2119880  
C    -1.8046500   -1.7899190    2.7399890  
C    -0.6922920   -1.2446390    2.1552720  
C    -1.1327860   -0.5246810    0.9927410  
C    -2.5433380   -0.6617730    0.9321520  
N    -2.9236030   -1.4390480    2.0067750  
C    -3.3394800   -0.0980860   -0.0896920  
C    -2.6479150    0.6349860   -1.0577850  
O    -3.3395230    1.2503810   -2.0555980  
C    -1.2418850    0.7892950   -1.0069170  
O    -0.7338420    1.5351840   -2.0558240  
C    -0.4550580    0.2263380   -0.0034050  
H     0.3234640   -1.3343230    2.5120480  
H    -3.8698110   -1.7248930    2.2027640  
H    -2.6822160    1.5844090   -2.6913780  
H     0.2304560    1.4188850   -2.0857990  
H    -1.9002570   -2.3997430    3.6272770  
C    -6.6665550    0.7426040    2.7423330  
C    -5.4538980    0.6397810    2.1416740  
C    -5.6636340    0.0248910    0.8423470  
C    -7.1219000   -0.2152580    0.7352260  
N    -7.6679530    0.2199630    1.9276690  
C    -7.7521810   -0.7332800   -0.3523660  
C    -6.9406420   -1.0932310   -1.5021620  
O    -7.4057440   -1.5175150   -2.5504600  
C    -5.3785490   -0.9418860   -1.3838600  
O    -4.6881770   -1.4103880   -2.2688800  
C    -4.7984810   -0.2914110   -0.1719430  
H    -4.5078100    0.9678830    2.5445880  
H    -8.8279320   -0.8669480   -0.4129480  
H    -6.9216910    1.1546230    3.7097870  
H    -8.6556780    0.2549140    2.1247040  
C     4.2235840   -3.7642710   -2.0079370  
C     5.4670530   -4.0180990   -1.5425740  
C     5.7486620   -2.9430350   -0.5949770  
C     4.5100780   -2.1055280   -0.6219580  
N     3.6274060   -2.5872470   -1.4440830  
C     4.3852230   -0.9044110    0.1963110  
C     5.4353630   -0.6020380    1.0155750  
O     5.4486430    0.4431060    1.8618910  
C     6.6815880   -1.4236790    1.0442510  
O     7.5745440   -1.0770370    1.8197060  
C     6.7942020   -2.6224580    0.1888110  
H     6.1293190   -4.8309720   -1.8059420  
H     6.3260500    0.3999520    2.3042860  
H     7.7187220   -3.1885400    0.2486720  
H     3.6488770   -4.3302670   -2.7306990  
