58


C     0.4850810    1.8562230   -0.1857200  
C     1.8048170    1.4502580   -0.1419980  
C     1.7764870    0.0302360   -0.0545630  
C     0.3108670   -0.3243580   -0.0733960  
N    -0.4245610    0.7466940   -0.1440070  
C    -0.1699940   -1.6994380   -0.0135940  
C     0.8201720   -2.6546860    0.0655620  
O     0.6131630   -3.9612800    0.0959330  
C     2.3015610   -2.3185310    0.1078420  
O     3.0624890   -3.2767190    0.2534660  
C     2.7538950   -0.9291440    0.0118570  
H     2.6854460    2.0754550   -0.1416000  
H     1.5166880   -4.3574750    0.1734150  
C     0.6196830    4.3707610   -0.4292740  
C    -0.0512090    3.1745070   -0.2620420  
C    -1.4699530    3.5769310   -0.1806630  
C    -1.4342460    5.0579960   -0.3264160  
N    -0.2008290    5.4979810   -0.4695390  
C    -2.6210700    5.8568130   -0.2984450  
C    -3.8052590    5.2140050   -0.1263880  
O    -4.9919990    5.8265050   -0.0812020  
C    -3.8759920    3.7147030    0.0345010  
O    -4.9866380    3.2126480    0.1819090  
C    -2.6291990    2.9192320    0.0070540  
H    -2.5576500    6.9333760   -0.4097600  
H    -5.6565140    5.1138110    0.0518200  
H    -2.6964530    1.8459790    0.1397760  
H     1.6900430    4.5038630   -0.5391720  
C     5.5830150    1.5354380    2.4779380  
C     4.4391940    0.9763460    2.0133240  
C     4.8493890    0.1654050    0.8731820  
C     6.3334690    0.3634510    0.8066560  
N     6.7531120    1.1637610    1.7448870  
C     7.1451820   -0.2954360   -0.1820740  
C     6.5238440   -1.1114040   -1.0643310  
O     7.1525070   -1.7782030   -2.0443030  
C     5.0326450   -1.3174140   -1.0447560  
O     4.5467560   -1.9935420   -1.9453630  
C     4.2000510   -0.6603820    0.0118020  
H     3.4356750    1.0918600    2.3959570  
H     8.2165210   -0.1298650   -0.2028640  
H     6.4475420   -2.2537910   -2.5357750  
H     5.6983320    2.2051430    3.3221090  
C    -1.5890220   -2.0087810   -0.0400020  
C    -2.6214530   -1.2312830   -0.4955310  
C    -3.8204140   -2.0106790   -0.2940920  
C    -3.3309800   -3.2824520    0.3299860  
N    -2.0412760   -3.2822710    0.4749720  
C    -4.2405000   -4.3365460    0.7053680  
C    -5.5576620   -4.1442580    0.4625450  
O    -6.5185080   -5.0344540    0.7507550  
C    -6.0793920   -2.8746720   -0.1726690  
O    -7.2955560   -2.7961800   -0.3500870  
C    -5.1370760   -1.8106950   -0.5367570  
H    -2.5496450   -0.2508040   -0.9365420  
H    -3.8620050   -5.2455770    1.1592600  
H    -7.3566630   -4.6092560    0.4596370  
H    -5.5497220   -0.9089670   -0.9787770  
