62


C     0.2984860    2.0415730   -0.6914310  
C    -1.0588220    1.8131710   -0.7856550  
C    -1.2748170    0.4064990   -0.6337890  
C    -0.0072370   -0.1874610   -0.4263410  
N     0.9274970    0.8245450   -0.4462790  
C     0.1987940   -1.5825460   -0.2705040  
C    -0.9719220   -2.3657210   -0.3093510  
O    -0.9132810   -3.7043850   -0.1287370  
C    -2.2488760   -1.7741520   -0.4859500  
O    -3.2757250   -2.6984630   -0.4947420  
C    -2.4421830   -0.4041960   -0.6479770  
H    -1.8183290    2.5745540   -0.8922140  
H     1.9211980    0.6599950   -0.5267460  
H    -1.8204550   -4.0438930   -0.2367950  
H    -4.1020330   -2.2545570   -0.7500880  
C     0.7601780    4.3303420   -1.6281540  
C     1.0530840    3.2780210   -0.8077150  
C     2.2504210    3.6631860   -0.0607090  
C     2.6190660    5.0230040   -0.5301080  
N     1.6603090    5.3757170   -1.4581130  
C     3.6931200    5.7251430   -0.0876700  
C     4.5470970    5.1224270    0.9313130  
O     5.5380020    5.6742230    1.3843760  
C     4.1573190    3.6979200    1.4693600  
O     4.8467480    3.1790240    2.3324020  
C     2.9725080    3.0399540    0.9063120  
H     3.9452530    6.7183820   -0.4464260  
H     2.7063530    2.0665030    1.3050860  
H    -0.0429520    4.4182630   -2.3473110  
H     1.6754800    6.2212410   -2.0065360  
C     1.5270480   -2.1425230   -0.1051650  
C     2.6184740   -1.5693260    0.5076020  
C     3.6992720   -2.5093900    0.3561740  
C     3.0909740   -3.6372000   -0.4236810  
N     1.8345590   -3.4284460   -0.6820700  
C     3.8667650   -4.7887380   -0.8104200  
C     5.1616400   -4.8302570   -0.4202060  
O     6.0045860   -5.8361470   -0.6948020  
C     5.7969080   -3.7156060    0.3848770  
O     6.9845340   -3.8575690    0.6854220  
C     4.9964320   -2.5487040    0.7513290  
H     2.6464810   -0.6621100    1.0953050  
H     3.4073860   -5.5867400   -1.3829640  
H     6.8563030   -5.5698030   -0.2778420  
H     5.4870060   -1.7642160    1.3194450  
C    -4.1536040    1.0344530   -1.8546080  
C    -3.7878010    0.1535540   -0.8564920  
C    -4.9926040   -0.1059330   -0.0891460  
C    -6.0391550    0.6444220   -0.6839490  
N    -5.4950430    1.3272390   -1.7540050  
C    -7.3477000    0.6497070   -0.1858560  
C    -7.6063560   -0.1149830    0.9406360  
O    -8.8634280   -0.1486350    1.4649980  
C    -6.5683720   -0.8619430    1.5615330  
O    -6.9806540   -1.5611050    2.6773730  
C    -5.2771330   -0.8642740    1.0683750  
H    -6.0067410    1.9285670   -2.3809080  
H    -8.1485230    1.2250330   -0.6389620  
H    -8.8342880   -0.7207570    2.2514830  
H    -6.2244020   -2.0182820    3.0745850  
H    -4.4984500   -1.4345980    1.5683120  
H    -3.5528390    1.4509350   -2.6502640  
