60


C    -1.9449330   -0.5462720   -0.5238580  
C    -3.2110260   -0.0235970   -0.3092280  
C    -3.0490110    1.4211790   -0.2571590  
C    -1.6781490    1.6961210   -0.4467730  
N    -1.0130630    0.4637450   -0.5950250  
C    -1.1683160    2.9957270   -0.5233610  
C    -2.0661920    4.0420830   -0.3596070  
O    -1.6216600    5.3268160   -0.4171400  
C    -3.4433000    3.7815940   -0.1400480  
O    -4.2078390    4.9174850    0.0056350  
C    -3.9437140    2.4920920   -0.0952840  
H    -0.1248000    3.2153100   -0.7145420  
H    -2.3917710    5.9077800   -0.2884180  
H    -5.1350520    4.6698410    0.1408090  
H    -4.9994390    2.2903000    0.0537490  
H    -1.6216970   -1.5748540   -0.5882750  
C     0.9069420   -0.5931570   -1.7438750  
C     0.3470540    0.2614050   -0.8451920  
C     1.4760190    0.8153540   -0.0720810  
C     2.6599510    0.1720180   -0.6942210  
N     2.3195350   -0.6397190   -1.6574730  
C     4.0077290    0.4511320   -0.2257590  
C     4.1374050    1.3178470    0.8250040  
O     5.3220200    1.6981690    1.3340860  
C     2.9554160    1.9173380    1.4988990  
O     3.1564430    2.6871320    2.4399090  
C     1.5931160    1.6226420    0.9972740  
H     5.1013180    2.3064630    2.0749070  
H     0.7620680    2.1019640    1.5042990  
H     0.4000270   -1.2027090   -2.4811210  
C     5.2630780   -0.3115740   -2.2291260  
C     6.3972100   -0.9837940   -2.5353900  
C     7.0271830   -1.3704480   -1.2932860  
C     6.1558230   -0.8548820   -0.2090160  
N     5.0961090   -0.1895620   -0.8386970  
C     6.3781230   -1.0779360    1.1089200  
C     7.5702170   -1.8352550    1.4964690  
O     7.8423640   -2.0799270    2.6612100  
C     8.5273900   -2.3518350    0.3646590  
O     9.5335160   -2.9704690    0.6741370  
C     8.1570180   -2.0755410   -1.0243860  
H     6.7616450   -1.1988230   -3.5295440  
H     5.7334850   -0.7159090    1.8986980  
H     8.8017900   -2.4653660   -1.8061780  
H     4.5181440    0.1168440   -2.8820410  
C    -4.4155210   -0.7865620   -0.1552440  
C    -4.6001640   -2.1506570   -0.2209100  
C    -5.9948070   -2.3739450    0.0061820  
C    -6.5629620   -0.9936380    0.2029330  
N    -5.6438510   -0.0783870    0.1077900  
C    -7.9626820   -0.7837150    0.4610970  
C    -8.7556610   -1.8792580    0.5206460  
O   -10.0718040   -1.8480930    0.7514200  
C    -8.2129640   -3.2863060    0.3259290  
O    -9.0356720   -4.2025720    0.4032510  
C    -6.7937520   -3.4741320    0.0664050  
H    -3.8539250   -2.9103880   -0.4080280  
H    -8.3504810    0.2192250    0.6004330  
H   -10.3519770   -2.7937190    0.7327930  
H    -6.4385140   -4.4909830   -0.0674350  
