60


C     0.7042340   -0.3845880   -0.9477190  
C     0.1920890    0.7718500   -0.3817160  
C     1.3128390    1.4220070    0.2688720  
C     2.4461930    0.6005100    0.0787560  
N     2.0441280   -0.4917050   -0.6606270  
C     3.7488320    0.9208640    0.5465440  
C     3.8587040    2.1400910    1.2423590  
O     5.0339980    2.5294470    1.7798360  
C     2.7183940    2.9627680    1.4505060  
O     2.9968860    4.1096700    2.1676000  
C     1.4644170    2.6234840    0.9897980  
H     2.6845470   -1.1556030   -1.0715970  
H     4.8882710    3.4073330    2.1780700  
H     2.2452550    4.7187330    2.1118270  
H     0.6223120    3.2889740    1.1436440  
H     0.2193550   -1.1116380   -1.5842020  
C    -3.4372280   -1.5775490    0.1121230  
C    -4.4064500   -0.6460790   -0.1752330  
C    -3.6976620    0.6106220   -0.4301690  
C    -2.2541580    0.3027950   -0.3145280  
N    -2.1752840   -1.0475780   -0.0179590  
C    -1.2137340    1.1851880   -0.4472540  
C    -1.6015880    2.5903310   -0.6815070  
O    -0.7931810    3.4986860   -0.7963710  
C    -3.1304910    2.9511270   -0.7763450  
O    -3.4323200    4.1236710   -0.9433160  
C    -4.1182410    1.8871940   -0.6472290  
H    -5.1613800    2.1571840   -0.7375370  
H    -3.5750170   -2.6040270    0.4153610  
H    -1.3176470   -1.4971050    0.2690580  
C    -6.6712450   -3.4706470    2.2843630  
C    -7.9465500   -3.2295050    1.9088760  
C    -7.8523260   -2.1934310    0.8857470  
C    -6.3852670   -1.9124470    0.7766080  
N    -5.7077520   -2.6633590    1.5958520  
C    -5.8436560   -0.9103990   -0.1452360  
C    -6.7697630   -0.2970750   -0.9459970  
O    -6.4537510    0.5880870   -1.9123120  
C    -8.2361690   -0.5603870   -0.8530980  
O    -8.9798440    0.0515540   -1.6229390  
C    -8.7473950   -1.5447300    0.1203810  
H    -8.8531800   -3.6924010    2.2728590  
H    -7.3156810    0.8533880   -2.3060030  
H    -9.8211870   -1.7023790    0.1529960  
H    -6.3123080   -4.1784940    3.0216990  
C     4.8773430    0.0415820    0.3014710  
C     4.8743730   -1.3318800    0.2042380  
C     6.2314130   -1.7123090   -0.0921260  
C     6.9644080   -0.4049130   -0.1713890  
N     6.1828030    0.6059360    0.0652190  
C     8.3710570   -0.3486700   -0.4791600  
C     9.0182050   -1.5220590   -0.6679670  
O    10.3238790   -1.6300260   -0.9509740  
C     8.3091640   -2.8570180   -0.5741390  
O     8.9941240   -3.8644510   -0.7650300  
C     6.8781160   -2.8899530   -0.2775450  
H     4.0590240   -2.0069180    0.4259840  
H     8.8758360    0.6088520   -0.5414420  
H    10.4868680   -2.5981540   -1.0265500  
H     6.4021820   -3.8645640   -0.2272170  
