62


C    -0.0178040    1.0888770    1.5755650  
C    -0.0097460    2.1413790    0.6814780  
C    -1.3200070    2.1562790    0.0696340  
C    -2.0662770    1.0990080    0.6437380  
N    -1.2510250    0.4775570    1.5663140  
C    -3.3891010    0.7675440    0.2603430  
C    -3.9353860    1.5644190   -0.7515280  
O    -5.2145960    1.3474120   -1.1799790  
C    -3.1990670    2.6259850   -1.3354570  
O    -3.9017380    3.3091860   -2.3119980  
C    -1.9120970    2.9342100   -0.9429290  
H    -1.4967520   -0.3602670    2.0714530  
H    -5.4110830    2.0336200   -1.8424620  
H    -3.3906170    4.0810330   -2.5965610  
H    -1.3762170    3.7630390   -1.3952280  
H     0.7531370    0.7597190    2.2584160  
C     4.1987540    1.1009260   -0.0684300  
C     4.6910970    2.4006520   -0.2005060  
C     3.5994900    3.2855820   -0.0356660  
C     2.4384600    2.4837230    0.2043060  
N     2.8361600    1.1776550    0.1816180  
C     1.1440260    3.0155620    0.4093060  
C     1.0596780    4.4062790    0.3516340  
O    -0.1370700    5.0271720    0.5470170  
C     2.2070240    5.2227580    0.1042270  
O     1.9146850    6.5722160    0.0863080  
C     3.4621700    4.6930470   -0.0808610  
H     5.7215890    2.6653650   -0.3939290  
H     2.2532680    0.3557810    0.2625500  
H     0.0316010    5.9861620    0.5276730  
H     2.7354830    7.0827120    0.0213630  
H     4.3193150    5.3363320   -0.2655310  
C     4.8247190   -0.1764430   -0.1442100  
C     6.1367220   -0.5246330   -0.3786860  
C     6.1715670   -1.9527790   -0.3409380  
C     4.7467550   -2.3551260   -0.0625750  
N     3.9679520   -1.3179200    0.0513340  
C     4.3625960   -3.7361560    0.0515920  
C     5.3354840   -4.6656510   -0.1009060  
O     5.1390010   -5.9853110   -0.0234250  
C     6.7831820   -4.2931050   -0.3822330  
O     7.5715120   -5.2380590   -0.4996630  
C     7.1470840   -2.8938930   -0.4936560  
H     6.9722150    0.1378460   -0.5560410  
H     3.3311870   -4.0046940    0.2510810  
H     6.0325080   -6.3759470   -0.1781300  
H     8.1873290   -2.6587020   -0.6951230  
C    -4.1201370   -0.6484310    2.2389490  
C    -4.1197340   -0.3221290    0.9132560  
C    -4.9570470   -1.3770740    0.2938420  
C    -5.3671050   -2.2403010    1.4373180  
N    -4.8786930   -1.8052700    2.5660220  
C    -6.1991450   -3.4010300    1.2514930  
C    -6.5871130   -3.7074150   -0.0092570  
O    -7.3566940   -4.7618240   -0.3310330  
C    -6.1724750   -2.8684450   -1.1836420  
O    -6.5622620   -3.2106540   -2.2995610  
C    -5.3269470   -1.6745520   -0.9651640  
H    -6.4868450   -4.0024630    2.1067700  
H    -7.4621250   -4.7160060   -1.3067030  
H    -5.0722140   -1.0794980   -1.8340470  
H    -3.6429590   -0.1036830    3.0459020  
