60


C     0.8870610   -0.0515960   -1.3990010  
C     2.1438070   -0.5463490   -1.2338170  
C     2.8157560    0.2822840   -0.2679980  
C     1.9068550    1.3035120    0.1021480  
N     0.7139890    1.0879890   -0.6037530  
C     2.2114320    2.2789630    1.0541830  
C     3.4893070    2.2616140    1.5900420  
O     3.8569590    3.2027910    2.5007390  
C     4.4374370    1.2817930    1.2037410  
O     5.6514020    1.3945960    1.8456460  
C     4.1166300    0.2563420    0.3023690  
H     2.5496840   -1.4060860   -1.7439960  
H     1.5186150    3.0537680    1.3546350  
H     4.7883030    3.0095310    2.7190830  
H     6.3611820    1.3302410    1.1724400  
H     0.0861730   -0.3705880   -2.0488150  
C    -3.5192330   -0.1332650   -0.1665400  
C    -2.1393490   -0.1768720   -0.2385900  
C    -1.7126880    1.1765840   -0.4080780  
C    -2.9779940    1.9676970   -0.4294190  
N    -4.0247000    1.2055880   -0.2869650  
C    -2.9864490    3.4017920   -0.5666240  
C    -1.7916690    4.0222920   -0.6780000  
O    -1.6374920    5.3473460   -0.8004590  
C    -0.4813620    3.2632000   -0.6893880  
O     0.5358930    3.9291510   -0.8737930  
C    -0.4906330    1.7938650   -0.5157130  
H    -1.5039500   -1.0462880   -0.1532220  
H    -3.9243890    3.9452860   -0.5704070  
H    -0.6689530    5.4879480   -0.9023680  
C    -4.2094050   -2.5521670    0.1492100  
C    -4.4492830   -1.2005810    0.0141880  
C    -5.9232610   -1.0956080    0.0998020  
C    -6.3760210   -2.4976570    0.2856640  
N    -5.3583800   -3.3321270    0.3115740  
C    -7.7615900   -2.8388920    0.4146730  
C    -8.6656710   -1.8273310    0.3620960  
O    -9.9911450   -1.9953620    0.4675750  
C    -8.2389970   -0.3957480    0.1750900  
O    -9.1209800    0.4600440    0.1377400  
C    -6.8001820   -0.0756140    0.0449430  
H    -8.0586160   -3.8730090    0.5491650  
H   -10.3752870   -1.0932790    0.3933490  
H    -6.5038050    0.9582130   -0.0885980  
H    -3.2443140   -3.0456390    0.1408770  
C     3.7833790   -4.1571460    0.3595620  
C     5.0148110   -4.5442360   -0.0382150  
C     5.7529900   -3.3018250   -0.2520070  
C     4.7581250   -2.2243020    0.0579500  
N     3.6197740   -2.7325500    0.4209520  
C     5.0991940   -0.7995510   -0.0219990  
C     6.3984590   -0.5451150   -0.3465080  
O     6.9122740    0.7146460   -0.4300810  
C     7.4092350   -1.5941040   -0.6573720  
O     8.5456950   -1.2232540   -0.9604050  
C     7.0203760   -3.0147190   -0.5990730  
H     5.3986010   -5.5477650   -0.1588040  
H     7.8517740    0.5837770   -0.6992530  
H     7.7842620   -3.7523290   -0.8253730  
H     2.9386700   -4.7793180    0.6290190  
