64


C    -1.8328170   -0.9715540    0.9628130  
C    -2.9913040   -0.6916260    0.2663540  
C    -2.7984010    0.6192750   -0.3113520  
C    -1.5073020    1.0673110    0.0685220  
N    -0.9503610    0.0810670    0.8556720  
C    -0.9801550    2.3337400   -0.2833140  
C    -1.8450050    3.1375200   -1.0241800  
O    -1.4471440    4.4078950   -1.4027180  
C    -3.1377610    2.7122250   -1.4101850  
O    -3.8332970    3.6575660   -2.1446360  
C    -3.6253170    1.4676540   -1.0700360  
H     0.0007860    0.0880480    1.1912770  
H    -2.1747600    4.7852360   -1.9309890  
H    -4.6671430    3.2748030   -2.4550010  
H    -4.6121100    1.1453200   -1.3872280  
H    -1.5552690   -1.8686510    1.4990000  
C    -5.1608560   -2.7592550    3.4844470  
C    -6.1010820   -3.3927760    2.7138380  
C    -5.8492600   -3.0208500    1.3498510  
C    -4.7249770   -2.1554640    1.3567450  
N    -4.3196510   -2.0248800    2.6700200  
C    -4.1807130   -1.5595870    0.1971350  
C    -4.8340990   -1.8683670   -0.9977910  
O    -4.3815790   -1.3500560   -2.1830710  
C    -5.9619180   -2.7287280   -1.0236510  
O    -6.4807410   -2.9228010   -2.2949890  
C    -6.4721420   -3.3112730    0.1201790  
H    -6.8816040   -4.0489880    3.0741240  
H    -3.6033960   -1.3848210    2.9770830  
H    -4.9216340   -1.7532100   -2.8853980  
H    -7.1298470   -3.6409340   -2.2681480  
H    -7.3400590   -3.9656630    0.0681790  
H    -5.0100560   -2.7758280    4.5547820  
C     3.0625450    0.3334660   -0.5417850  
C     1.7236550    0.6773690   -0.6828650  
C     1.5140200    1.9283080   -0.0293950  
C     2.7765430    2.3304400    0.4951850  
N     3.6834800    1.3287170    0.2138710  
C     2.9792670    3.5481060    1.1470820  
C     1.8777170    4.3828360    1.2563190  
O     1.9950340    5.5947820    1.8531060  
C     0.5957900    3.9998060    0.7606410  
O    -0.3818630    4.9399670    0.9926300  
C     0.3726050    2.7695500    0.1450420  
H     0.9821750    0.0755940   -1.1883410  
H     4.6840660    1.4541970    0.2499660  
H     3.9418450    3.8604130    1.5380380  
H     1.1088190    6.0027680    1.7931800  
H    -0.9203550    5.0219580    0.1739510  
C     3.4679010   -1.6314670   -2.0857590  
C     3.7774930   -0.8102190   -1.0337720  
C     5.0285950   -1.3942240   -0.4800140  
C     5.3092040   -2.5521540   -1.3635020  
N     4.3863900   -2.6814930   -2.2847880  
C     6.4520590   -3.3964800   -1.1567140  
C     7.2671600   -3.1265570   -0.1051580  
O     8.3704980   -3.8390820    0.1970930  
C     6.9919650   -1.9934180    0.8247250  
O     7.7672470   -1.8015790    1.7644950  
C     5.8068590   -1.1369020    0.5889600  
H     6.6370520   -4.2292140   -1.8265070  
H     8.7391880   -3.4131890    1.0010380  
H     5.6294420   -0.3481390    1.3139160  
H     2.6270130   -1.5373290   -2.7618030  
