60


C    -0.9206560   -1.6128890   -0.7823160  
C     0.4620760   -1.6914850   -0.8555530  
C     0.9885760   -0.3773420   -0.6941270  
C    -0.1214890    0.4923660   -0.5099420  
N    -1.2646910   -0.2830010   -0.5351270  
C    -0.0086600    1.8825270   -0.3292430  
C     1.2997640    2.3827820   -0.3214780  
O     1.5050210    3.7063330   -0.1239030  
C     2.4205500    1.5312950   -0.4859750  
O     3.6281950    2.2079600   -0.4542440  
C     2.3106960    0.1523110   -0.6644190  
H     1.0252560   -2.6080250   -0.9557600  
H    -2.1850640    0.0975320   -0.7028370  
H     2.4544200    3.8757400   -0.2637170  
H     4.2851310    1.7158730   -0.9720110  
C    -3.3237110    1.9673980    2.5754530  
C    -4.0263340    3.0225910    2.0920970  
C    -3.3253580    3.5115270    0.9224660  
C    -2.1373060    2.6383940    0.7602950  
N    -2.2130520    1.6987450    1.7752570  
C    -1.1785960    2.7761480   -0.2033390  
C    -1.3916250    3.8591570   -1.1916590  
O    -0.6733000    4.0169900   -2.1620990  
C    -2.6260380    4.8179940   -1.0104340  
O    -2.7567790    5.7518330   -1.7859990  
C    -3.5654650    4.5483150    0.0760210  
H    -4.9436010    3.4227190    2.4986880  
H    -4.4203080    5.2088800    0.1832790  
H    -3.5268520    1.3442570    3.4364070  
H    -1.4542390    1.0804640    2.0208600  
C    -1.8361840   -3.8547130   -1.5262200  
C    -1.9151790   -2.6458110   -0.8901090  
C    -3.2674780   -2.6510450   -0.2770040  
C    -3.8449210   -3.9587290   -0.6833820  
N    -2.9972900   -4.6493820   -1.4022410  
C    -5.1649600   -4.3562150   -0.2789490  
C    -5.8706810   -3.5151410    0.5187130  
O    -7.1129590   -3.7694400    0.9697280  
C    -5.3014370   -2.2119700    0.9786790  
O    -5.9840700   -1.5009490    1.7180940  
C    -3.9439470   -1.8186120    0.5365090  
H    -5.5645010   -5.3114730   -0.6013030  
H    -7.3540290   -2.9952350    1.5226780  
H    -3.5664090   -0.8721450    0.9116700  
H    -1.0046330   -4.2340510   -2.1073630  
C     3.6565060   -1.7316780   -1.7261240  
C     3.4862550   -0.7067090   -0.8393930  
C     4.7269460   -0.7357200   -0.0290730  
C     5.5194900   -1.8601390   -0.6111120  
N     4.8875070   -2.4272360   -1.6017990  
C     6.8107190   -2.2244400   -0.0918840  
C     7.2859140   -1.5325160    0.9718690  
O     8.4684040   -1.7710670    1.5604510  
C     6.5014820   -0.4125120    1.5960900  
O     6.9951940    0.1680030    2.5605630  
C     5.1826890   -0.0440120    1.0337970  
H     7.3644710   -3.0397230   -0.5440900  
H     8.5341070   -1.1212540    2.2940720  
H     4.6569490    0.7800430    1.5044360  
H     2.9644970   -2.0415540   -2.4998800  
