60


C     0.8309710   -1.2571310   -1.1494530  
C     0.2200310   -0.2427690   -0.4211580  
C     1.2892740    0.6587020   -0.0213950  
C     2.4949270    0.1224300   -0.5327280  
N     2.1733430   -1.0335780   -1.2231150  
C     3.7755710    0.6790360   -0.3090160  
C     3.7955680    1.8287460    0.4872750  
O     4.9756360    2.4614720    0.7466800  
C     2.6001740    2.3760780    1.0155040  
O     2.8049590    3.5146360    1.7702220  
C     1.3604130    1.8172250    0.7750970  
H     2.8459430   -1.6246220   -1.6888840  
H     4.7618990    3.2623300    1.2585750  
H     1.9535300    3.9361370    1.9602840  
H     0.4627130    2.2780810    1.1708810  
H     0.3751400   -2.0891750   -1.6656390  
C    -2.8675770   -3.3660480    0.3205930  
C    -1.6677940   -2.7455600    0.2039790  
C    -1.9800290   -1.3303660    0.0285620  
C    -3.4607800   -1.2845010    0.0824000  
N    -3.9744250   -2.4760400    0.2399490  
C    -4.2101220   -0.0403380   -0.0399620  
C    -3.4612720    1.0917580   -0.1546780  
O    -3.9918270    2.3257410   -0.1870510  
C    -1.9649100    1.0798350   -0.2036980  
O    -1.4077260    2.1752980   -0.2851070  
C    -1.2122900   -0.2162910   -0.1701710  
H    -0.6834630   -3.1859620    0.2693420  
H    -3.2324080    2.9336260   -0.3174650  
H    -3.0619490   -4.4208010    0.4748610  
C    -7.4338330   -1.5021420    2.6863230  
C    -6.2374360   -1.2127170    2.1163960  
C    -6.5043510   -0.5380550    0.8640310  
C    -7.9832800   -0.4517460    0.7547770  
N    -8.4850830   -1.0585100    1.8872310  
C    -8.6595750    0.1394080   -0.2641710  
C    -7.8877260    0.7335220   -1.3425000  
O    -8.3931240    1.3126800   -2.2925790  
C    -6.3200770    0.6207050   -1.2828990  
O    -5.6793730    1.0220650   -2.2374360  
C    -5.6824530   -0.0030440   -0.0916010  
H    -5.2645560   -1.4688420    2.5033240  
H    -9.7425380    0.2055410   -0.3041510  
H    -7.6453540   -2.0071760    3.6195100  
H    -9.4645270   -1.1442990    2.1070560  
C     5.1346100   -0.4050070   -2.1646490  
C     4.9796030    0.0882830   -0.9014450  
C     6.2837460   -0.1858070   -0.2558860  
C     7.0866670   -0.8558660   -1.3186330  
N     6.4096380   -0.9761500   -2.4272230  
C     8.4377050   -1.2954640   -1.0842560  
C     8.9622640   -1.0999740    0.1489430  
O    10.2040300   -1.4636020    0.5099820  
C     8.1707230   -0.4434380    1.2450740  
O     8.7136310   -0.3032300    2.3396540  
C     6.7878330    0.0082760    0.9761910  
H     8.9973540   -1.7721890   -1.8813730  
H    10.2917350   -1.1931360    1.4502770  
H     6.2591300    0.5007560    1.7838810  
H     4.4139350   -0.3672520   -2.9743820  
