62


C    -1.2052370    1.0967980   -0.2560730  
C     0.0333690    1.7257620   -0.1548470  
C     1.0299150    0.7317050   -0.3262470  
C     0.3478180   -0.5058840   -0.5381860  
N    -0.9918640   -0.2558840   -0.4943320  
C     1.0300370   -1.7166410   -0.7613360  
C     2.4219290   -1.6710300   -0.7610980  
O     3.1346030   -2.8028000   -0.9656650  
C     3.1112830   -0.4423190   -0.5343740  
O     4.4766490   -0.5842020   -0.5439270  
C     2.4544230    0.7651960   -0.3261920  
H     0.1967830    2.7771430    0.0313440  
H    -1.7584030   -0.9119620   -0.5641880  
H     4.0776650   -2.5744420   -0.8725670  
H     4.8831360    0.2565370   -0.2671030  
C     2.7450670    3.5640060    3.2012300  
C     2.4102240    2.5332400    2.3619850  
C     3.1348130    2.7342420    1.1389040  
C     3.9052640    3.9170080    1.3019240  
N     3.6449700    4.4004010    2.5670390  
C     4.7552340    4.4170440    0.3079900  
C     4.8300710    3.7106290   -0.8813890  
O     5.6298380    4.1590430   -1.8910360  
C     4.0768570    2.5217200   -1.0659950  
O     4.2539610    1.9356220   -2.3044530  
C     3.2288220    2.0119170   -0.0800350  
H     1.7278510    1.7265890    2.5871080  
H     4.0547610    5.2288190    2.9691800  
H     5.3384470    5.3239360    0.4310250  
H     5.5013060    3.5606200   -2.6475600  
H     3.5557560    1.2735790   -2.4425550  
H     2.4158660    3.7760510    4.2086220  
C    -2.5458060    1.5790570   -0.1605930  
C    -3.0333460    2.8436110    0.0663300  
C    -4.4607270    2.7144970    0.0557180  
C    -4.7034640    1.2504540   -0.1999650  
N    -3.5855600    0.5954070   -0.3255010  
C    -6.0330120    0.7091120   -0.2837520  
C    -7.0658560    1.5701440   -0.1235760  
O    -8.3544540    1.2206780   -0.1743810  
C    -6.8552730    3.0532150    0.1353660  
O    -7.8761620    3.7344990    0.2633090  
C    -5.5006460    3.5776430    0.2164130  
H    -2.4675090    3.7511160    0.2228800  
H    -6.1844250   -0.3487350   -0.4670860  
H    -8.8486880    2.0605120   -0.0215560  
H    -5.3838430    4.6405000    0.4026060  
C    -0.4335110   -3.2193080   -2.1248530  
C    -0.9701230   -4.4627550   -2.0635660  
C    -0.5422450   -5.0562360   -0.8141480  
C     0.2996460   -4.0373150   -0.1403170  
N     0.3274910   -2.9279090   -0.9843130  
C     0.8883060   -4.2079180    1.0686710  
C     0.6926640   -5.4792190    1.7613750  
O     1.1828080   -5.7235960    2.8534640  
C    -0.1920840   -6.5770510    1.0637770  
O    -0.3639880   -7.6460150    1.6288740  
C    -0.7784480   -6.2664440   -0.2421800  
H    -1.5954750   -4.9283850   -2.8115310  
H     1.5025290   -3.4509210    1.5433520  
H    -1.3926680   -7.0279220   -0.7132970  
H    -0.5101650   -2.4722480   -2.9041640  
