58


C    -3.3627570   -0.8913200    1.7033290  
C    -2.0786610   -0.6656420    1.3335520  
C    -2.0877550    0.3776280    0.3273060  
C    -3.4984830    0.7578450    0.1196150  
N    -4.2313710   -0.0566550    0.9861850  
C    -3.9462240    1.7218690   -0.7197690  
C    -2.9543210    2.4536370   -1.5008820  
O    -3.2316270    3.3789810   -2.2436290  
C    -1.4435520    2.0307790   -1.3744200  
O    -0.6226130    2.5420540   -2.1106080  
C    -1.0847750    0.9909860   -0.3743870  
H    -1.2060980   -1.1594450    1.7344430  
H    -4.9937780    1.9778280   -0.8332040  
H    -3.7752350   -1.5765310    2.4313030  
C    -6.2892170    0.8202430    2.0087670  
C    -7.6177140    0.5857890    1.9247460  
C    -7.8238190   -0.4702760    0.9475230  
C    -6.4837060   -0.8501500    0.4454210  
N    -5.5863420   -0.0268360    1.1290580  
C    -6.2373980   -1.8081190   -0.4773950  
C    -7.3825000   -2.5352770   -1.0309290  
O    -7.2653630   -3.4203680   -1.8613370  
C    -8.8194990   -2.1507850   -0.5208820  
O    -9.7855430   -2.7439790   -0.9692580  
C    -8.9412400   -1.0872380    0.4858480  
H    -8.3918210    1.0930130    2.4823910  
H    -5.2429060   -2.0632490   -0.8276670  
H    -9.9385870   -0.8320370    0.8307680  
H    -5.7323050    1.5231310    2.6134620  
C     0.6884710   -0.7463210   -0.4800240  
C     2.0341800   -0.8523270   -0.3407940  
C     2.5455680    0.4564730   -0.0116250  
C     1.3754040    1.3593990    0.0064580  
N     0.2529610    0.5670150   -0.2759600  
C     1.4276750    2.6857410    0.2778270  
C     2.7343360    3.2848540    0.5351600  
O     2.8852010    4.4789690    0.7338460  
C     3.9884370    2.3455370    0.5900010  
O     5.0350310    2.8098670    0.9976350  
C     3.8227710    0.9082180    0.2342850  
H     2.6183300   -1.7470950   -0.4900140  
H     0.5621020    3.3371250    0.2694970  
H    -0.0367060   -1.5025260   -0.7486470  
C     4.9902120    0.0422800    0.2174670  
C     5.1024290   -1.2496280    0.6598110  
C     6.4724400   -1.6361540    0.4023540  
C     7.0766140   -0.4256460   -0.2424370  
N     6.2213540    0.5463590   -0.3437960  
C     8.4505060   -0.4132870   -0.6793120  
C     9.1884870   -1.5276790   -0.4668960  
O    10.4783420   -1.6571160   -0.8114080  
C     8.6103290   -2.7564230    0.1943860  
O     9.3580090   -3.7231970    0.3423550  
C     7.2034970   -2.7532380    0.6187980  
H     4.3553920   -1.8408660    1.1702920  
H     8.8619970    0.4731720   -1.1486830  
H    10.7313530   -2.5648830   -0.5307790  
H     6.8221220   -3.6591170    1.0802430  
