58


C    -1.4642380   -1.0232640    2.8963950  
C    -2.6689890   -0.9683340    2.2640070  
C    -2.4651470   -0.3089940    0.9964510  
C    -1.0287370    0.0309950    0.9442640  
N    -0.4718980   -0.4634090    2.1101450  
C    -0.4076190    0.7520330   -0.0384140  
C    -1.2552460    1.1807040   -1.1687830  
O    -0.8153230    1.7930600   -2.1242830  
C    -2.7672470    0.7539560   -1.1891790  
O    -3.3931940    0.9563780   -2.2108390  
C    -3.3391020    0.0480520   -0.0115430  
H    -3.6082430   -1.3264100    2.6542840  
H    -1.2189020   -1.4278000    3.8694520  
H     0.4750480   -0.2767250    2.4027640  
C     3.3489900   -1.6246390    0.0965340  
C     2.0542290   -1.2228710    0.0765620  
C     2.0420940    0.2224830    0.0501590  
C     3.4620410    0.6439140    0.0517540  
N     4.2241700   -0.5309360    0.1167370  
C     3.8798710    1.9270560   -0.0746660  
C     2.8692880    2.9776210   -0.1681990  
O     3.1519930    4.1548860   -0.3205720  
C     1.3613910    2.5723900   -0.0445300  
O     0.5269090    3.4486540    0.0810350  
C     1.0139070    1.1265700   -0.0175910  
H     1.1909070   -1.8706980    0.0498620  
H     4.9203480    2.2201100   -0.1184060  
H     3.7601040   -2.6223030    0.0857350  
C     6.7767620   -3.1075090   -2.2434240  
C     8.0066230   -2.7082550   -1.8499120  
C     7.7735900   -1.6705450   -0.8487980  
C     6.2841840   -1.5751540   -0.7725730  
N     5.7090530   -2.4142390   -1.5794660  
C     5.6264400   -0.6312810    0.1217540  
C     6.4292620    0.1217770    0.9292450  
O     5.9665030    0.9909930    1.8425130  
C     7.9214260    0.0437380    0.8565110  
O     8.5624520    0.7631730    1.6219010  
C     8.5652570   -0.8965940   -0.0836840  
H     8.9681340   -3.0631030   -2.1935510  
H     6.7698210    1.3893660    2.2485680  
H     9.6505360   -0.9197270   -0.0953720  
H     6.5178130   -3.8622660   -2.9754340  
C    -4.7550530   -0.2622340    0.0178540  
C    -5.3742490   -1.3789510    0.5212530  
C    -6.7874520   -1.1788970    0.3031480  
C    -6.8679580    0.1688860   -0.3478020  
N    -5.6935750    0.6956930   -0.5187600  
C    -8.1352100    0.7537920   -0.7101500  
C    -9.2536120    0.0326210   -0.4646900  
O   -10.4976370    0.4428880   -0.7552130  
C    -9.2013080   -1.3350790    0.1751080  
O   -10.2744320   -1.9113190    0.3606730  
C    -7.9028300   -1.9056530    0.5503370  
H    -4.9081280   -2.2672030    0.9233880  
H    -8.1672500    1.7333020   -1.1738660  
H   -11.0839760   -0.2904740   -0.4621970  
H    -7.9067620   -2.8855350    1.0180870  
