58


C    -1.8316320    0.1114760    0.9128880  
C    -1.2075920    1.2166930    0.4097250  
C    -2.2667580    2.0628770   -0.1491180  
C    -3.5405680    1.3423660    0.0811120  
N    -3.2120920    0.1439100    0.7239840  
C    -4.7659000    1.8159860   -0.2546610  
C    -4.8484830    3.1015610   -0.9472590  
O    -5.9071820    3.6007110   -1.2932090  
C    -3.5077700    3.8526070   -1.2594730  
O    -3.5452520    4.9037690   -1.8763630  
C    -2.2483580    3.2568440   -0.7910420  
H    -5.6902770    1.2939230   -0.0351870  
H    -1.3391100    3.8221700   -0.9564670  
H    -1.3980830   -0.7375400    1.4240870  
C     2.1984340   -1.3961230   -0.6144780  
C     0.9763700   -0.8445660   -0.4439430  
C     1.1561930    0.4881700    0.0872880  
C     2.6180590    0.6907010    0.2060200  
N     3.2217810   -0.5172760   -0.2252860  
C     3.1926310    1.8394910    0.6353260  
C     2.3144370    2.9516460    0.9965240  
O     2.7404110    4.0337000    1.3639530  
C     0.7629180    2.7540230    0.9066720  
O     0.0380500    3.6712720    1.2498300  
C     0.2385610    1.4503940    0.4279020  
H     0.0352310   -1.3120380   -0.6914720  
H     4.2630500    1.9663150    0.7100300  
H     2.4563850   -2.3695260   -1.0029270  
C     4.5573750   -0.8480580   -0.2939810  
C     5.1055170   -2.0398390   -0.7221750  
C     6.5162320   -1.8587450   -0.5934090  
C     6.6684700   -0.4585460   -0.0553250  
N     5.5081140    0.1175030    0.1140190  
C     7.9509620    0.1169250    0.2181320  
C     9.0369450   -0.6569340   -0.0290930  
O    10.2950300   -0.2716990    0.1709330  
C     8.9220550   -2.0783920   -0.5732310  
O     9.9876880   -2.6723590   -0.7527110  
C     7.6083890   -2.6342990   -0.8405040  
H     4.6066830   -2.9279920   -1.0789330  
H     8.0318310    1.1265970    0.6044370  
H    10.8442730   -1.0465180   -0.0998200  
H     7.5585170   -3.6470290   -1.2268700  
C    -4.1190100   -1.3710870    2.4650560  
C    -4.1019120   -0.8201420    1.2217530  
C    -5.1141080   -1.5651560    0.4517890  
C    -5.6605400   -2.5311210    1.4513280  
N    -5.0721770   -2.4115260    2.6109630  
C    -6.7053850   -3.4563850    1.1058420  
C    -7.1522000   -3.4620270   -0.1739540  
O    -8.1094800   -4.2813520   -0.6320250  
C    -6.5886010   -2.5304660   -1.2118040  
O    -7.0341460   -2.6004610   -2.3537360  
C    -5.5342450   -1.5634250   -0.8263310  
H    -7.0982920   -4.1324910    1.8569500  
H    -8.2215520   -4.0590610   -1.5820230  
H    -5.1730250   -0.8912520   -1.5981840  
H    -3.4989030   -1.1011920    3.3117870  
