60


C    -2.4636490    3.6010920   -1.5767900  
C    -1.3523820    2.8984850   -1.1885220  
C    -1.8019550    1.6136050   -0.7354240  
C    -3.2125310    1.5912490   -0.8895300  
N    -3.5836740    2.8127840   -1.4089410  
C    -4.0317740    0.4916430   -0.5422590  
C    -3.3464520   -0.6109480   -0.0133880  
O    -4.0394500   -1.7239530    0.3673530  
C    -1.9412100   -0.6145360    0.1311330  
O    -1.4488540   -1.7992190    0.6612340  
C    -1.1332590    0.4657820   -0.2291270  
H    -0.3325710    3.2514870   -1.2335090  
H    -4.5395600    3.1096630   -1.5340740  
H    -3.3849660   -2.3517450    0.7242100  
H    -0.6104320   -1.6228800    1.1161700  
H    -2.5521550    4.6033160   -1.9713690  
C     1.1419070    1.4067690    0.4260830  
C     0.3239820    0.4331800   -0.0653140  
C     1.2634020   -0.6220170   -0.5011290  
C     2.6210980   -0.0929160   -0.1617520  
N     2.5228490    1.0884930    0.3810020  
C     3.8531210   -0.8413760   -0.4259840  
C     3.6746670   -2.0531670   -1.0663480  
O     4.6435470   -2.8916160   -1.4247710  
C     2.3114220   -2.5743450   -1.4460310  
O     2.2636230   -3.6653360   -2.0141340  
C     1.1023960   -1.7998660   -1.1297670  
H     4.1778290   -3.6474070   -1.8551870  
H     0.1443700   -2.2248640   -1.4091130  
H     0.8449620    2.3613500    0.8426030  
C     5.1466270   -0.3080980   -0.0384000  
C     5.4278080    0.8995380    0.5498970  
C     6.8606630    0.9274110    0.7250380  
C     7.3266920   -0.3855540    0.1759320  
N     6.3378930   -1.0994090   -0.2647790  
C     8.7227660   -0.7483080    0.1706430  
C     9.6042180    0.1432330    0.6795880  
O    10.9300180   -0.0532750    0.7412520  
C     9.1631340    1.4763550    1.2394660  
O    10.0420300    2.2182720    1.6800240  
C     7.7371260    1.8236370    1.2359930  
H     4.7200750    1.6652400    0.8216970  
H     9.0346020   -1.7054060   -0.2323250  
H    11.2902050    0.7628260    1.1559980  
H     7.4578810    2.7887590    1.6474910  
C    -6.1560790    1.0558450   -1.8100340  
C    -5.4807070    0.5228830   -0.7481420  
C    -6.5612610    0.0683490    0.1594540  
C    -7.8179410    0.4244230   -0.5589300  
N    -7.5699340    0.9938080   -1.7068910  
C    -9.1161260    0.1520490    0.0002560  
C    -9.1706550   -0.4233600    1.2251970  
O   -10.3096760   -0.7271030    1.8696610  
C    -7.9223030   -0.7732000    1.9834260  
O    -8.0497120   -1.2901040    3.0924670  
C    -6.6001490   -0.4936660    1.3813960  
H   -10.0096180    0.4159000   -0.5546690  
H   -10.0277440   -1.1267570    2.7216100  
H    -5.7245220   -0.7864880    1.9479240  
H    -5.7260920    1.4709100   -2.7146790  
