60


C     2.1363190   -1.1588000   -1.0578550  
C     0.9363220   -0.5261250   -1.0028620  
C     1.1367000    0.7476220   -0.3535940  
C     2.5146290    0.8441690   -0.0439830  
N     3.1291850   -0.3576580   -0.4760220  
C     3.0719010    1.9802750    0.5429430  
C     2.2132130    3.0447850    0.7929170  
O     2.7014010    4.1847300    1.3458580  
C     0.8337840    2.9821670    0.4813600  
O     0.1336460    4.1156300    0.8085290  
C     0.2565330    1.8232040   -0.0577250  
H     0.0072130   -0.9195290   -1.3883310  
H     4.1248050    2.0509010    0.7729020  
H     1.9483360    4.8049730    1.3868570  
H    -0.4883370    4.2940630    0.0646940  
H     2.3912470   -2.1242330   -1.4644500  
C    -2.6748510   -1.2833580    1.1123680  
C    -1.5793740   -0.4971930    0.9837570  
C    -1.9330630    0.6179680    0.1376600  
C    -3.3575960    0.4139230   -0.2265350  
N    -3.7701890   -0.7513590    0.4080660  
C    -4.0609330    1.2206220   -1.0701040  
C    -3.3904400    2.4019510   -1.5850790  
O    -3.8951870    3.1757030   -2.3829710  
C    -1.9489370    2.7231470   -1.0503200  
O    -1.5222920    3.8548100   -1.2697770  
C    -1.1984850    1.6944690   -0.3074450  
H    -0.6169400   -0.6669780    1.4401630  
H    -5.0558170    0.9927880   -1.4349070  
H    -2.8038600   -2.2027240    1.6626270  
C    -7.7804500    0.9079720    1.0064820  
C    -8.5010250   -0.2144800    0.7646030  
C    -7.5618320   -1.2819760    0.4862510  
C    -6.2136400   -0.6691290    0.5816330  
N    -6.4100660    0.6476070    0.9288800  
C    -5.0474140   -1.3492460    0.3536190  
C    -5.1379230   -2.7878930    0.0580360  
O    -4.1519350   -3.4876890   -0.1077910  
C    -6.5649230   -3.4459630   -0.0221990  
O    -6.6331200   -4.6393200   -0.2638950  
C    -7.7344120   -2.6015370    0.2069290  
H    -9.5769470   -0.3060800    0.7869980  
H    -8.7136030   -3.0651360    0.1441400  
H    -8.1191760    1.9056600    1.2515030  
H    -5.6904210    1.3555890    0.9000350  
C     4.4437460   -0.7382960   -0.3846630  
C     5.0157830   -1.9137010   -0.8343670  
C     6.3931970   -1.8095430   -0.4897490  
C     6.5099470   -0.4665670    0.1895800  
N     5.3596660    0.1466520    0.2427060  
C     7.7587470    0.0226730    0.6955230  
C     8.8412410   -0.7773060    0.5362520  
O    10.0712030   -0.4725480    0.9476250  
C     8.7611310   -2.1412230   -0.1461390  
O     9.8266300   -2.7621290   -0.2210670  
C     7.4874640   -2.6101040   -0.6465690  
H     4.5430080   -2.7408630   -1.3412500  
H     7.8159790    0.9910220    1.1796470  
H    10.6194190   -1.2518150    0.6841020  
H     7.4599890   -3.5828800   -1.1265780  
