62


C     0.1113210    1.6602640    0.0172780  
C    -1.0962790    0.9696760    0.0928440  
C    -0.8043490   -0.4168490    0.0805010  
C     0.6171110   -0.5391320    0.0208740  
N     1.1373560    0.7241120   -0.0359100  
C     1.3069980   -1.7739860    0.0087570  
C     0.4737530   -2.8890900    0.0638690  
O     1.0155100   -4.1533400    0.0359030  
C    -0.9401820   -2.8087220    0.1483810  
O    -1.5572520   -4.0433400    0.1798000  
C    -1.6185130   -1.5895060    0.1321800  
H    -2.0613660    1.4434880    0.1284930  
H     2.1203080    0.9584090   -0.0576030  
H     0.2502310   -4.7601550    0.1135630  
H    -2.2142190   -4.0371710    0.9098540  
C     4.6137280    0.1831140    2.3627470  
C     3.3927550   -0.2530920    1.9184500  
C     3.6295030   -1.1070580    0.7838330  
C     5.0375470   -1.1579040    0.6009040  
N     5.6077060   -0.3526940    1.5658090  
C     5.6548910   -1.9373200   -0.3838860  
C     4.8248660   -2.7032010   -1.1852040  
O     5.3510330   -3.5076160   -2.1500420  
C     3.4125460   -2.6742170   -1.0282860  
O     2.7372560   -3.4758150   -1.9262600  
C     2.7848060   -1.8642930   -0.0783990  
H     2.4377040   -0.0060160    2.3584380  
H     6.5978980   -0.2228030    1.7003190  
H     6.7310430   -1.9782120   -0.5183830  
H     4.5848080   -3.9549910   -2.5579980  
H     2.0563240   -3.9745430   -1.4260000  
H     4.8623650    0.8339890    3.1890850  
C    -2.6545270    5.0866680    0.2352210  
C    -1.8032560    6.1322270    0.1529600  
C    -0.4765110    5.5343670    0.0444580  
C    -0.7297250    4.0591750    0.0763310  
N    -2.0011740    3.8128470    0.1897540  
C     0.3670310    3.0831240   -0.0102840  
C     1.6240860    3.6309560   -0.1135140  
O     2.7523080    2.8810320   -0.2008790  
C     1.8937930    5.0812790   -0.1411340  
O     3.0698840    5.4567670   -0.2329100  
C     0.7677870    6.0328800   -0.0582600  
H    -2.0321710    7.1888300    0.1650500  
H     3.4846130    3.5354740   -0.2591050  
H     1.0082920    7.0916570   -0.0826780  
H    -3.7335670    5.1044850    0.3287470  
C    -4.5312710    0.5495500   -2.4227080  
C    -5.7104160    0.2122430   -1.8561970  
C    -5.3601260   -0.6722000   -0.7475400  
C    -3.8637050   -0.7322470   -0.7845450  
N    -3.3932920   -0.0321550   -1.7706680  
C    -3.0916670   -1.5373250    0.1698900  
C    -3.8490290   -2.2717010    1.0347190  
O    -3.3122260   -3.1125260    1.9673420  
C    -5.3336780   -2.2380800    1.0899450  
O    -5.8925500   -2.9333080    1.9439660  
C    -6.0732710   -1.3837480    0.1442010  
H    -6.7080970    0.5027740   -2.1548660  
H    -4.0931920   -3.4749510    2.4490120  
H    -7.1572150   -1.3901890    0.2073680  
H    -4.3557450    1.1852070   -3.2818430  
