58


C     2.5931050   -0.1789290    0.3581150  
C     3.3867420    0.9312090    0.3403550  
C     2.4956870    2.0667840    0.0901670  
C     1.1232650    1.5214310   -0.0126960  
N     1.2415820    0.1217850    0.1457370  
C     0.0262210    2.2879370   -0.2167080  
C     0.1998090    3.7318500   -0.3984480  
O    -0.7418850    4.4771070   -0.6188020  
C     1.6459590    4.3211640   -0.3275820  
O     1.8183910    5.5175810   -0.4851130  
C     2.7513740    3.3877410   -0.0712260  
H    -0.9697770    1.8739560   -0.2639200  
H     3.7522740    3.8027110   -0.0347880  
H     2.8768180   -1.2030250    0.5440030  
C     0.2566470   -0.8421410    0.0990910  
C     0.3916050   -2.1997190    0.2760170  
C    -0.9313720   -2.7224760    0.1105090  
C    -1.7862890   -1.5171400   -0.1684890  
N    -1.0696160   -0.4263440   -0.1725800  
C    -3.2199020   -1.5963040   -0.3937170  
C    -3.7310400   -2.8655030   -0.3757900  
O    -5.0145790   -3.1512020   -0.6175430  
C    -2.9002580   -4.0975820   -0.0930660  
O    -3.5012980   -5.1753540   -0.1059020  
C    -1.4720220   -3.9669750    0.1546640  
H     1.2783850   -2.7740370    0.4973710  
H    -5.0759290   -4.1328030   -0.5281490  
H    -0.9077890   -4.8723140    0.3523130  
C    -3.5823540    0.7196030   -1.3150030  
C    -4.0072530   -0.3801170   -0.6169440  
C    -5.3384900   -0.0481980   -0.1060070  
C    -5.6373530    1.3239930   -0.5892050  
N    -4.5377660    1.7157740   -1.3305510  
C    -6.7724530    2.0151700   -0.3185210  
C    -7.7867700    1.3815520    0.5184880  
O    -8.8421710    1.9207640    0.8134740  
C    -7.4866310   -0.0601970    1.0641960  
O    -8.3120540   -0.6058760    1.7796380  
C    -6.2201350   -0.7021510    0.6946470  
H    -6.9595610    3.0199530   -0.6847360  
H    -6.0432960   -1.7011880    1.0720560  
H    -2.6418380    0.8648220   -1.8253020  
H    -4.4016150    2.6381160   -1.7161340  
C     5.5895270    1.9779980    1.0588270  
C     4.8172990    0.9736840    0.5422230  
C     5.7859290   -0.1046490    0.2482320  
C     7.0987610    0.4554060    0.6840640  
N     6.9675520    1.6694880    1.1479320  
C     8.3193420   -0.2914990    0.5576830  
C     8.2530820   -1.5285600    0.0060400  
O     9.3114710   -2.3334360   -0.1646330  
C     6.9516850   -2.1085470   -0.4719110  
O     6.9654260   -3.2327310   -0.9669870  
C     5.7088650   -1.3160030   -0.3318820  
H     9.2553920    0.1410210    0.8928030  
H     8.9644890   -3.1473520   -0.5906300  
H     4.8011510   -1.7629100   -0.7253840  
H     5.2571170    2.9403100    1.4269340  
