60


C     3.0656900    3.4271030   -1.5851680  
C     1.7521370    3.1836360   -1.2754890  
C     1.7031960    1.9083010   -0.6214470  
C     3.0325170    1.4187960   -0.5717960  
N     3.8391170    2.3637840   -1.1665930  
C     3.3723570    0.1497500   -0.0545350  
C     2.3151250   -0.6105820    0.4528900  
O     2.5781860   -1.8020830    1.0496510  
C     0.9757450   -0.1463970    0.4226870  
O     0.1020600   -1.0488560    0.9870850  
C     0.6420660    1.1051610   -0.1173560  
H     0.9172170    3.8270990   -1.5088570  
H     4.8433430    2.3029800   -1.2373070  
H     1.7214960   -2.1664650    1.3370470  
H    -0.7843330   -0.6913550    1.2037120  
H     3.5201600    4.2767060   -2.0744690  
C    -0.7306900    1.5869960   -0.1024720  
C    -1.2390950    2.8394770    0.1328150  
C    -2.6723220    2.7339000    0.2101620  
C    -2.9949520    1.3034670   -0.0127990  
N    -1.7913180    0.6787700   -0.2261100  
C    -4.2457370    0.7534630    0.0212940  
C    -5.3517020    1.6784600    0.3632670  
O    -6.4875620    1.2992850    0.5890450  
C    -5.0411300    3.2137230    0.5020500  
O    -5.9781610    3.9822150    0.6600600  
C    -3.6514380    3.6497600    0.4538200  
H    -0.6580330    3.7265780    0.3349320  
H    -3.4443190    4.7049230    0.6032650  
H    -1.6974830   -0.2738960   -0.5415280  
C    -2.5007170   -2.8984150    1.8935770  
C    -3.3739530   -3.8455590    1.4890910  
C    -4.3071660   -3.1545210    0.6099100  
C    -3.8417960   -1.7234660    0.6155080  
N    -2.7722410   -1.5968450    1.3578250  
C    -4.5393390   -0.6835330   -0.1298320  
C    -5.5700880   -1.1163740   -0.9214160  
O    -6.2478770   -0.3152070   -1.7440320  
C    -6.0372070   -2.5478000   -0.9603110  
O    -6.9791500   -2.8187920   -1.7009690  
C    -5.3561210   -3.5562090   -0.1311970  
H    -3.3890830   -4.8961160    1.7428220  
H    -6.9495060   -0.8733810   -2.1478090  
H    -5.7253970   -4.5760050   -0.1763940  
H    -1.6469560   -3.0111820    2.5504010  
C     7.3301290    1.6232500    1.4501510  
C     6.0032410    1.5516230    1.1798990  
C     5.8291180    0.2893600    0.4659250  
C     7.2092620   -0.2805890    0.4060140  
N     8.0799270    0.5030530    0.9794620  
C     7.4801150   -1.5548370   -0.2071220  
C     6.4360730   -2.2270430   -0.7421200  
O     6.5400800   -3.4186340   -1.3523790  
C     5.0368700   -1.6658880   -0.7376480  
O     4.1835260   -2.2954670   -1.3521460  
C     4.7536990   -0.3619710   -0.0509960  
H     5.2267240    2.2514240    1.4538290  
H     8.4920750   -1.9435900   -0.2291390  
H     5.6356320   -3.6261130   -1.6751060  
H     7.8579200    2.4091450    1.9778450  
