62


C    -2.6450530    2.1418370    0.2142710  
C    -1.3081460    1.7549090    0.0779260  
C    -0.5026450    2.9109330    0.1834380  
C    -1.3943690    4.0091020    0.3718140  
N    -2.6745510    3.5138190    0.4027910  
C    -0.9661880    5.3377940    0.4676840  
C     0.3922720    5.5710050    0.3508430  
O     0.8756950    6.8332310    0.4173800  
C     1.3257660    4.5035280    0.1583470  
O     2.6030660    4.9319800    0.0635010  
C     0.9128030    3.1563140    0.1005430  
H    -1.0187990    0.7330640   -0.1018130  
H    -3.5106360    4.0691950    0.4984080  
H    -1.6479410    6.1694650    0.6111210  
H     1.8435750    6.7659270    0.3068040  
H     3.1762530    4.1238510   -0.1301990  
C     1.8863350    2.0974450   -0.0234800  
C     1.7671060    0.7301220    0.0990360  
C     3.0736820    0.1816950   -0.1312990  
C     3.9404950    1.3689070   -0.3814830  
N     3.2460880    2.4718130   -0.3078610  
C     5.3479390    1.2634520   -0.6381890  
C     5.8689790    0.0152100   -0.6584370  
O     7.1538860   -0.2589000   -0.8920370  
C     5.0165440   -1.2281680   -0.4512160  
O     5.5932030   -2.2979480   -0.6280690  
C     3.5785700   -1.0958500   -0.1201570  
H     0.8959500    0.1685010    0.3922350  
H     5.9504770    2.1485980   -0.8079070  
H     7.2057430   -1.2439510   -0.8934840  
C    -0.1801990   -2.5611150   -1.9934060  
C    -0.2706830   -3.7423400   -1.3065850  
C     0.8444540   -3.7905540   -0.4042750  
C     1.5866950   -2.5947750   -0.5920240  
N     0.9447340   -1.8723230   -1.5751660  
C     2.7843190   -2.3120330    0.1092200  
C     3.1867410   -3.2700170    1.0497600  
O     4.2742770   -3.0311630    1.8328040  
C     2.4488280   -4.4623390    1.2489020  
O     2.9882750   -5.2907120    2.2155700  
C     1.2980460   -4.7361670    0.5346900  
H    -1.0387080   -4.4935290   -1.4284850  
H     1.2032810   -0.9432250   -1.8702280  
H     4.4127980   -3.8227030    2.3818060  
H     2.4350680   -6.0796390    2.3124200  
H     0.7511710   -5.6615880    0.7041660  
H    -0.8282810   -2.1397340   -2.7484170  
C    -3.7949710    1.3084350    0.1654430  
C    -5.1328570    1.6115480    0.3099770  
C    -5.8296340    0.3697770    0.1607890  
C    -4.7405800   -0.6381060   -0.0803450  
N    -3.5608490   -0.0889760   -0.0774220  
C    -5.0363080   -2.0318970   -0.2836460  
C    -6.3375750   -2.4032790   -0.2486470  
O    -6.7719490   -3.6579830   -0.4187600  
C    -7.4601110   -1.4103230   -0.0071020  
O    -8.6059220   -1.8743310    0.0012240  
C    -7.1385420   -0.0083280    0.1952510  
H    -5.5835140    2.5758990    0.5033600  
H    -4.2325950   -2.7396630   -0.4540250  
H    -7.7529390   -3.5909890   -0.3363210  
H    -7.9633840    0.6764570    0.3653970  
