58


C     3.8396560    0.2287570   -0.0116000  
C     2.4651500    0.1812280    0.0314660  
C     2.0252240    1.5502090    0.0343030  
C     3.2953550    2.3475870   -0.0184790  
N     4.3418720    1.5821400   -0.0441530  
C     3.2896290    3.7864420   -0.0500650  
C     2.0880540    4.4076650   -0.0333550  
O     1.9282300    5.7380450   -0.0452930  
C     0.7891220    3.6425810    0.0328260  
O    -0.2428120    4.3046440    0.1251570  
C     0.8031970    2.1595980    0.0343650  
H     1.8558980   -0.7066430    0.0546310  
H     4.2247500    4.3339150   -0.0842540  
H     0.9567860    5.8844830   -0.0019970  
C     3.1041060   -4.1026000    0.0189680  
C     4.3567050   -4.6072060   -0.0247080  
C     5.2317960   -3.4440810   -0.0524380  
C     4.2968220   -2.2673520   -0.0195220  
N     3.0618950   -2.6708010    0.0229580  
C     4.7726470   -0.8791220   -0.0350040  
C     6.1468100   -0.7351450   -0.0758480  
O     6.8050350    0.4169920   -0.0911130  
C     7.0923740   -1.9201610   -0.1080500  
O     8.2955890   -1.6678320   -0.1441290  
C     6.5673210   -3.2886920   -0.0952920  
H     4.6653310   -5.6430240   -0.0372970  
H     7.7593730    0.1640900   -0.1226580  
H     7.2852950   -4.1026030   -0.1200320  
H     2.1644450   -4.6406110    0.0496510  
C    -1.1668580   -0.8568090    2.6980620  
C    -0.2504020   -0.0075090    2.1788100  
C    -0.8757770    0.5431700    0.9819690  
C    -2.2224370   -0.1115740    0.9443260  
N    -2.3831920   -0.9242270    1.9470780  
C    -3.1925220    0.1698410   -0.1007560  
C    -2.8148080    1.0808220   -1.0395990  
O    -3.6031600    1.4751080   -2.0462790  
C    -1.4631370    1.7416860   -1.0387830  
O    -1.2017130    2.4728540   -1.9883400  
C    -0.4908360    1.4586090    0.0573060  
H     0.7389320    0.2184120    2.5484550  
H    -3.0574150    2.0912260   -2.5842430  
H    -1.0818460   -1.4654490    3.5902470  
C    -6.7372370   -0.2463030    2.6211020  
C    -5.5158090    0.0953180    2.1519490  
C    -5.4275520   -0.5215200    0.8319570  
C    -6.7438000   -1.2193910    0.6732260  
N    -7.5043040   -1.0519930    1.7156960  
C    -7.0780790   -1.9507200   -0.5215120  
C    -6.1564310   -1.9910470   -1.5094490  
O    -6.3228910   -2.6437420   -2.6723100  
C    -4.8196220   -1.3096780   -1.3817100  
O    -4.0253760   -1.4602020   -2.3057090  
C    -4.4980640   -0.5180810   -0.1550990  
H    -4.7481610    0.6759550    2.6403540  
H    -8.0388620   -2.4464090   -0.6043710  
H    -5.4839940   -2.5103910   -3.1659200  
H    -7.1812430    0.0151420    3.5742970  
