62


C     1.5821280   -0.2620360   -0.0877080  
C     0.6279680    0.7214500   -0.0219570  
C     1.3514120    1.9837720    0.0943310  
C     2.7323190    1.6873380    0.1131970  
N     2.8639810    0.2790410   -0.0160930  
C     3.7104860    2.6741580    0.2564690  
C     3.2787560    3.9894140    0.3773980  
O     4.1958710    4.9882400    0.5082800  
C     1.8995230    4.3022790    0.3599070  
O     1.6205080    5.6465490    0.4848510  
C     0.9366430    3.3165380    0.2267900  
H     4.7641950    2.4374840    0.2652120  
H     3.7051570    5.8277370    0.5425650  
H     0.6784890    5.7984390    0.3151080  
H    -0.1149000    3.5777110    0.1872340  
H     1.4527020   -1.3209440   -0.2402580  
C    -1.8620150   -2.4733210    1.7929280  
C    -0.8456600   -1.6339870    1.4549210  
C    -1.3946100   -0.6032610    0.6003950  
C    -2.8375100   -0.9056580    0.4832980  
N    -3.0514180   -2.0584780    1.2173080  
C    -3.7662260   -0.1807480   -0.2127350  
C    -3.2638520    1.0431420   -0.8543150  
O    -3.9859670    1.8710780   -1.3811890  
C    -1.7164040    1.3429950   -0.8240510  
O    -1.3242990    2.3006990   -1.4710790  
C    -0.8128830    0.4727890   -0.0382020  
H     0.1780100   -1.7110670    1.7862700  
H    -1.8431420   -3.3555330    2.4190950  
H    -3.9492820   -2.5087210    1.3098050  
C    -6.7968090   -0.7415370    2.9830580  
C    -7.8541840   -1.0639310    2.1758960  
C    -7.3773410   -1.0388670    0.8204340  
C    -6.0019810   -0.6974430    0.8705690  
N    -5.6650020   -0.5481010    2.2051670  
C    -5.1964440   -0.5431840   -0.2795420  
C    -5.8330760   -0.7506230   -1.5063750  
O    -5.1147860   -0.6659710   -2.6577010  
C    -7.2074530   -1.0971410   -1.5716890  
O    -7.6691820   -1.2819130   -2.8612950  
C    -7.9795810   -1.2478620   -0.4354670  
H    -8.8580940   -1.2947420    2.5050940  
H    -4.8088490   -0.1242470    2.5293070  
H    -5.7406950   -0.7541080   -3.3976130  
H    -8.6328300   -1.3782940   -2.8497760  
H    -9.0307460   -1.5175090   -0.5150440  
H    -6.7423940   -0.6464440    4.0584150  
C     4.0025200   -0.4820210   -0.0784120  
C     4.0927700   -1.8591100   -0.1931030  
C     5.4872520   -2.1367000   -0.2170560  
C     6.1414660   -0.7821400   -0.1017700  
N     5.2571930    0.1749340   -0.0211840  
C     7.5661580   -0.6270500   -0.0873290  
C     8.3078330   -1.7578780   -0.1824340  
O     9.6401790   -1.7881520   -0.1835570  
C     7.6811200   -3.1448920   -0.3001210  
O     8.4813130   -4.0849240   -0.3778460  
C     6.2423430   -3.2718180   -0.3126010  
H     3.2940670   -2.5822860   -0.2560160  
H     8.0127840    0.3573460   -0.0043730  
H     9.8621200   -2.7484300   -0.2650210  
H     5.8230440   -4.2690120   -0.3984610  
