62


C    -0.2227030    0.1014410    0.8012600  
C    -0.1962000    1.4439640    0.4524460  
C    -1.5476630    1.7685920    0.0194320  
C    -2.3211700    0.5876880    0.1495400  
N    -1.4840490   -0.3994080    0.6299100  
C    -3.6755070    0.4880040   -0.2414020  
C    -4.2560850    1.6507600   -0.7591070  
O    -5.5776390    1.6619420   -1.0816850  
C    -3.4974850    2.8352680   -0.8998880  
O    -4.2159290    3.8931030   -1.4256620  
C    -2.1662770    2.9063800   -0.5343860  
H    -1.7674940   -1.3433590    0.8445760  
H    -5.7751260    2.5395750   -1.4531950  
H    -3.6529310    4.6807030   -1.4545300  
H    -1.6183870    3.8349540   -0.6441680  
H     0.5864100   -0.5253770    1.1409630  
C     4.0153180    0.2634120    0.2009980  
C     4.6463820    1.4787350    0.2704120  
C     3.6009820    2.4618140    0.4254210  
C     2.3325840    1.6631370    0.4010520  
N     2.5826630    0.3967300    0.2706580  
C     1.0028300    2.2786770    0.5137940  
C     1.0243310    3.6333160    0.7115350  
O    -0.0807360    4.3872900    0.9146150  
C     2.2748860    4.4487800    0.7494500  
O     2.1522220    5.6664550    0.9350980  
C     3.5796170    3.8021990    0.5865260  
H     5.7095580    1.6712530    0.3187340  
H     0.2754590    5.2980310    1.0406740  
H     4.4610040    4.4353460    0.6152860  
C     7.5511810   -0.9526550   -2.1083270  
C     7.5209060   -2.2895250   -1.8106280  
C     6.3962130   -2.5004280   -0.9445170  
C     5.7828210   -1.2397450   -0.7405370  
N     6.5145300   -0.3143950   -1.4514910  
C     4.6038840   -1.0542080    0.0274860  
C     4.0601150   -2.2188460    0.6002420  
O     2.9686540   -2.1591270    1.4074130  
C     4.6771660   -3.4828600    0.4088480  
O     4.0223410   -4.5146200    1.0565580  
C     5.8251600   -3.6384630   -0.3426170  
H     8.2147270   -3.0382300   -2.1671530  
H     6.2307290    0.6439500   -1.5885430  
H     2.7959750   -3.0686170    1.7112210  
H     4.5117340   -5.3410980    0.9336000  
H     6.2719950   -4.6226280   -0.4686790  
H     8.2346040   -0.3895130   -2.7278680  
C    -4.5518720   -2.4656930    3.0167350  
C    -4.0837770   -1.3742990    2.3621670  
C    -4.5512420   -1.5265640    0.9862120  
C    -5.3141230   -2.8078780    1.0091190  
N    -5.3101270   -3.3527160    2.1951890  
C    -5.9758680   -3.3213950   -0.1629450  
C    -5.8766120   -2.6018900   -1.3027830  
O    -6.4330410   -2.9595010   -2.4727650  
C    -5.0768830   -1.3260650   -1.3757660  
O    -4.9424740   -0.8207590   -2.4843920  
C    -4.4370980   -0.7670230   -0.1369020  
H    -3.5136990   -0.5477980    2.7618060  
H    -6.5285880   -4.2528880   -0.1114180  
H    -6.1426740   -2.2749420   -3.1152100  
H    -4.4244520   -2.7168920    4.0633740  
