60


C     0.1424050    1.7856500    0.3913510  
C     1.4290830    1.2818250    0.3385440  
C     1.3612700   -0.1418970    0.2990680  
C    -0.0635060   -0.4761510    0.2872450  
N    -0.7599670    0.7239750    0.3066230  
C    -0.6090260   -1.7426930    0.2420780  
C     0.3785110   -2.8410090    0.3160570  
O     0.0615360   -4.0185580    0.4224010  
C     1.9206970   -2.5212290    0.2797250  
O     2.6673870   -3.4758840    0.3851930  
C     2.3624290   -1.1141390    0.2236330  
H     2.3246850    1.8783000    0.2659990  
H    -1.7028450    0.7694130    0.6709140  
C     0.4128000    4.2243470    0.9660070  
C    -0.2959500    3.1475680    0.4914140  
C    -1.6041060    3.7204330    0.1121910  
C    -1.4753890    5.1672330    0.4523820  
N    -0.2898490    5.4397310    0.9416830  
C    -2.5435360    6.0964310    0.2267590  
C    -3.6890600    5.6252470   -0.3284780  
O    -4.7630860    6.3822190   -0.5897420  
C    -3.8423120    4.1798410   -0.7087430  
O    -4.9065150    3.8221340   -1.2087180  
C    -2.7209580    3.2439150   -0.4696060  
H    -2.4181640    7.1404150    0.4911300  
H    -5.4260960    5.7790990   -0.9913580  
H    -2.8657830    2.2197240   -0.7973510  
H     1.4202050    4.2121900    1.3650330  
C     3.7670300   -0.8024230    0.1612180  
C     4.4411180    0.2717830    0.7084450  
C     5.8187490    0.1078890    0.3369270  
C     5.8278430   -1.1449840   -0.4863600  
N     4.6457910   -1.6762590   -0.5781510  
C     7.0423050   -1.6428290   -1.0812230  
C     8.1838480   -0.9546100   -0.8453940  
O     9.3885190   -1.3011520   -1.3214300  
C     8.2089460    0.3003940   -0.0010670  
O     9.3037010    0.8504100    0.1472580  
C     6.9635510    0.7982770    0.5781970  
H     4.0472480    1.0288790    1.3706630  
H     7.0231320   -2.5463390   -1.6802550  
H    10.0024190   -0.6124390   -0.9773040  
H     7.0162250    1.7079940    1.1685140  
C    -2.0219700   -2.0218040    0.1387070  
C    -3.0975380   -1.2043920   -0.2325990  
C    -4.2758150   -1.9928270   -0.1901370  
C    -3.8824780   -3.3023640    0.2184420  
N    -2.5268710   -3.2844890    0.4121880  
C    -4.7981050   -4.3519240    0.3638870  
C    -6.1281130   -4.0784070    0.0902940  
O    -7.0612740   -5.0585080    0.2125700  
C    -6.5398100   -2.7738340   -0.3223650  
O    -7.8958550   -2.6758840   -0.5522620  
C    -5.6401280   -1.7402730   -0.4638350  
H    -3.0315250   -0.1901110   -0.5976100  
H    -1.9084440   -4.0640780    0.6043910  
H    -4.5053880   -5.3495670    0.6727450  
H    -7.9228580   -4.6754110   -0.0286260  
H    -8.1137120   -1.7808570   -0.8523200  
H    -5.9748270   -0.7543900   -0.7797210  
