58


C     0.1507580    2.0547190   -0.0353290  
C    -1.1050930    1.4935080   -0.1948660  
C    -0.9617430    0.0715800   -0.2456600  
C     0.4784030   -0.1942700   -0.1142590  
N     1.0866660    1.0209120   -0.0173180  
C     1.0800830   -1.4461200   -0.0825910  
C     0.1490120   -2.5713220   -0.0098960  
O     0.4814940   -3.7315570    0.2103690  
C    -1.3904370   -2.3237620   -0.2184870  
O    -2.0987990   -3.3156120   -0.2583030  
C    -1.9065940   -0.9461790   -0.3665090  
H    -2.0326040    2.0248980   -0.3241180  
H     2.0720920    1.2049280    0.1269320  
C    -2.0945260    5.7224100    0.9537410  
C    -1.1098890    6.6346360    0.7776060  
C     0.0902270    5.9070610    0.4169350  
C    -0.2874520    4.4769410    0.3772900  
N    -1.6208580    4.4316770    0.6861290  
C     0.5726590    3.4318170    0.0855490  
C     1.9927980    3.8029820   -0.0726870  
O     2.9013080    2.9854470   -0.1568890  
C     2.3869390    5.3221790   -0.1324130  
O     3.5405300    5.6079700   -0.4001020  
C     1.3581020    6.3201080    0.1507400  
H    -1.1933500    7.7054610    0.8910840  
H     1.6501610    7.3653910    0.1467750  
H    -3.1280210    5.8619220    1.2401200  
H    -2.1091760    3.5834310    0.9339510  
C    -3.7966100    0.3514460   -1.4092270  
C    -3.2976260   -0.6986340   -0.6652480  
C    -4.5239720   -1.4352150   -0.2514170  
C    -5.6368600   -0.6373110   -0.8360680  
N    -5.1885140    0.3910140   -1.5198580  
C    -7.0150950   -0.9862890   -0.6538090  
C    -7.2973920   -2.0797570    0.0980620  
O    -8.5357910   -2.5187930    0.3583980  
C    -6.2039370   -2.8999190    0.7192400  
O    -6.5319620   -3.8685380    1.4010910  
C    -4.7887440   -2.5243750    0.4961410  
H    -7.7907110   -0.3780750   -1.1056580  
H    -8.4196270   -3.3165050    0.9210530  
H    -4.0353370   -3.1699570    0.9281840  
H    -3.2163340    1.0902650   -1.9482200  
C     2.5130080   -1.6556990   -0.0606040  
C     3.5532760   -0.7995010   -0.3829250  
C     4.7846320   -1.5181980   -0.2216380  
C     4.4109440   -2.8838200    0.2224810  
N     3.0382320   -2.8945610    0.3096730  
C     5.3025030   -3.8762670    0.4756870  
C     6.7240010   -3.5932640    0.3061750  
O     7.5985520   -4.4221870    0.5115120  
C     7.1433580   -2.1510480   -0.1627790  
O     8.3309020   -1.8986550   -0.3089310  
C     6.0900290   -1.1665990   -0.4054260  
H     3.4813850    0.2037870   -0.7749460  
H     5.0103440   -4.8706670    0.7983720  
H     6.3896510   -0.1743310   -0.7291340  
H     2.4343980   -3.6894730    0.4812350  
