60


C     0.6100020   -0.6046630   -0.9671070  
C     0.9987260   -1.8417130   -0.4784550  
C    -0.2151560   -2.4737480    0.0061080  
C    -1.2813720   -1.5772760   -0.2378430  
N    -0.7456350   -0.4602870   -0.8451960  
C    -2.6229200   -1.8048120    0.1641310  
C    -2.8571200   -3.0136410    0.8463860  
O    -4.1078700   -3.3714560    1.2153190  
C    -1.7927120   -3.9163790    1.0997660  
O    -2.1914770   -5.0590530    1.7677840  
C    -0.4955710   -3.6691550    0.6978600  
H    -1.2620430    0.3901610   -1.0189770  
H    -4.0384250   -4.2355010    1.6598400  
H    -1.4390890   -5.6625950    1.8545650  
H     0.2863050   -4.3945990    0.8931140  
H     1.2130860    0.1722840   -1.4076980  
C     4.7529850    0.3830240   -0.0157870  
C     5.6778380   -0.6273970   -0.0603250  
C     4.9276170   -1.8405780   -0.2420810  
C     3.4933580   -1.3950710   -0.2897640  
N     3.4057270   -0.1060040   -0.1531880  
C     2.3776430   -2.3302180   -0.4575080  
C     2.7503660   -3.6396870   -0.5931610  
O     1.8815300   -4.6504830   -0.8021860  
C     4.1721360   -4.1108970   -0.5462580  
O     4.3677060   -5.3231710   -0.6911450  
C     5.2567120   -3.1475110   -0.3568880  
H     6.7529140   -0.5546810    0.0320980  
H     2.4553470   -5.4486250   -0.8793190  
H     6.2714710   -3.5315310   -0.3276020  
C     6.1572090    2.4538220    0.1798990  
C     4.9466420    1.8031380    0.1353200  
C     3.9208070    2.8465500    0.2579320  
C     4.6485890    4.1331380    0.3690270  
N     5.9969000    3.8126370    0.3201270  
C     4.0682610    5.3516550    0.4947160  
C     2.6082280    5.4201800    0.5200470  
O     1.9925600    6.4684800    0.6293200  
C     1.8117600    4.0717600    0.3975540  
O     0.5917310    4.1042770    0.3854030  
C     2.5645340    2.8147160    0.2887880  
H     4.6297370    6.2770130    0.5794000  
H     2.0140330    1.8845260    0.2269230  
H     7.1519640    2.0335310    0.1123680  
H     6.7490710    4.4837670    0.3604180  
C    -3.6709500   -0.8376810   -0.1129840  
C    -3.7814350    0.0016380   -1.1967080  
C    -4.9669360    0.7892000   -0.9698800  
C    -5.4735140    0.3066330    0.3575310  
N    -4.7291260   -0.6388760    0.8473550  
C    -6.6545280    0.8701390    0.9620030  
C    -7.3089850    1.8357290    0.2765410  
O    -8.4237090    2.4462580    0.7040790  
C    -6.8325880    2.3278080   -1.0737470  
O    -7.5054170    3.2092600   -1.6128590  
C    -5.6221230    1.7541350   -1.6608820  
H    -3.1774150    0.0046060   -2.0938420  
H    -6.9944580    0.5120710    1.9272950  
H    -8.6484340    3.0873790   -0.0086560  
H    -5.3045850    2.1399800   -2.6247190  
