58


C    -0.8380960   -1.6214710   -0.6287520  
C     0.5300270   -1.6703740   -0.6315140  
C     1.0120700   -0.3226850   -0.4706680  
C    -0.1850440    0.5271020   -0.3529150  
N    -1.2830950   -0.3192250   -0.4416740  
C    -0.2093610    1.8859580   -0.2072540  
C     1.1062300    2.5322030   -0.0618220  
O     1.2397510    3.7074970    0.2235510  
C     2.4067240    1.6559400   -0.1931140  
O     3.4753630    2.2397650   -0.1188380  
C     2.2954240    0.1942370   -0.4076660  
H     1.1311040   -2.5656940   -0.6563160  
H    -2.2090550    0.0085480   -0.6765660  
C    -1.4923280   -3.8301280   -1.5103470  
C    -2.5428620   -4.6784370   -1.4687030  
C    -3.5741570   -4.0656540   -0.6548710  
C    -3.0291060   -2.7621120   -0.2058070  
N    -1.7514860   -2.6543220   -0.7758020  
C    -3.6823350   -1.9158210    0.6287030  
C    -5.0236910   -2.2787070    1.0845390  
O    -5.6722670   -1.5665850    1.8369190  
C    -5.6369500   -3.6324840    0.5853610  
O    -6.7630850   -3.9418790    0.9358620  
C    -4.8119210   -4.4810250   -0.2841310  
H    -2.6083240   -5.6355980   -1.9656110  
H    -3.2704080   -0.9858210    0.9990300  
H    -5.2275850   -5.4337060   -0.5975320  
H    -0.5483680   -3.9189670   -2.0293180  
C     3.6005640   -1.6997350   -1.4553330  
C     3.4828590   -0.6156480   -0.6217070  
C     4.8252880   -0.5201510    0.0095700  
C     5.5834220   -1.6607550   -0.5783410  
N     4.8590020   -2.3293140   -1.4398450  
C     6.9438220   -1.9472780   -0.2151550  
C     7.5335300   -1.1504880    0.7084990  
O     8.7913130   -1.3029710    1.1492520  
C     6.7943870   -0.0015490    1.3337900  
O     7.3879290    0.6695340    2.1753950  
C     5.3996820    0.2823370    0.9255480  
H     7.4599640   -2.7837490   -0.6730260  
H     8.9265650   -0.5840290    1.8056250  
H     4.9228350    1.1467540    1.3698570  
H     2.8479160   -2.0747860   -2.1379030  
C    -3.9317490    1.7193850    2.2644780  
C    -2.6785340    1.5225580    1.7680740  
C    -2.4833970    2.4700010    0.6908620  
C    -3.7306770    3.2711310    0.6251000  
N    -4.5690560    2.7507140    1.5951730  
C    -3.9460800    4.3084200   -0.2232870  
C    -2.8827070    4.6662050   -1.1539500  
O    -2.9559550    5.6115630   -1.9225420  
C    -1.5933510    3.7692120   -1.1852270  
O    -0.7872700    3.9409880   -2.0807960  
C    -1.4377680    2.6922840   -0.1702750  
H    -1.9552590    0.8089800    2.1323710  
H    -4.8597350    4.8945990   -0.2326160  
H    -4.4466070    1.1868620    3.0529450  
H    -5.5003060    3.0834860    1.7915650  
