62


C     1.2631040   -1.8742720   -1.1711770  
C     2.6064470   -1.6289920   -1.2446600  
C     2.8266960   -0.3019670   -0.7436880  
C     1.5576200    0.2088380   -0.3630530  
N     0.6046010   -0.7667510   -0.6440610  
C     1.3907890    1.4668470    0.2337460  
C     2.5330400    2.2368000    0.4163000  
O     2.4266230    3.4775120    0.9662760  
C     3.8050330    1.7518340    0.0303980  
O     4.8337370    2.6477260    0.2666820  
C     3.9898080    0.4862960   -0.5332340  
H     3.3536500   -2.3178380   -1.6108380  
H     0.4322500    1.8361200    0.5826900  
H     3.3184680    3.8678230    0.9685160  
H     5.5857390    2.4320300   -0.3069780  
H     0.6898030   -2.7393010   -1.4707120  
C    -2.3129730   -3.2701290    1.5558980  
C    -1.1558530   -2.7536860    1.0344770  
C    -1.5293650   -1.6133660    0.2475980  
C    -2.9370640   -1.4882360    0.3238890  
N    -3.3871000   -2.5189580    1.1173500  
C    -3.6716520   -0.4219820   -0.2587940  
C    -2.9033280    0.5280560   -0.9599510  
O    -3.4980320    1.5454890   -1.6188520  
C    -1.4938020    0.3993510   -1.0801600  
O    -0.9203980    1.3616870   -1.8818750  
C    -0.8004870   -0.6523900   -0.4895680  
H    -0.1565990   -3.1309490    1.1963180  
H    -4.3385120   -2.6002410    1.4437490  
H    -2.7848380    2.0812150   -2.0136380  
H     0.0299550    1.4428150   -1.6910630  
H    -2.4678220   -4.1226250    2.2016790  
C    -5.1128040   -0.3294990   -0.1190670  
C    -6.0194630   -1.3609360   -0.0243700  
C    -7.3082360   -0.7415940    0.1471790  
C    -7.0045490    0.7281640    0.1624740  
N    -5.7370270    0.9646200   -0.0001330  
C    -8.0447070    1.7093170    0.3418260  
C    -9.3145210    1.2594170    0.4694270  
O   -10.3852920    2.0490670    0.6331800  
C    -9.6532360   -0.2163310    0.4378870  
O   -10.8428240   -0.5156990    0.5648870  
C    -8.5805030   -1.1951610    0.2716810  
H    -5.8350490   -2.4167500   -0.1695590  
H    -7.7988560    2.7651570    0.3596150  
H   -11.1486110    1.4296900    0.6918940  
H    -8.8599830   -2.2442680    0.2630510  
C     5.6993200   -0.6490560   -2.0467590  
C     5.3242400   -0.0027880   -0.9050670  
C     6.5558870   -0.0035250   -0.0817940  
C     7.5681740   -0.6975620   -0.9338040  
N     7.0588790   -1.0641470   -2.0769640  
C     8.9191570   -0.9071850   -0.4840660  
C     9.2482760   -0.4787130    0.7582990  
O    10.4661380   -0.6149940    1.3062440  
C     8.2454070    0.2021270    1.6485160  
O     8.6179400    0.5623890    2.7629080  
C     6.8658790    0.4212130    1.1587830  
H     9.6327380   -1.4062740   -1.1302590  
H    10.3982230   -0.2172330    2.2018400  
H     6.1764950    0.9260670    1.8275800  
H     5.0763320   -0.8595300   -2.9078240  
