60


C     2.1429180    2.7575000    1.7124250  
C     1.0129450    2.1264170    1.2603490  
C     1.4392320    1.0093440    0.4670960  
C     2.8575010    1.0163860    0.4804300  
N     3.2553190    2.1023100    1.2267670  
C     3.6624670    0.0138840   -0.1104040  
C     2.9549630   -1.0447160   -0.7142320  
O     3.6090060   -2.0312890   -1.3558020  
C     1.5356550   -1.0805570   -0.7286370  
O     1.0280490   -2.1655880   -1.4088430  
C     0.7491900   -0.0550410   -0.1920930  
H    -0.0022540    2.4293100    1.4680410  
H     4.2113520    2.2735700    1.5013090  
H     2.9161300   -2.6460670   -1.6710220  
H     0.3222440   -2.5529010   -0.8474270  
H     2.2487210    3.6339250    2.3356620  
C    -2.2615880    3.0059760   -1.3886980  
C    -1.0910480    2.3614860   -1.1820260  
C    -1.4562120    1.0490910   -0.6615770  
C    -2.9429670    1.0786560   -0.6191600  
N    -3.4027340    2.2226490   -1.0355390  
C    -3.7365030   -0.0678410   -0.1588030  
C    -3.0007520   -1.1799900    0.1638530  
O    -3.5483360   -2.3484090    0.5721770  
C    -1.5218920   -1.2431670    0.0646160  
O    -1.0137210   -2.3522580    0.3131560  
C    -0.7212930   -0.0407810   -0.2902720  
H    -0.0892180    2.7154330   -1.3716060  
H    -2.7879070   -2.9618100    0.6931200  
H    -2.4227900    4.0011940   -1.7833690  
C    -5.1821410   -0.0119260   -0.0756420  
C    -6.0274120    1.0363010   -0.3723640  
C    -7.3729110    0.6017630   -0.1222870  
C    -7.2788130   -0.8012400    0.3521550  
N    -5.9395960   -1.1095330    0.3591960  
C    -8.3480220   -1.5664860    0.6941220  
C    -9.6811740   -0.9837710    0.5939840  
O   -10.7016600   -1.5929220    0.8787470  
C    -9.8050710    0.5027400    0.0932430  
O   -10.9128860    1.0095810    0.0030950  
C    -8.5775010    1.2274700   -0.2469320  
H    -5.7072760    2.0009550   -0.7306940  
H    -8.2612780   -2.5920280    1.0394580  
H    -8.6734130    2.2526150   -0.5917230  
H    -5.5341470   -1.9941910    0.6252930  
C     5.1134670    0.0760350   -0.0646160  
C     5.9064100    1.1987580   -0.0947040  
C     7.2658480    0.7245570    0.0069070  
C     7.1225740   -0.7638140    0.1229370  
N     5.8782980   -1.1368770    0.0751370  
C     8.2711890   -1.6210310    0.2704120  
C     9.4927630   -1.0380580    0.2754830  
O    10.6482530   -1.7056490    0.3957030  
C     9.6688090    0.4589110    0.1417840  
O    10.8220580    0.8905800    0.1594650  
C     8.4852920    1.3136660    0.0087670  
H     5.5987090    2.2201630   -0.2732110  
H     8.1406590   -2.6934690    0.3613790  
H    11.3488690   -1.0154020    0.3634130  
H     8.6509640    2.3833610   -0.0758170  
