60


C    -3.0807340   -1.3794420   -0.1045750  
C    -3.9221990   -0.4641440   -0.6851200  
C    -5.2610050   -0.9090700   -0.3796390  
C    -5.0545770   -2.1452140    0.4422000  
N    -3.7940660   -2.4207520    0.5945150  
C    -6.1689680   -2.8896410    0.9727460  
C    -7.4152190   -2.4468860    0.6849260  
O    -8.5430540   -3.0404730    1.1017550  
C    -7.6537850   -1.2129660   -0.1541470  
O    -8.8242530   -0.8890430   -0.3593860  
C    -6.5049350   -0.4619150   -0.6731860  
H    -3.6517200    0.3779210   -1.3052990  
H    -5.9936190   -3.7769450    1.5705900  
H    -9.2731950   -2.4924880    0.7356120  
H    -6.7165460    0.4243700   -1.2636220  
C     0.0650790    1.7992830    0.0761450  
C    -1.1524740    1.1423300   -0.0137420  
C    -0.8505250   -0.2483360   -0.0761470  
C     0.6520760   -0.3032790   -0.0295420  
N     1.1619970    0.8905580    0.0640680  
C     1.4073230   -1.5487340   -0.0749540  
C     0.6263440   -2.6868930   -0.1076780  
O     1.0846640   -3.9275050   -0.1219780  
C    -0.8982510   -2.6604780   -0.1478210  
O    -1.4329670   -3.7610150   -0.2681090  
C    -1.6300250   -1.3836100   -0.1013170  
H    -2.1371990    1.5717070    0.0933020  
H     0.2702460   -4.4897100   -0.1768100  
C     2.8583870   -1.5486860   -0.0674750  
C     3.7077280   -0.4895240    0.1314610  
C     5.0406990   -1.0345070    0.0350460  
C     4.8287640   -2.4914480   -0.2439130  
N     3.5688370   -2.7902280   -0.3036490  
C     5.9398070   -3.3957310   -0.4179820  
C     7.1873260   -2.8830990   -0.3145350  
O     8.3154000   -3.5985590   -0.4488270  
C     7.4316580   -1.4182960   -0.0307950  
O     8.6060750   -1.0511260    0.0432470  
C     6.2882450   -0.5169850    0.1376680  
H     3.4291070    0.5341000    0.3245500  
H     5.7599180   -4.4456460   -0.6206810  
H     9.0431500   -2.9487650   -0.3210210  
H     6.5026140    0.5289470    0.3347880  
C    -2.2593040    5.1334410   -1.6104150  
C    -1.4881650    6.1582130   -1.1291560  
C    -0.4163280    5.5606810   -0.3865580  
C    -0.5979740    4.1576060   -0.4388950  
N    -1.7329990    3.9278880   -1.1825090  
C     0.3040090    3.2231380    0.1436350  
C     1.4281470    3.7871660    0.7913860  
O     2.3314440    3.0094530    1.4291050  
C     1.6034570    5.1946620    0.8560580  
O     2.7397220    5.5702190    1.5458750  
C     0.7064690    6.0775320    0.2888080  
H    -1.6577070    7.2140160   -1.2882480  
H    -2.0257870    3.0148030   -1.4953680  
H     2.9840380    3.6077600    1.8375360  
H     2.7783130    6.5350290    1.6200110  
H     0.8722970    7.1507340    0.3570380  
H    -3.1528460    5.1552680   -2.2177340  
