60


C    -0.7559350    0.3186610    0.5824140  
C    -2.0786090    0.5193530    0.2189980  
C    -2.7491840   -0.7328170    0.2860600  
C    -1.7858110   -1.6856620    0.7222570  
N    -0.5717840   -1.0398860    0.8428560  
C    -2.0953320   -3.0216690    0.9829030  
C    -3.4182010   -3.3938380    0.8126150  
O    -3.8084790   -4.6631130    1.0701820  
C    -4.4114690   -2.4678560    0.3655170  
O    -5.6531830   -3.0322960    0.2492540  
C    -4.1000440   -1.1437190    0.0509840  
H    -2.4855720    1.4612960   -0.1141400  
H     0.1888560   -1.3978830    1.4029870  
H    -1.3633000   -3.7465610    1.3226700  
H    -4.7728750   -4.6790900    0.9064550  
H    -6.3113790   -2.3909310    0.6353310  
C     0.3258970    1.2545320    0.6513670  
C     0.3145580    2.6232760    0.7638630  
C     1.6726510    3.0837480    0.7689210  
C     2.5183790    1.8777990    0.6571540  
N     1.6609860    0.7971510    0.6489280  
C     3.8871690    1.8768640    0.5210850  
C     4.5575650    3.2000860    0.6330430  
O     5.7631880    3.3263430    0.7227260  
C     3.6673000    4.4898890    0.7246360  
O     4.2192130    5.5810540    0.7095410  
C     2.2232580    4.3326560    0.8267910  
H    -0.5659220    3.2401040    0.8713320  
H     1.6202170    5.2325890    0.9000470  
H     1.9435860   -0.0798790    0.2254400  
C     4.6497740    0.6643070    0.3058230  
C     4.3832890   -0.6104100    0.7540020  
C     5.4341920   -1.4434780    0.2226190  
C     6.2723060   -0.4977980   -0.5855420  
N     5.8207220    0.7194240   -0.5324700  
C     7.4282710   -0.9533450   -1.3155870  
C     7.7513050   -2.2644060   -1.2243950  
O     8.8011060   -2.8295070   -1.8375280  
C     6.9364670   -3.2372570   -0.4011050  
O     7.3133210   -4.4104890   -0.3859700  
C     5.7544730   -2.7565660    0.3180400  
H     3.6300250   -0.9144260    1.4680740  
H     8.0125910   -0.2508120   -1.8990620  
H     8.7680350   -3.7781710   -1.5781080  
H     5.1889810   -3.4870220    0.8886580  
C    -8.2991440   -0.3103360    1.2044530  
C    -8.5918380    0.7714690    0.4504770  
C    -7.4092820    1.0019800   -0.3707520  
C    -6.4392000   -0.0568230    0.0600220  
N    -6.9855020   -0.8237290    0.9647720  
C    -5.0984440   -0.1892080   -0.4907990  
C    -4.8360370    0.6496780   -1.5426400  
O    -3.6926030    0.6383860   -2.2400790  
C    -5.8027550    1.6983670   -2.0268920  
O    -5.4504520    2.3966440   -2.9757720  
C    -7.1142940    1.8491680   -1.3731950  
H    -9.5072360    1.3457420    0.4322700  
H    -3.7996750    1.3331790   -2.9294780  
H    -7.7809020    2.6161980   -1.7545250  
H    -8.9209200   -0.8111140    1.9358070  
