58


C     2.7002940    2.2138100   -0.2954810  
C     1.3495460    2.0354310   -0.0528500  
C     0.6647840    3.2231990   -0.4389220  
C     1.7082480    4.1631050   -0.9034340  
N     2.9066500    3.4793590   -0.8345650  
C     1.4916690    5.4513630   -1.2743990  
C     0.1305880    5.9646100   -1.2175310  
O    -0.1546980    7.1291550   -1.4464810  
C    -1.0260620    4.9610530   -0.8765540  
O    -2.1669510    5.3188760   -1.0872650  
C    -0.6787440    3.5846720   -0.3995420  
H     0.9335830    1.1413490    0.3802100  
H     2.2862360    6.1272430   -1.5755240  
H     3.8093360    3.9025810   -0.9848810  
C    -1.7214020    2.6897200    0.0260430  
C    -1.7608860    1.3085380   -0.1045970  
C    -3.0026470    0.8925450    0.4652730  
C    -3.6360840    2.1712190    0.9227780  
N    -2.8922800    3.2077600    0.6635610  
C    -4.9237730    2.1928580    1.5558250  
C    -5.5711630    1.0119890    1.6956110  
O    -6.7765740    0.8841620    2.2616760  
C    -4.9719750   -0.3049960    1.2533710  
O    -5.6191860   -1.3113730    1.5239770  
C    -3.6355500   -0.3246060    0.5941300  
H    -1.0560000    0.6850500   -0.6325550  
H    -5.3522460    3.1318620    1.8875010  
H    -6.9661490   -0.0819190    2.2514110  
C    -3.0648150   -1.5845870    0.1626990  
C    -1.7406660   -1.9488440    0.1681660  
C    -1.7003030   -3.2889030   -0.3692960  
C    -3.1319650   -3.6014070   -0.6791550  
N    -3.9212570   -2.6183670   -0.3639600  
C    -3.5163920   -4.8618140   -1.2624640  
C    -2.5394600   -5.7673550   -1.5046220  
O    -2.7499760   -6.9803060   -2.0351850  
C    -1.0895070   -5.4851780   -1.1894260  
O    -0.2725530   -6.3691400   -1.4467830  
C    -0.7175610   -4.1886650   -0.6056800  
H    -0.9031670   -1.3884750    0.5582070  
H    -4.5586750   -5.0625550   -1.4833260  
H    -1.8618400   -7.3992110   -2.0871940  
H     0.3350050   -4.0175840   -0.4016700  
C     3.7467150    1.2738890   -0.0481680  
C     5.0955610    1.3865440   -0.2843490  
C     5.6670690    0.1403740    0.1629690  
C     4.4937070   -0.6469060    0.6595200  
N     3.3788000    0.0157320    0.5322950  
C     4.6536390   -1.9708600    1.1992520  
C     5.9061890   -2.4858990    1.2416850  
O     6.2024440   -3.7008300    1.7164460  
C     7.1095440   -1.7162660    0.7458030  
O     8.2051420   -2.2723060    0.8273280  
C     6.9237050   -0.3678750    0.2011150  
H     5.6376870    2.2158040   -0.7185890  
H     3.7921850   -2.5229790    1.5576650  
H     7.1773590   -3.7902830    1.6165550  
H     7.8083060    0.1572770   -0.1454620  
