62


C    -0.2333250    1.8034280    0.3680050  
C     1.1163550    1.5681670    0.2656240  
C     1.2805530    0.1852630   -0.0840150  
C    -0.0247920   -0.3576830   -0.2089670  
N    -0.9338490    0.6452840    0.0647030  
C    -0.2677130   -1.6824330   -0.5931120  
C     0.8479490   -2.4756050   -0.8735700  
O     0.6805540   -3.7598820   -1.2683490  
C     2.1597510   -1.9533520   -0.7635700  
O     3.1367060   -2.8763560   -1.0602580  
C     2.4134580   -0.6397810   -0.3455620  
H     1.8905940    2.3079780    0.3985070  
H    -1.9144640    0.5053340    0.2601220  
H     1.5805840   -4.1080200   -1.4242130  
H     3.7777260   -2.4358790   -1.6583950  
C    -0.4706950    3.8332110    1.7492370  
C    -1.3456420    4.8726180    1.8701420  
C    -2.3930740    4.6673530    0.9066090  
C    -2.0945200    3.4694990    0.2113980  
N    -0.9078880    2.9596040    0.7491520  
C    -2.8929130    2.9890500   -0.8346050  
C    -4.0273780    3.7171790   -1.1627670  
O    -4.8374730    3.2857180   -2.1719520  
C    -4.3520400    4.9079820   -0.4629440  
O    -5.5110910    5.5145930   -0.9031500  
C    -3.5494990    5.3890590    0.5556420  
H    -1.2638190    5.6888830    2.5746420  
H    -2.6539370    2.0983650   -1.4037830  
H    -5.5633220    3.9282320   -2.2547210  
H    -5.6675010    6.3257190   -0.3972930  
H    -3.8074990    6.3119720    1.0710270  
H     0.4282930    3.5979100    2.2996410  
C     4.4985730    1.6042920    2.9146330  
C     3.5759420    0.8786110    2.2420660  
C     4.1876010    0.5825170    0.9470270  
C     5.5254690    1.2358130    1.0297180  
N     5.7010700    1.8403020    2.1693430  
C     6.4713740    1.1763290   -0.0557500  
C     6.1235830    0.4604920   -1.1479980  
O     6.9215880    0.2896780   -2.2178720  
C     4.8107590   -0.2579280   -1.2295530  
O     4.6424790   -0.9740940   -2.2262620  
C     3.7795800   -0.1053990   -0.1573190  
H     2.6030260    0.5548290    2.5798160  
H     7.4309590    1.6737570    0.0286640  
H     6.4341290   -0.3014300   -2.8288890  
H     4.4325030    2.0018210    3.9201740  
C    -2.5108510   -1.7233740   -1.6929100  
C    -3.6867170   -2.3926550   -1.6072990  
C    -3.5548800   -3.3625210   -0.5404010  
C    -2.1823480   -3.1996110   -0.0012790  
N    -1.5885820   -2.1745950   -0.7377570  
C    -1.6718510   -3.9232120    1.0248200  
C    -2.5196620   -4.9395760    1.6444820  
O    -2.1483900   -5.6361500    2.5767910  
C    -3.9764570   -5.1353970    1.0844390  
O    -4.6972030   -5.9811680    1.5911390  
C    -4.4111810   -4.2839030   -0.0253580  
H    -4.5574910   -2.2385780   -2.2280810  
H    -0.6634860   -3.7931780    1.4010770  
H    -5.4209150   -4.4202670   -0.4007170  
H    -2.2104320   -0.9409260   -2.3775500  
