60


C     0.2507810    1.9503400    0.1820550  
C     1.5258820    1.4335910    0.1470950  
C     1.4340510    0.0196790   -0.0647710  
C    -0.0021560   -0.2795580   -0.1850710  
N    -0.6697900    0.9377590   -0.0758850  
C    -0.5698830   -1.5135370   -0.3701480  
C     0.3951700   -2.6356240   -0.4537780  
O     0.0539660   -3.7935840   -0.6209340  
C     1.9376290   -2.3463450   -0.3315600  
O     2.6858850   -3.3106120   -0.2907310  
C     2.3994110   -0.9608390   -0.1913570  
H     2.4398150    2.0027720    0.2276680  
H    -1.6417710    0.9741710    0.2030610  
C     0.5420830    4.2540060    1.1146600  
C    -0.1799020    3.3078650    0.4309340  
C    -1.4317080    3.9510400    0.0346570  
C    -1.3654970    5.3382960    0.5569660  
N    -0.1361650    5.4485520    1.1895200  
C    -2.3381780    6.2690880    0.4082640  
C    -3.5503880    5.8958480   -0.3229140  
O    -4.4824350    6.6624720   -0.4977570  
C    -3.6360360    4.4413090   -0.9075260  
O    -4.6309300    4.1055790   -1.5287360  
C    -2.5077200    3.5307350   -0.6805830  
H    -2.2637230    7.2801470    0.7964620  
H    -2.5796250    2.5421140   -1.1197840  
H     1.5127600    4.1480510    1.5809760  
H     0.1911890    6.2711640    1.6732180  
C     5.2319490    1.0670530    2.6603720  
C     4.0875820    0.5913640    2.1088360  
C     4.4977410   -0.0275970    0.8525660  
C     5.9751830    0.1727890    0.8244770  
N     6.3976390    0.8160780    1.8799410  
C     6.7941490   -0.3350620   -0.2459400  
C     6.1778350   -1.0115570   -1.2412800  
O     6.8117490   -1.5359300   -2.3032390  
C     4.6839880   -1.1976450   -1.2702320  
O     4.2052060   -1.6978860   -2.2820470  
C     3.8411700   -0.7062280   -0.1284260  
H     3.0855200    0.6303040    2.5109360  
H     7.8665560   -0.1750300   -0.2322710  
H     6.1027470   -1.9174140   -2.8664100  
H     5.3478840    1.5855590    3.6054060  
C    -2.8506600   -0.8557670   -1.2256900  
C    -2.0069130   -1.7189120   -0.5361150  
C    -2.8528300   -2.7883100   -0.0358030  
C    -4.1772070   -2.4972170   -0.4460830  
N    -4.1381260   -1.3209100   -1.1739920  
C    -5.2770090   -3.2991560   -0.1178500  
C    -5.0323950   -4.4307470    0.6426720  
O    -6.0583200   -5.2582320    0.9856070  
C    -3.7116520   -4.7408010    1.0662130  
O    -3.6259390   -5.8998020    1.8118090  
C    -2.6331900   -3.9406790    0.7450010  
H    -4.9262630   -0.8966640   -1.6392640  
H    -6.2885040   -3.0714740   -0.4378040  
H    -5.6731370   -6.0016970    1.4818060  
H    -2.6941590   -6.1357560    1.9352600  
H    -1.6319450   -4.2190140    1.0550360  
H    -2.6034000    0.0118330   -1.8209820  
