60


C     0.7523340    0.7964500   -0.3763910  
C     1.8906150    0.0158290   -0.2961130  
C     3.0262800    0.8738800   -0.4144810  
C     2.5202820    2.1959350   -0.5475080  
N     1.1412880    2.1233730   -0.5051480  
C     3.3375520    3.3211660   -0.6539800  
C     4.7064330    3.1049190   -0.5885550  
O     5.5675060    4.1516820   -0.6651120  
C     5.2496710    1.8004470   -0.4306700  
O     6.6232060    1.7839690   -0.3873120  
C     4.4385020    0.6608210   -0.3741810  
H     1.8944060   -1.0511410   -0.1348140  
H     0.5190830    2.8789520   -0.7487330  
H     2.9494880    4.3295810   -0.7535030  
H     6.4568120    3.7590030   -0.5591790  
H     6.8844110    1.2013450    0.3747610  
C    -1.1638560   -0.7538840   -0.8609730  
C    -0.6446930    0.4047260   -0.3543480  
C    -1.7709630    1.1411460    0.2201720  
C    -2.9746710    0.3059400   -0.0029600  
N    -2.5298230   -0.8421740   -0.6280540  
C    -4.2512830    0.6543610    0.3370000  
C    -4.4226670    1.9434960    1.0425230  
O    -5.4951570    2.3114180    1.4869250  
C    -3.1573180    2.8389310    1.2918150  
O    -3.3001600    3.9184390    1.8422680  
C    -1.8515370    2.3389780    0.8578660  
H    -0.9847650    2.9575790    1.0662020  
H    -0.6498650   -1.5450900   -1.3897470  
H    -3.1413800   -1.5442300   -1.0155680  
C    -5.4365810   -3.4962310    1.4801450  
C    -4.7697030   -2.3223830    1.3242480  
C    -5.5995490   -1.4588780    0.5068180  
C    -6.8239680   -2.2391320    0.2017660  
N    -6.6482350   -3.4734790    0.8013910  
C    -7.8870620   -1.7776990   -0.5051970  
C    -7.8299640   -0.4162390   -1.0205740  
O    -8.7447760    0.1054990   -1.6382140  
C    -6.5140180    0.4086560   -0.7851070  
O    -6.3872640    1.4775610   -1.3525590  
C    -5.4368570   -0.1730720    0.0622440  
H    -3.8106970   -2.0715260    1.7515340  
H    -8.7830380   -2.3625770   -0.6889010  
H    -5.1474440   -4.3795210    2.0343830  
H    -7.3513990   -4.1946490    0.8422960  
C     7.6656570   -1.0064810    2.1596650  
C     7.5674920   -2.3309400    1.9097280  
C     6.5261430   -2.4557710    0.8973660  
C     6.0584000   -1.0520800    0.6620200  
N     6.7483080   -0.2198990    1.3967270  
C     4.9940620   -0.7089330   -0.2711700  
C     4.5385080   -1.7636320   -1.0207450  
O     3.6154290   -1.6500510   -1.9903930  
C     5.0095740   -3.1747390   -0.8346680  
O     4.5206210   -4.0411630   -1.5635960  
C     6.0288360   -3.4820940    0.1828910  
H     8.1397860   -3.1378520    2.3452670  
H     3.5171180   -2.5605240   -2.3514250  
H     6.3428100   -4.5164350    0.2829320  
H     8.3347800   -0.4974600    2.8421740  
