62


C    -0.7327980   -3.0266550    0.0693140  
C    -1.6191980   -4.1036270    0.0319630  
C    -2.9223170   -3.5675590   -0.1015500  
C    -2.7901720   -2.1426510   -0.1382610  
N    -1.4650610   -1.8570450   -0.0365880  
C    -3.9093810   -1.2612720   -0.2464190  
C    -5.1627510   -1.8945860   -0.3327810  
O    -6.2939780   -1.1554320   -0.4400950  
C    -5.2952280   -3.3111590   -0.3103350  
O    -6.6056120   -3.7326030   -0.4097030  
C    -4.2071670   -4.1469660   -0.1932990  
H    -1.3477090   -5.1486000    0.0887060  
H    -1.0933770   -0.9105070   -0.0461600  
H    -7.0425440   -1.7777650   -0.4934940  
H    -6.6433940   -4.7004150   -0.4010000  
H    -4.3367610   -5.2267120   -0.1712940  
C     0.6905530   -2.9798920    0.1799930  
C     1.6010630   -3.9958410    0.3241790  
C     2.8881610   -3.3673800    0.3309670  
C     2.5925760   -1.8947480    0.2000210  
N     1.3157860   -1.6793800    0.1154100  
C     3.6597960   -0.8918630    0.1356650  
C     4.9178370   -1.4114370    0.1610920  
O     6.0390500   -0.6522780    0.0517440  
C     5.2438470   -2.8703270    0.3072650  
O     6.4458980   -3.1656240    0.3385250  
C     4.1618230   -3.8342580    0.3992530  
H     1.4043820   -5.0565890    0.3922280  
H     6.7764090   -1.3082720    0.1260810  
H     4.4221150   -4.8835490    0.4935790  
C     1.1581690    2.0817540    2.4508530  
C     1.7717310    0.9373510    2.0136360  
C     2.5214000    1.2760640    0.8356980  
C     2.3199360    2.6655590    0.6131610  
N     1.4986150    3.1343030    1.6192140  
C     2.9091870    3.3705860   -0.4428470  
C     3.7604730    2.6593980   -1.2708440  
O     4.3890360    3.2786710   -2.3091610  
C     4.0112150    1.2782730   -1.0552630  
O     4.8817880    0.7181080   -1.9733260  
C     3.3873350    0.5544350   -0.0331840  
H     1.6952320   -0.0355610    2.4754010  
H     1.0751280    4.0511130    1.6297160  
H     2.7395980    4.4291030   -0.6106790  
H     4.9414980    2.5882810   -2.7231800  
H     5.5811030    0.2494290   -1.4724340  
H     0.5043130    2.2411400    3.2966210  
C    -3.7572770    0.1775270   -0.2345680  
C    -4.6818830    1.1949170   -0.2265340  
C    -3.9276760    2.4172380   -0.1318250  
C    -2.4955830    1.9743460   -0.1211880  
N    -2.4012110    0.6839080   -0.1829800  
C    -1.4003260    2.9019630   -0.0248180  
C    -1.7148950    4.2073100    0.1208190  
O    -0.8100120    5.1886260    0.2915710  
C    -3.1476010    4.6992160    0.1173250  
O    -3.3131670    5.9143660    0.2454930  
C    -4.2386280    3.7351470   -0.0260380  
H    -5.7547110    1.1014650   -0.2518000  
H    -0.3800180    2.5390400   -0.0373540  
H    -1.3439150    6.0148250    0.3523270  
H    -5.2515940    4.1251960   -0.0217530  
