60


C    -1.0774580   -1.9197900    0.0596180  
C    -1.8602090   -0.7830870   -0.0754440  
C    -3.2246700   -1.1835950   -0.0637540  
C    -3.2309720   -2.5972440    0.1054960  
N    -1.9203360   -3.0305460    0.1210710  
C    -4.4010230   -3.3450390    0.2456920  
C    -5.5919180   -2.6380050    0.2294050  
O    -6.7705230   -3.2832360    0.3862240  
C    -5.6258980   -1.2206860    0.0486140  
O    -6.8973780   -0.7129930    0.0475280  
C    -4.4637120   -0.4715100   -0.1456400  
H    -1.4731720    0.2122590   -0.2284440  
H    -1.6355480   -3.9160560    0.5157850  
H    -4.4063430   -4.4210940    0.3830990  
H    -7.4556440   -2.5850980    0.3652470  
H    -6.8895280    0.1155810    0.6016960  
C     0.3470990   -2.0592490    0.0806980  
C     1.3253150   -1.1374540    0.3737090  
C     2.6043470   -1.7678120    0.2280710  
C     2.3229840   -3.1586890   -0.1923410  
N     0.9393700   -3.3081610   -0.1878560  
C     3.2626520   -4.0752760   -0.5279130  
C     4.6621870   -3.6803190   -0.4446040  
O     5.5849660   -4.4205850   -0.7471800  
C     4.9990170   -2.2345630    0.0735670  
O     6.1770280   -1.9341490    0.1990370  
C     3.8954770   -1.3077950    0.3941940  
H     1.1452560   -0.1207380    0.6882940  
H     3.0277930   -5.0852170   -0.8496790  
H     0.4908550   -3.9711550   -0.8069120  
C     3.5845200    0.6028810    1.9992940  
C     4.1949480    0.0267660    0.9203330  
C     5.1520370    1.0219790    0.4193040  
C     5.0237240    2.2078000    1.3028010  
N     4.0520260    1.8882210    2.2312140  
C     5.7388530    3.3549260    1.1771220  
C     6.6946900    3.4577180    0.0814520  
O     7.3808550    4.4489450   -0.1191150  
C     6.8272740    2.2288750   -0.8891410  
O     7.5966130    2.3026940   -1.8334860  
C     6.0132670    1.0333500   -0.6285040  
H     5.6265020    4.2033370    1.8454350  
H     6.1531310    0.1820580   -1.2836350  
H     2.8375500    0.1747390    2.6544920  
H     3.8112180    2.4575560    3.0275140  
C    -6.7759350    2.8297140    1.6998180  
C    -6.2190340    3.9203780    1.1294210  
C    -5.2418650    3.4034690    0.1789780  
C    -5.3150610    1.9147490    0.3356310  
N    -6.2297190    1.6005540    1.2138070  
C    -4.4831580    0.9870660   -0.4161990  
C    -3.7145750    1.5774360   -1.3860290  
O    -2.9346360    0.8984410   -2.2375660  
C    -3.6463110    3.0668710   -1.5961160  
O    -2.9141420    3.4779770   -2.4949240  
C    -4.4446990    3.9671740   -0.7469520  
H    -6.4481720    4.9607400    1.3118640  
H    -2.5228010    1.5812460   -2.8154060  
H    -4.3674230    5.0337080   -0.9332690  
H    -7.5567000    2.7846780    2.4486210  
