58


C     2.9344350    1.3758020   -0.7479910  
C     1.6469720    0.9975420   -0.5764000  
C     1.6485670   -0.2949680    0.0748310  
C     3.0699930   -0.6504010    0.2810010  
N     3.8270250    0.3981080   -0.2767760  
C     3.4940020   -1.7320280    0.9766270  
C     2.4902230   -2.6530050    1.5039890  
O     2.7790410   -3.6359380    2.1667810  
C     0.9835640   -2.3679790    1.1891670  
O     0.1568490   -3.2176280    1.4612410  
C     0.6245620   -1.0905750    0.5135890  
H     0.7751290    1.5554230   -0.8826800  
H     4.5352970   -1.9601920    1.1664910  
H     3.3374300    2.2687600   -1.2047330  
C    -1.9528910   -0.2592320   -3.0276920  
C    -0.9102560   -0.5578750   -2.2072230  
C    -1.4104240   -0.5225310   -0.8524310  
C    -2.8452820   -0.1517270   -0.9613860  
N    -3.0986400    0.0386550   -2.3054340  
C    -3.7149480   -0.0189130    0.0943240  
C    -3.1823860   -0.4903960    1.3976410  
O    -3.8931760   -0.7554350    2.3498210  
C    -1.6412240   -0.6942880    1.5613680  
O    -1.1836090   -0.7373890    2.6896630  
C    -0.8000350   -0.7740610    0.3503770  
H     0.0974590   -0.8000250   -2.5087500  
H    -1.9795140   -0.2227220   -4.1092100  
H    -4.0567440   -0.1009630   -2.6432270  
C     6.5600440    3.7167530    0.7459950  
C     5.4182320    2.9969370    0.6093020  
C     5.8457480    1.7143300    0.0618040  
C     7.3210710    1.8519370   -0.0760520  
N     7.7328940    3.0227080    0.3263980  
C     8.1496710    0.7824430   -0.5734970  
C     7.5468420   -0.3753500   -0.9250120  
O     8.1990450   -1.4530330   -1.3945940  
C     6.0588760   -0.5536690   -0.8348660  
O     5.5799550   -1.5979340   -1.2631370  
C     5.2172050    0.5566040   -0.2758850  
H     4.4139040    3.2873020    0.8827690  
H     9.2221410    0.9210650   -0.6508550  
H     7.5087820   -2.1161410   -1.6087790  
H     6.6672240    4.7212030    1.1375450  
C    -7.0886590   -0.7127320   -2.7769280  
C    -8.1277980   -0.1972030   -2.0856810  
C    -7.5414960    0.3722920   -0.8789940  
C    -6.0743990    0.0641660   -0.9900120  
N    -5.8300320   -0.5479930   -2.1174940  
C    -5.1158880    0.4360020    0.0418160  
C    -5.6241170    1.2424500    1.0315350  
O    -4.8733460    1.8025910    1.9808180  
C    -7.0820690    1.5913510    1.1497210  
O    -7.4226070    2.3020570    2.0932830  
C    -8.0350770    1.0934070    0.1434170  
H    -9.1735810   -0.1837580   -2.3584100  
H    -5.4987230    2.2745670    2.5756060  
H    -9.0799020    1.3620920    0.2636170  
H    -7.1031620   -1.2157860   -3.7360040  
