60


C    -0.2587700   -0.2939840   -0.1299330  
C     0.1416490    1.0346060    0.0062420  
C    -1.0272930    1.8156200    0.1873710  
C    -2.1404590    0.9244860    0.1588200  
N    -1.6494830   -0.3373480   -0.0363400  
C    -3.4773420    1.3655470    0.2754910  
C    -3.6587940    2.7402460    0.4512390  
O    -4.9085690    3.2324830    0.6368670  
C    -2.5541890    3.6386050    0.4907900  
O    -2.9298430    4.9528550    0.6793120  
C    -1.2559600    3.1993960    0.3583980  
H     1.1645850    1.3733830   -0.0374370  
H    -2.1856150   -1.1907440   -0.1084050  
H    -4.8362390    4.2017870    0.6956940  
H    -2.1465290    5.5225790    0.6656100  
H    -0.4255400    3.9012080    0.3885030  
C     4.1076320   -0.8376930   -0.3146650  
C     4.1885360   -2.1766600   -0.5738740  
C     2.8213510   -2.6498470   -0.6320470  
C     1.9954300   -1.4321780   -0.3791160  
N     2.7443390   -0.3894400   -0.1940040  
C     0.5263880   -1.4865380   -0.3443990  
C    -0.0121570   -2.7372410   -0.5381680  
O    -1.3492210   -2.9755140   -0.5328010  
C     0.7855770   -3.9522660   -0.7878810  
O     0.1841550   -5.0223030   -0.9543780  
C     2.2557060   -3.8577410   -0.8297540  
H     5.0788980   -2.7633090   -0.7499260  
H    -1.4302040   -3.9433080   -0.6975130  
H     2.8094710   -4.7747670   -1.0076740  
C     8.1808570   -1.0465900    1.4909890  
C     6.9286090   -1.3898020    1.0945040  
C     6.3954610   -0.2023800    0.4457710  
C     7.5040040    0.7968180    0.5651260  
N     8.5443700    0.2946690    1.1699230  
C     7.3728440    2.1394450    0.0686490  
C     6.1990320    2.4824300   -0.5092740  
O     5.9374380    3.6975160   -1.0150860  
C     5.0620390    1.5028540   -0.6674900  
O     4.0715120    1.9060350   -1.2677950  
C     5.2032860    0.1057120   -0.1446420  
H     6.4190260   -2.3292750    1.2480600  
H     8.1959720    2.8384920    0.1662370  
H     5.0324920    3.6319120   -1.3934170  
H     8.9009170   -1.6629400    2.0165510  
C    -4.7807350   -2.3217030    2.4642430  
C    -4.0606480   -1.2372270    2.0891520  
C    -4.8069060   -0.6511230    0.9785200  
C    -5.9906980   -1.5505240    0.8288080  
N    -5.9706100   -2.5223510    1.6974750  
C    -7.0100350   -1.3077880   -0.1594450  
C    -6.8591800   -0.2310710   -0.9627800  
O    -7.7233940    0.1149350   -1.9315900  
C    -5.6618010    0.6790290   -0.8633530  
O    -5.5669100    1.5664460   -1.7041690  
C    -4.6287150    0.4468680    0.1988290  
H    -3.1410500   -0.8640220    2.5162570  
H    -7.8597880   -1.9765010   -0.2399260  
H    -7.3258190    0.9027950   -2.3635340  
H    -4.5605400   -3.0214690    3.2619500  
