62


C     2.4306910    2.0523620   -0.6995500  
C     3.4491140    1.3232480   -0.1110520  
C     2.8065350    0.2253360    0.5849620  
C     1.4129970    0.3515220    0.3675820  
N     1.2185620    1.4726870   -0.4188890  
C     0.4459700   -0.5141810    0.9204140  
C     0.9379940   -1.5423220    1.7258360  
O     0.0824270   -2.4466240    2.2700590  
C     2.3307040   -1.6718710    1.9747380  
O     2.6454940   -2.7325440    2.8019520  
C     3.2615470   -0.8106640    1.4252090  
H     0.3172020    1.8043210   -0.7280160  
H     0.6104680   -3.0460880    2.8254430  
H     3.6004570   -2.7475100    2.9632030  
H     4.3178620   -0.9279730    1.6537430  
H     2.4970720    2.9254470   -1.3330480  
C    -1.7500030   -0.5611390   -2.8886830  
C    -3.0029350   -0.2996320   -2.4027530  
C    -2.8960340   -0.1888120   -0.9749560  
C    -1.5266780   -0.3797620   -0.6552080  
N    -0.8503870   -0.5965390   -1.8388400  
C    -1.0009870   -0.3304200    0.6520210  
C    -1.9230020   -0.0462860    1.6586680  
O    -1.5143350    0.0665250    2.9486150  
C    -3.2960060    0.1713530    1.3704260  
O    -4.0610090    0.4206850    2.4931120  
C    -3.8197480    0.0828370    0.0741950  
H    -3.9019440   -0.2167070   -2.9935700  
H     0.1191310   -0.8671110   -1.8990470  
H    -2.3217350    0.2730270    3.4577580  
H    -4.6024750    1.2197200    2.3214890  
H    -1.4156890   -0.7225730   -3.9037610  
C     5.4498520    2.8851830   -0.1609880  
C     4.8610030    1.6561380   -0.1904670  
C     5.9950830    0.7275070   -0.4210040  
C     7.1907940    1.6125010   -0.4863230  
N     6.8617880    2.8662310   -0.3408830  
C     8.5110200    1.0805780   -0.7036600  
C     8.6378120   -0.2567730   -0.8829060  
O     9.8099830   -0.8845400   -1.0981290  
C     7.4493170   -1.1676320   -0.8583170  
O     7.6389800   -2.3732870   -1.0262640  
C     6.1031290   -0.5984880   -0.6258880  
H     9.3651180    1.7483920   -0.7329990  
H     9.5791890   -1.8344070   -1.1912170  
H     5.2667710   -1.2904620   -0.6245450  
H     4.9610430    3.8388880   -0.0017020  
C    -6.7564480   -2.3868040   -2.1313690  
C    -7.8931970   -1.6689890   -1.9991260  
C    -7.5153390   -0.5031500   -1.2039940  
C    -6.0479470   -0.6845330   -0.9585210  
N    -5.6198080   -1.7876370   -1.4927390  
C    -5.2629270    0.2752540   -0.1731310  
C    -5.9874310    1.3055350    0.3502140  
O    -5.4402090    2.2800030    1.1334750  
C    -7.4433290    1.5097160    0.1260790  
O    -7.9705500    2.5014020    0.6383320  
C    -8.1925450    0.5414360   -0.6946770  
H    -8.8814840   -1.8981390   -2.3729860  
H    -6.1933900    2.8826830    1.3386090  
H    -9.2552450    0.7177640   -0.8307400  
H    -6.6137190   -3.3297360   -2.6449850  
