62


C    -0.0431780   -0.0603040    0.7359160  
C    -0.4852060    1.2323240    0.9786290  
C     0.6492010    2.0961270    0.9074500  
C     1.7774110    1.2839860    0.6293070  
N     1.3279900   -0.0064910    0.5274550  
C     3.0912600    1.7975990    0.4587910  
C     3.2203430    3.1954200    0.5847740  
O     4.4338360    3.7887630    0.5098740  
C     2.0915600    4.0113970    0.8674010  
O     2.4011870    5.3548650    0.9736170  
C     0.8251750    3.4887820    1.0326780  
H    -1.4898440    1.5298080    1.2420180  
H     1.8939120   -0.8181190    0.3309060  
H     4.2925260    4.7451970    0.6286180  
H     1.6036480    5.8563490    1.1973870  
H    -0.0165060    4.1421460    1.2540490  
C    -4.3274590   -0.8480160   -0.0228660  
C    -4.2791080   -2.2278050    0.1571280  
C    -2.9334050   -2.5744890    0.4431380  
C    -2.1763290   -1.3674350    0.4446430  
N    -3.0424760   -0.3436890    0.1693340  
C    -0.7803190   -1.3213910    0.6864100  
C    -0.1735730   -2.5698570    0.8729640  
O     1.1796460   -2.6578120    1.0758890  
C    -0.9172050   -3.7815490    0.8715930  
O    -0.1332070   -4.8984160    1.0922580  
C    -2.2795700   -3.8043900    0.6752870  
H    -5.1305580   -2.8848050    0.0815170  
H    -2.7870910    0.6128230   -0.0273180  
H     1.3892200   -3.6024150    1.1891340  
H    -0.6870250   -5.6928730    1.0832500  
H    -2.8308100   -4.7417050    0.6813740  
C    -8.5740950   -1.7835310   -0.7242230  
C    -9.0864520   -0.5603520   -0.9807760  
C    -7.9549980    0.3558090   -0.8783740  
C    -6.7941840   -0.5253980   -0.5398270  
N    -7.1670490   -1.7673010   -0.4530130  
C    -5.4403310    0.0155330   -0.3458860  
C    -5.3333490    1.3773560   -0.4976980  
O    -4.1607770    2.0534560   -0.3559490  
C    -6.4647680    2.2623320   -0.8332460  
O    -6.2430340    3.4750150   -0.9481330  
C    -7.8107410    1.6849990   -1.0208180  
H   -10.1083160   -0.2947410   -1.2134000  
H    -4.3978170    2.9923440   -0.5357630  
H    -8.6164310    2.3705800   -1.2660990  
H    -9.0879980   -2.7366790   -0.7017180  
C     4.2161770    0.9231600    0.1818580  
C     4.3986850   -0.3756580    0.5958930  
C     5.6445240   -0.8060670    0.0171720  
C     6.1095250    0.3838880   -0.7709530  
N     5.2889630    1.3850070   -0.6686990  
C     7.3341380    0.3503200   -1.5314490  
C     8.0655640   -0.7869670   -1.4906970  
O     9.2272950   -0.9659860   -2.1370900  
C     7.6302100   -1.9963820   -0.6902290  
O     8.3726680   -2.9812260   -0.7254500  
C     6.3785760   -1.9461370    0.0614600  
H     3.7904840   -0.9413650    1.2882310  
H     7.6442980    1.2195980   -2.1004980  
H     9.5023430   -1.8831630   -1.9069450  
H     6.0945750   -2.8347660    0.6168810  
