62


C     1.8594900   -3.2952300   -1.7758430  
C     3.0419360   -2.6786800   -1.4404390  
C     2.7167040   -1.4873770   -0.7136470  
C     1.3061520   -1.4386760   -0.6398540  
N     0.8117090   -2.5590930   -1.2758590  
C     0.5701640   -0.3824570   -0.0520370  
C     1.3298380    0.6723490    0.4497730  
O     0.7166980    1.7326700    1.0451750  
C     2.7492180    0.6696850    0.4015930  
O     3.2943990    1.7705960    0.9615890  
C     3.4881370   -0.4162660   -0.1450080  
H     4.0186800   -3.0360980   -1.7236860  
H    -0.1643200   -2.7071390   -1.4827070  
H     1.4307050    2.3381090    1.3219930  
H     4.2976430    1.6944840    0.8595620  
H     1.6825790   -4.2052610   -2.3310450  
C    -1.6454570   -1.4662940    0.4881860  
C    -0.8958270   -0.4158890    0.0303010  
C    -1.8496770    0.6235030   -0.3634900  
C    -3.1969280    0.0815240   -0.0816400  
N    -2.9989000   -1.1883880    0.4336550  
C    -4.3828810    0.7181150   -0.3117970  
C    -4.2923260    2.0822630   -0.8764860  
O    -5.2625600    2.8000770   -1.0389720  
C    -2.8717410    2.6457490   -1.2527750  
O    -2.8024800    3.7367800   -1.7963460  
C    -1.6880280    1.8458140   -0.9320560  
H    -0.7145870    2.2644150   -1.1582750  
H    -1.3029120   -2.4107620    0.8916770  
H    -3.7431760   -1.7926410    0.7479660  
C    -6.0651750   -0.6911340    3.5373290  
C    -7.2772330   -1.1167700    3.0645880  
C    -7.2907110   -0.8722190    1.6483460  
C    -6.0385980   -0.2958510    1.3157050  
N    -5.2963280   -0.2227680    2.4822730  
C    -5.6926430    0.1126840    0.0091680  
C    -6.6651880   -0.0852120   -0.9738970  
O    -6.3899500    0.2370390   -2.2662450  
C    -7.9213600   -0.6640940   -0.6569490  
O    -8.7572350   -0.8032090   -1.7497070  
C    -8.2422050   -1.0616350    0.6273420  
H    -8.0707850   -1.5557410    3.6537490  
H    -4.4537860    0.3235820    2.5827180  
H    -7.2128010    0.1255190   -2.7737080  
H    -9.6477910   -1.0350080   -1.4476390  
H    -9.2119880   -1.5068910    0.8401370  
H    -5.6676720   -0.6937400    4.5425090  
C     4.9234130   -0.4142760   -0.1020130  
C     5.8562780   -1.3830580   -0.4260710  
C     7.1394470   -0.8205330   -0.1721460  
C     6.8571010    0.5661860    0.3317050  
N     5.5736480    0.7852280    0.3727260  
C     7.9022540    1.4726860    0.7036080  
C     9.1748210    1.0187390    0.5855930  
O    10.2584900    1.7305890    0.8888310  
C     9.5037350   -0.3838480    0.0833820  
O    10.7076120   -0.6613990    0.0290900  
C     8.4248320   -1.2718250   -0.2858450  
H     5.6729710   -2.3894430   -0.7635520  
H     7.6730580    2.4703160    1.0610310  
H    11.0139890    1.1225700    0.6947580  
H     8.6842450   -2.2641190   -0.6401280  
