62


C    -0.5177030   -1.5235400   -0.3574360  
C     0.8477420   -1.5669370   -0.1605930  
C     1.3144630   -0.2241430   -0.0207670  
C     0.1697210    0.6156070   -0.1136910  
N    -0.9186810   -0.1972200   -0.3276050  
C     0.2012370    2.0256070   -0.0152940  
C     1.4747730    2.5504150    0.1972800  
O     1.6494780    3.9147650    0.2876860  
C     2.6320960    1.7494740    0.3307990  
O     3.7883510    2.4805410    0.5238660  
C     2.5966120    0.3552140    0.2053360  
H     1.4405000   -2.4672920   -0.1143740  
H    -1.8585920    0.1426090   -0.4654090  
H     2.6059610    4.0375270    0.4584530  
H     4.2668290    2.0948610    1.2893970  
C    -3.8972750    1.7781780    1.8472100  
C    -2.5621630    1.6154260    1.5705780  
C    -2.2203620    2.5522990    0.5314670  
C    -3.4039810    3.2817640    0.2400410  
N    -4.4064220    2.7785190    1.0450780  
C    -3.4474170    4.3292800   -0.6870190  
C    -2.2576950    4.6563200   -1.3163110  
O    -2.2138230    5.6799110   -2.2131670  
C    -1.0596940    3.9357230   -1.0574030  
O     0.0173770    4.3648020   -1.8034540  
C    -1.0172380    2.8570340   -0.1694990  
H    -1.8935460    0.9309780    2.0726330  
H    -5.3636350    3.0944520    1.0481550  
H    -4.3502760    4.8909530   -0.9038790  
H    -1.2825340    5.7310430   -2.5022050  
H     0.7982880    4.4023130   -1.2091080  
H    -4.5363540    1.2437810    2.5357410  
C     4.2916700   -2.7814440   -2.4275520  
C     5.4292720   -3.1136810   -1.7789510  
C     5.4555720   -2.2564530   -0.5967170  
C     4.1904230   -1.4586860   -0.6908330  
N     3.5258120   -1.7670220   -1.7635200  
C     3.8311060   -0.4454480    0.3094360  
C     4.7632340   -0.2630820    1.2899820  
O     4.6240480    0.6580060    2.2878530  
C     6.0234110   -1.0404240    1.4097930  
O     6.7648410   -0.7926430    2.3655400  
C     6.3357030   -2.0710610    0.4034150  
H     6.1824920   -3.8341960   -2.0662610  
H     5.4275120    0.5386470    2.8473900  
H     7.2690170   -2.6142630    0.5166720  
H     3.9111030   -3.1791260   -3.3606130  
C    -1.2060450   -3.7716630   -1.2470130  
C    -1.4604040   -2.6086120   -0.5779050  
C    -2.8408920   -2.7045950   -0.1020430  
C    -3.3526720   -4.0215340   -0.5592110  
N    -2.3049780   -4.6239550   -1.2245950  
C    -4.6101250   -4.4799440   -0.3291420  
C    -5.5292400   -3.6403570    0.4323970  
O    -6.6804600   -3.9642500    0.6829820  
C    -4.9969150   -2.2573840    0.9569970  
O    -5.7391050   -1.5462840    1.6180840  
C    -3.6209410   -1.8698200    0.6323430  
H    -4.9656760   -5.4451070   -0.6768430  
H    -3.2805190   -0.9085770    1.0023930  
H    -0.2996620   -4.0671420   -1.7580130  
H    -2.3643110   -5.5036870   -1.7129100  
