60


C    -3.3099720   -0.3657530   -0.1245420  
C    -2.1016850    0.2594150    0.2130670  
C    -2.1605720    1.6049850   -0.2252730  
C    -3.4503070    1.7799790   -0.8188550  
N    -4.1052290    0.5822530   -0.7553310  
C    -3.8983390    3.0082100   -1.3146140  
C    -3.0359530    4.0812580   -1.1760040  
O    -3.4017300    5.3102200   -1.6008010  
C    -1.7350380    3.9413020   -0.5869250  
O    -1.0342290    5.1137170   -0.5631390  
C    -1.2516570    2.7139130   -0.1414900  
H    -1.3095930   -0.1955610    0.7856650  
H    -5.0661380    0.3903030   -1.0069940  
H    -4.8788970    3.1468020   -1.7564960  
H    -2.6631820    5.9064500   -1.3637350  
H    -0.5380860    5.1416990    0.2951780  
C     1.7537380   -0.2802850   -1.1883050  
C     2.7515750   -0.0035630   -0.2904450  
C     2.2952570    1.1655180    0.4692510  
C     0.9398740    1.4960120   -0.0439030  
N     0.6862520    0.5837510   -1.0365540  
C     0.1252630    2.5264910    0.3781380  
C     0.7475290    3.4456870    1.3245540  
O     0.2591320    4.5296380    1.6554490  
C     2.1433580    3.0894540    1.9450460  
O     2.5770400    3.8021040    2.8345250  
C     2.8766870    1.9388280    1.4213800  
H     3.8454930    1.7238490    1.8505010  
H     1.7410480   -1.0348280   -1.9594610  
H    -0.1861550    0.5300650   -1.5421640  
C     5.0092780   -2.0026740   -3.4602690  
C     6.1082100   -2.4405930   -2.8080520  
C     5.9179340   -2.0280780   -1.4211360  
C     4.6010110   -1.3144810   -1.4248020  
N     4.0805970   -1.3077920   -2.6167150  
C     4.0248200   -0.7208060   -0.2153850  
C     4.7453430   -0.9222130    0.9298300  
O     4.3410690   -0.5218570    2.1507890  
C     6.0625720   -1.6318600    0.9563290  
O     6.6241950   -1.7503340    2.0460830  
C     6.6304790   -2.1776640   -0.2906640  
H     6.9544910   -2.9825770   -3.2063930  
H     5.0581050   -0.8051030    2.7630360  
H     7.5879230   -2.6850310   -0.2229650  
H     4.7632960   -2.1132290   -4.5093120  
C    -1.3438720   -4.2133300    1.1328820  
C    -1.5005610   -2.9327340    0.7022310  
C    -2.9341540   -2.7602040    0.5115510  
C    -3.4925960   -4.0777170    0.8735610  
N    -2.5649650   -4.9244700    1.2472360  
C    -4.9027790   -4.3659030    0.8003180  
C    -5.7264440   -3.3924160    0.3531400  
O    -7.0592400   -3.5436060    0.2018530  
C    -5.2059120   -2.0512740   -0.0407520  
O    -6.0344650   -1.2518030   -0.4940000  
C    -3.7442490   -1.7175240    0.1186450  
H    -0.7191980   -2.2153550    0.5015770  
H    -5.2696810   -5.3475300    1.0793700  
H    -7.3840550   -2.6895480   -0.1516550  
H    -0.4191510   -4.7231030    1.3762610  
