58


C    -1.2722170    1.7294060    0.6686560  
C    -2.6088830    1.5201010    0.5881780  
C    -2.8120070    0.2020410    0.0337630  
C    -1.4564500   -0.3531960   -0.2081940  
N    -0.5498400    0.6101900    0.2228660  
C    -1.2116440   -1.5738260   -0.7576420  
C    -2.3471740   -2.4216330   -1.1010060  
O    -2.2221390   -3.5431620   -1.5675890  
C    -3.7902460   -1.8612620   -0.8585660  
O    -4.7451100   -2.5240810   -1.2225050  
C    -3.9417640   -0.5170270   -0.2493540  
H    -3.3800610    2.2181400    0.8760650  
H    -0.2167840   -1.9439610   -0.9769310  
H    -0.7300020    2.5962970    1.0145140  
C     2.1958540   -2.4224930    1.7524840  
C     3.3668770   -1.8600290    1.3641450  
C     3.0512290   -0.6199420    0.6822110  
C     1.5745180   -0.5110190    0.7111810  
N     1.1167610   -1.6221360    1.3780390  
C     0.8600520    0.5334040    0.1835530  
C     1.6125530    1.6477790   -0.3941470  
O     1.0803470    2.6690740   -0.8004950  
C     3.1732790    1.5182380   -0.4893950  
O     3.7730280    2.3595380   -1.1297640  
C     3.8472700    0.3544370    0.1408650  
H     4.3564270   -2.2507380    1.5437090  
H     2.0167370   -3.3426830    2.2919050  
H     0.1439970   -1.8726370    1.4744720  
C     6.8373410   -2.5154900   -1.5358010  
C     5.6862710   -1.8982940   -1.1582070  
C     6.0549140   -0.6909470   -0.4508260  
C     7.5390120   -0.6528610   -0.4547840  
N     7.9478340   -1.7993370   -1.1108290  
C     8.2952450    0.3435690    0.0717660  
C     7.6121720    1.4679830    0.6986430  
O     8.1984430    2.4259930    1.1762980  
C     6.0446510    1.4312440    0.7736230  
O     5.4702320    2.2912210    1.4164610  
C     5.3160940    0.3144610    0.1164730  
H     4.6834720   -2.2436580   -1.3574430  
H     9.3801250    0.3551600    0.0337810  
H     6.9700570   -3.4359530   -2.0889840  
H     8.9054540   -2.0223590   -1.3330880  
C    -6.3751820    3.0138050   -1.5965630  
C    -5.3343200    2.1629400   -1.4299640  
C    -5.8364260    1.1184570   -0.5429920  
C    -7.2547370    1.5217300   -0.2797460  
N    -7.5613300    2.6274590   -0.8961430  
C    -8.1304960    0.7290160    0.5433960  
C    -7.6292180   -0.4042800    1.0854500  
O    -8.3252340   -1.2312090    1.8815370  
C    -6.1988240   -0.8226900    0.8727740  
O    -5.7994680   -1.7995480    1.4981810  
C    -5.3091490   -0.0185450   -0.0226800  
H    -4.3447650    2.2268560   -1.8587560  
H    -9.1534230    1.0472330    0.7107260  
H    -7.6947480   -1.9377760    2.1422320  
H    -6.4028070    3.9197780   -2.1904910  
