60


C    -4.4787620   -0.3000310   -0.4156810  
C    -5.1932500   -1.4776160   -0.2510440  
C    -4.2618790   -2.5195770    0.0248230  
C    -2.9661840   -1.9337150    0.0214080  
N    -3.1267380   -0.5865730   -0.2201790  
C    -1.7797510   -2.6735750    0.2109430  
C    -1.9441940   -4.0443890    0.4432180  
O    -0.8606020   -4.8127670    0.7063600  
C    -3.2359000   -4.6401830    0.4713660  
O    -3.2054920   -5.9938860    0.7313030  
C    -4.3847380   -3.9044510    0.2672500  
H    -6.2709770   -1.5611800   -0.2788530  
H    -2.3752140    0.0289400   -0.4923700  
H    -1.1590710   -5.7381460    0.7577850  
H    -4.0933880   -6.3678470    0.6301640  
H    -5.3608240   -4.3837530    0.2904480  
C     0.1342760    0.7134290    2.3615010  
C    -0.7215230   -0.2492500    1.9298950  
C    -0.0490470   -0.9811930    0.8729500  
C     1.2819160   -0.3600250    0.7281890  
N     1.3174370    0.6765360    1.6311720  
C     2.2962020   -0.7961400   -0.0984050  
C     1.9710790   -1.9512400   -0.9632330  
O     2.7261090   -2.4022710   -1.8019970  
C     0.5337570   -2.5886010   -0.8681510  
O     0.2476100   -3.4635200   -1.6621690  
C    -0.4406210   -2.0640870    0.1269700  
H    -1.7082250   -0.4539620    2.3162970  
H     0.0064640    1.4522570    3.1411500  
H     2.1644240    1.1809630    1.8539700  
C     3.6030740   -0.1719520   -0.1242910  
C     3.9177930    1.1576140    0.0529170  
C     5.3555960    1.2361030   -0.0327840  
C     5.7843440   -0.1856080   -0.2419400  
N     4.7698280   -0.9964280   -0.3014610  
C     7.1756950   -0.5430910   -0.3522110  
C     8.0867490    0.4558980   -0.2892490  
O     9.4116790    0.2782910   -0.3858610  
C     7.6825970    1.9014650   -0.0990640  
O     8.5894010    2.7343680   -0.0519020  
C     6.2632000    2.2403510    0.0287760  
H     3.2380960    1.9981550    0.1025250  
H     7.4600080   -1.5795620   -0.4947260  
H     9.7972540    1.1802050   -0.3059620  
H     6.0123530    3.2865850    0.1747890  
C    -6.0801720    1.4422760   -1.3238100  
C    -4.9319350    1.0341160   -0.7020050  
C    -4.2518470    2.3043630   -0.3356360  
C    -5.1580270    3.3619970   -0.8492810  
N    -6.2205240    2.8449270   -1.4122210  
C    -4.8532570    4.7568660   -0.6874530  
C    -3.7195970    5.0924130   -0.0207970  
O    -3.3210590    6.3604600    0.1984620  
C    -2.8085660    4.0525080    0.5416770  
O    -1.7977200    4.4190890    1.1462070  
C    -3.1414360    2.6216440    0.3569230  
H    -5.5285600    5.5072330   -1.0838100  
H    -2.4839710    6.2854340    0.7050050  
H    -2.4613230    1.9062120    0.8099600  
H    -6.8500200    0.8131950   -1.7533900  
