60


C    -1.5344280   -2.1318870    2.7125880  
C    -2.8111450   -1.7092190    2.4521940  
C    -2.7132590   -0.6487730    1.4899740  
C    -1.3307620   -0.4667210    1.2189600  
N    -0.6331560   -1.3594210    2.0055290  
C    -0.8325500    0.5020410    0.3178460  
C    -1.8132380    1.2121730   -0.3944500  
O    -1.4477080    2.1019600   -1.3546800  
C    -3.1925480    1.0285290   -0.1464650  
O    -4.0029770    1.8480210   -0.9232040  
C    -3.6831130    0.1249890    0.7958800  
H    -3.7154470   -2.1119530    2.8843650  
H     0.2934400   -1.6675880    1.7320550  
H    -2.2639660    2.5482590   -1.6448800  
H    -4.8270820    2.0260920   -0.4435500  
H    -1.1842280   -2.9246980    3.3587780  
C     2.7243580   -2.0541360   -0.3331260  
C     3.7171890   -1.1446870   -0.5534000  
C     3.0482810    0.1617030   -0.3798970  
C     1.6236130   -0.1806770   -0.0733530  
N     1.4663260   -1.4792760   -0.0334530  
C     0.6001140    0.8289110    0.1422940  
C     1.0564340    2.1235910    0.1626870  
O     0.2896640    3.1791280    0.4598400  
C     2.4707480    2.4952480   -0.1530310  
O     2.7747640    3.6882570   -0.1296930  
C     3.4573430    1.4390920   -0.4553850  
H     0.8782170    3.9616380    0.3698060  
H     4.4672460    1.7561310   -0.6937130  
H     2.8152980   -3.1337230   -0.3426700  
C     5.5482460   -2.3666290   -1.7896310  
C     5.0908420   -1.4099110   -0.9282180  
C     6.3260320   -0.7680950   -0.4230700  
C     7.4266360   -1.4894590   -1.1284270  
N     6.9591360   -2.4201750   -1.9155160  
C     8.8094850   -1.1645810   -0.9049480  
C     9.0972170   -0.1953820   -0.0021360  
O    10.3411950    0.2048410    0.3047260  
C     8.0148600    0.5212830    0.7535620  
O     8.3492460    1.3823100    1.5642900  
C     6.5980500    0.1738210    0.4991120  
H     9.5840160   -1.6993610   -1.4433800  
H    10.2338020    0.9041610    0.9858670  
H     5.8523730    0.7063610    1.0809280  
H     4.9467980   -3.0466840   -2.3812860  
C    -5.7400310   -0.1670420    2.2656500  
C    -5.1174840   -0.0268070    1.0583770  
C    -6.2212140   -0.1724500    0.0775340  
C    -7.4364060   -0.3785630    0.9194410  
N    -7.1440320   -0.3667670    2.1908900  
C    -8.7381080   -0.5692790    0.3363180  
C    -8.8322060   -0.5902860   -1.0151480  
O    -9.9800170   -0.7672110   -1.6909290  
C    -7.6241860   -0.4142510   -1.8896970  
O    -7.7869450   -0.4450330   -3.1084930  
C    -6.2979710   -0.2023150   -1.2676480  
H    -9.6023100   -0.7053480    0.9771150  
H    -9.7306290   -0.7379990   -2.6405720  
H    -5.4537020   -0.0657930   -1.9350100  
H    -5.2743100   -0.1295900    3.2428400  
