62


C    -2.9665920    0.1062190   -0.2401830  
C    -1.6458550    0.4270290    0.0498330  
C    -1.4423790    1.8018180   -0.2588750  
C    -2.6910840    2.3014210   -0.7316640  
N    -3.5989280    1.2636060   -0.6890630  
C    -2.8877530    3.6300800   -1.1083490  
C    -1.8043400    4.4842490   -0.9649140  
O    -1.9218490    5.7950290   -1.2878170  
C    -0.5481480    4.0253970   -0.4706100  
O     0.4023370    5.0128720   -0.4051360  
C    -0.3231210    2.6866290   -0.1441080  
H    -0.9314220   -0.2556990    0.4851850  
H    -4.4933820    1.2738810   -1.1549000  
H    -3.8383430    4.0122030   -1.4653210  
H    -1.0621690    6.2002250   -1.0578540  
H     0.8869150    4.8849530    0.4465290  
C     2.1398950   -0.7516600   -1.4837420  
C     1.2081080    0.2291610   -1.3684980  
C     1.5813690    1.0542240   -0.2462610  
C     2.8332620    0.4619890    0.2906820  
N     3.1322030   -0.6350980   -0.5064610  
C     3.5054160    0.9260910    1.3784460  
C     2.9909190    2.1217700    2.0220470  
O     3.4750660    2.6143680    3.0289350  
C     1.7611410    2.8474910    1.3631960  
O     1.5152520    3.9829070    1.7714820  
C     0.9954800    2.1769710    0.3016100  
H     0.3488590    0.3708990   -2.0043580  
H     4.3669800    0.4289000    1.8090670  
H     2.2075830   -1.5580840   -2.1998970  
C     7.4623010    0.1301830   -0.4952600  
C     7.8551100   -1.1694360   -0.3174730  
C     6.6627790   -1.9658300   -0.2386210  
C     5.5662000   -1.0744830   -0.3789000  
N     6.0801760    0.1924580   -0.5456970  
C     4.2315610   -1.5221310   -0.3512850  
C     4.0116190   -2.8893780   -0.1881720  
O     2.7352490   -3.3691420   -0.1606510  
C     5.1040000   -3.7843840   -0.0665900  
O     4.7152970   -5.1020670    0.0732140  
C     6.4139290   -3.3437020   -0.0865610  
H     8.8747370   -1.5229100   -0.2535950  
H     5.5349380    1.0395350   -0.5867140  
H     2.7953480   -4.3303810   -0.0169320  
H     5.4896170   -5.6543390    0.2566330  
H     7.2342180   -4.0520340    0.0061940  
H     8.0516240    1.0305020   -0.5949110  
C    -3.1251740   -2.4148350   -0.1161100  
C    -3.6515290   -1.1499500   -0.1254790  
C    -5.1122950   -1.3692610    0.0444440  
C    -5.2507900   -2.8449410    0.1147900  
N    -4.0843680   -3.4363730    0.0304850  
C    -6.5308460   -3.4732010    0.2827860  
C    -7.6242320   -2.6779940    0.4053700  
O    -8.8796170   -3.1403310    0.5647590  
C    -7.5147230   -1.1901900    0.3772920  
O    -8.5445190   -0.5225860    0.4953520  
C    -6.1824230   -0.5668900    0.2033180  
H    -6.6016130   -4.5548180    0.3197010  
H    -9.4427700   -2.3388840    0.6305120  
H    -6.1504820    0.5182410    0.2287070  
H    -2.0827890   -2.6874950   -0.2269540  
