62


C     1.3081140   -0.2653520   -0.2195260  
C     0.3330910    0.6706010   -0.0182180  
C     1.0043360    1.8821290    0.4253370  
C     2.3906020    1.6126850    0.4712520  
N     2.5697630    0.2653920    0.0671900  
C     3.3212010    2.5697260    0.8830480  
C     2.8369820    3.8195360    1.2515800  
O     3.7114510    4.7843840    1.6499880  
C     1.4500180    4.1000340    1.2218610  
O     1.1218400    5.3747780    1.6277450  
C     0.5315950    3.1430390    0.8208910  
H     4.3804820    2.3604700    0.9130880  
H     3.1939570    5.5843330    1.8468020  
H     0.1770620    5.5335720    1.4828540  
H    -0.5313100    3.3684770    0.8163980  
H     1.2140180   -1.2746450   -0.5873290  
C    -1.7838020   -0.6595490    0.2446350  
C    -1.0983830    0.4379960   -0.1865990  
C    -2.0724110    1.2823600   -0.8706730  
C    -3.3727700    0.5704950   -0.7917430  
N    -3.1392050   -0.6047740   -0.0882290  
C    -4.5291750    1.0271320   -1.3429440  
C    -4.5083710    2.3060200   -2.0484830  
O    -5.5003400    2.7970460   -2.5658070  
C    -3.1430330    3.0766470   -2.1404600  
O    -3.1077430    4.1577640   -2.7069800  
C    -1.9580370    2.4635050   -1.5324030  
H    -5.4600370    0.4715970   -1.3154090  
H    -1.0123430    2.9850730   -1.6362520  
H    -1.4157860   -1.5101200    0.8002420  
C    -6.9488370   -0.3425560    2.0961030  
C    -7.2672650   -1.6720840    2.0234340  
C    -6.2109360   -2.3220970    1.2997620  
C    -5.2693160   -1.3152330    0.9583970  
N    -5.7342920   -0.1228240    1.4687180  
C    -4.0928230   -1.6049980    0.2403090  
C    -3.8704790   -2.9327960   -0.1244480  
O    -2.7424160   -3.2651610   -0.8167360  
C    -4.7990130   -3.9425040    0.2309130  
O    -4.4224370   -5.2021930   -0.1927910  
C    -5.9567250   -3.6567670    0.9297090  
H    -8.1485860   -2.1392830    2.4401370  
H    -5.3270780    0.7818990    1.2886190  
H    -2.7954870   -4.2199180   -1.0011250  
H    -5.1443350   -5.8290150   -0.0372680  
H    -6.6509360   -4.4514170    1.1937250  
H    -7.4838900    0.4799250    2.5489480  
C     3.7320170   -0.4509160   -0.0573780  
C     3.8723610   -1.7768390   -0.4264410  
C     5.2741990   -2.0193370   -0.4037440  
C     5.8768150   -0.7001880    0.0136790  
N     4.9593070    0.2066750    0.2127320  
C     7.2918710   -0.5241200    0.1573840  
C     8.0736720   -1.6016720   -0.0983410  
O     9.4031770   -1.6062880   -0.0114240  
C     7.4996170   -2.9518000   -0.5215300  
O     8.3315150   -3.8444470   -0.7204280  
C     6.0686970   -3.1005790   -0.6594920  
H     3.1018570   -2.4897030   -0.6772430  
H     7.7006500    0.4340980    0.4575430  
H     9.6616450   -2.5283670   -0.2578210  
H     5.6878710   -4.0704420   -0.9625360  
