62


C    -0.3894870    1.8705870    0.2422810  
C     0.9808780    1.7344670    0.1660230  
C     1.2734300    0.3780190   -0.1820310  
C     0.0221100   -0.2721410   -0.3307600  
N    -0.9698530    0.6495000   -0.0849370  
C    -0.1142240   -1.6233180   -0.6916760  
C     1.0646080   -2.3252990   -0.9340320  
O     1.0216010   -3.6285530   -1.3073330  
C     2.3294060   -1.6921750   -0.8091170  
O     3.3870480   -2.5397030   -1.0632040  
C     2.4735210   -0.3543700   -0.4175510  
H     1.6929050    2.5293670    0.3265850  
H    -1.9430930    0.4123080    0.0398910  
H     1.9538180   -3.8945870   -1.4289570  
H     3.9908590   -2.0943330   -1.6950840  
C    -0.8472940    3.9990420    1.4958250  
C    -1.1937080    3.0250850    0.6025470  
C    -2.5066340    3.3989210    0.0769320  
C    -2.8803810    4.6696120    0.7495000  
N    -1.8205640    4.9878110    1.5741560  
C    -4.0449080    5.3362210    0.5448070  
C    -5.0020520    4.7878750   -0.4107050  
O    -6.0776920    5.3124580   -0.6552880  
C    -4.6147870    3.4618470   -1.1607690  
O    -5.3901780    2.9946830   -1.9792480  
C    -3.3273300    2.8315910   -0.8453520  
H    -4.2981010    6.2629690    1.0506540  
H    -3.0751020    1.9234840   -1.3831880  
H     0.0437090    4.0631720    2.1056700  
H    -1.8070890    5.7628730    2.2183920  
C     4.2890040    1.9343430    2.9104240  
C     5.5256060    2.1989340    2.4351480  
C     5.5623700    1.5836850    1.1109210  
C     4.1969880    0.9892940    0.9421440  
N     3.4676220    1.1932740    1.9975120  
C     3.8121080    0.2494210   -0.2658240  
C     4.8078020    0.1143010   -1.1888930  
O     4.6500310   -0.5669630   -2.3600520  
C     6.1698120    0.6946010   -1.0494040  
O     6.9675430    0.5189790   -1.9745140  
C     6.5113300    1.4547540    0.1664090  
H     6.3349230    2.7267430    2.9203410  
H     5.5174040   -0.4740030   -2.8200790  
H     7.5171540    1.8572590    0.2386610  
H     3.8673710    2.2062080    3.8705780  
C    -2.3967810   -1.7263730   -1.6745930  
C    -3.5382690   -2.4610410   -1.5092840  
C    -3.2606250   -3.4590530   -0.5146010  
C    -1.9136190   -3.2815970   -0.1082720  
N    -1.3932900   -2.2107020   -0.8325970  
C    -1.3125720   -4.0715690    0.8784150  
C    -2.0833210   -5.0690690    1.4545030  
O    -1.5445570   -5.8745730    2.4181700  
C    -3.4311180   -5.2674860    1.0549050  
O    -4.0669800   -6.3002740    1.7210210  
C    -4.0237420   -4.4794180    0.0861590  
H    -4.4661010   -2.3179170   -2.0464890  
H    -0.2820040   -3.9412890    1.1857550  
H    -2.2345620   -6.5084210    2.6787060  
H    -4.9659770   -6.3993660    1.3748060  
H    -5.0609260   -4.6434970   -0.2002630  
H    -2.1758430   -0.9167150   -2.3558020  
