60


C     2.8978120   -1.3854180    0.4058730  
C     3.8162270   -0.3676280    0.1886810  
C     3.0295330    0.8191710   -0.1165530  
C     1.6658950    0.4424020   -0.0443270  
N     1.6263440   -0.8998540    0.2883740  
C     0.5910240    1.3064410   -0.3394940  
C     0.9352770    2.6034620   -0.7282080  
O    -0.0435250    3.5144430   -0.9784100  
C     2.2915790    2.9963440   -0.8175180  
O     2.4624020    4.3118300   -1.2063040  
C     3.3310330    2.1327660   -0.5261440  
H     0.7847750   -1.4516030    0.3554640  
H     0.3895360    4.3142180   -1.3248240  
H     3.4054670    4.4857940   -1.3426710  
H     4.3582290    2.4728080   -0.5873340  
H     3.0826510   -2.4244560    0.6230510  
C    -1.9056240   -0.4269340    2.9018490  
C    -0.9000470    0.1220710    2.1744920  
C    -1.4104490    0.3572250    0.8353810  
C    -2.8186420   -0.0960650    0.8503050  
N    -3.0631300   -0.5424350    2.1362380  
C    -3.6841780   -0.0566060   -0.2085960  
C    -3.1584150    0.5227830   -1.4569480  
O    -3.8586310    0.7449030   -2.4291750  
C    -1.6402270    0.9216360   -1.5264850  
O    -1.1784970    1.2241090   -2.6100590  
C    -0.8192520    0.8761050   -0.2864490  
H     0.0932020    0.3580000    2.5252650  
H    -1.9128430   -0.7425260    3.9368130  
H    -3.9021140   -1.0293710    2.4120180  
C    -7.1097120    1.2564620    2.2355270  
C    -8.0630990    0.4136120    1.7640190  
C    -7.4389420   -0.4320980    0.7664170  
C    -6.0205790   -0.0081700    0.7009370  
N    -5.8720580    0.9911060    1.6511950  
C    -5.0819420   -0.5167150   -0.1504850  
C    -5.5246440   -1.6149380   -1.0407240  
O    -4.7547490   -2.2245190   -1.7605370  
C    -7.0331410   -2.0586300   -1.0028940  
O    -7.4058090   -2.9293140   -1.7732510  
C    -7.9239910   -1.4156820   -0.0380820  
H    -9.0983520    0.3788130    2.0709110  
H    -8.9615420   -1.7345980   -0.0164490  
H    -7.1936980    2.0417250    2.9754360  
H    -5.0840340    1.6221680    1.6671830  
C     6.2290390   -3.9500620   -0.5848580  
C     7.4888910   -3.4983880   -0.4027330  
C     7.3383230   -2.0932730   -0.0375550  
C     5.8588880   -1.8585240   -0.0555360  
N     5.2256010   -2.9484230   -0.3784700  
C     5.2632240   -0.5491020    0.2502820  
C     6.1662740    0.4223670    0.5977200  
O     5.8156830    1.6745940    0.9800380  
C     7.6352450    0.2108110    0.6229330  
O     8.3537140    1.1583350    0.9615400  
C     8.1978260   -1.1090110    0.2747020  
H     8.4191720   -4.0401620   -0.5027840  
H     6.6730810    2.1138430    1.1811130  
H     9.2782100   -1.2143850    0.3037450  
H     5.9070160   -4.9465790   -0.8622090  
