60


C    -1.2248370   -2.1776770    2.4721240  
C    -0.3442990   -1.2717710    1.9345860  
C    -1.1203230   -0.2953350    1.2139790  
C    -2.4807280   -0.6615080    1.3770970  
N    -2.5092330   -1.8102980    2.1401790  
C    -3.5691460    0.0642200    0.8380790  
C    -3.2075710    1.2156570    0.1309770  
O    -4.1644010    2.0214590   -0.4039120  
C    -1.8548820    1.6108920   -0.0448090  
O    -1.7210060    2.7616780   -0.7812370  
C    -0.7822370    0.8633990    0.4505120  
H     0.7256030   -1.2731490    2.0855480  
H    -3.3478880   -2.3284840    2.3534700  
H    -3.6772640    2.7815850   -0.7822000  
H    -1.0134670    3.3013600   -0.3496910  
H    -1.0412770   -3.0476290    3.0865700  
C     2.5168580   -1.6329860   -0.9904420  
C     3.5556100   -0.7502160   -0.9539180  
C     2.9918790    0.5203650   -0.4999670  
C     1.5468190    0.2823860   -0.2714410  
N     1.3228360   -1.0297760   -0.6182610  
C     0.6310020    1.2115330    0.1742900  
C     1.1540590    2.5719390    0.3037930  
O     0.4482310    3.5614910    0.5066850  
C     2.6964980    2.8384650    0.1437370  
O     3.1145710    3.9594290    0.3772050  
C     3.5512670    1.7420940   -0.3045200  
H     4.6076530    1.9431120   -0.4455340  
H     2.5298950   -2.6794370   -1.2657610  
H     0.4670220   -1.5207160   -0.3978700  
C     5.3497060   -1.5476860   -2.5392690  
C     4.9383580   -1.0132880   -1.3526770  
C     6.1465990   -0.8063780   -0.5552900  
C     7.2831720   -1.2660120   -1.3912510  
N     6.7264360   -1.7177240   -2.5734730  
C     8.5843110   -1.2298220   -1.0089290  
C     8.9023830   -0.7218490    0.3233800  
O    10.0423920   -0.6501190    0.7544340  
C     7.7114350   -0.2590240    1.2398440  
O     7.9518330    0.1448630    2.3655620  
C     6.3469030   -0.3351290    0.7025800  
H     9.4018850   -1.5675240   -1.6384540  
H     5.5357220   -0.0069230    1.3444600  
H     4.7486960   -1.8239340   -3.3958880  
H     7.2524820   -2.0350220   -3.3727130  
C    -5.5011060   -0.8623900    2.2054840  
C    -4.9558660   -0.3456750    1.0640030  
C    -6.0796030   -0.3739300    0.0973830  
C    -7.2152060   -0.9510080    0.8706210  
N    -6.8689550   -1.2265020    2.0984750  
C    -8.5111660   -1.1556310    0.2780050  
C    -8.6710220   -0.8248180   -1.0256080  
O    -9.8192950   -0.9684320   -1.7086430  
C    -7.5401140   -0.2586580   -1.8359130  
O    -7.7588660    0.0116810   -3.0159810  
C    -6.2213110   -0.0459860   -1.1999120  
H    -9.3181020   -1.5699600    0.8722380  
H    -9.6236820   -0.6453030   -2.6155520  
H    -5.4408880    0.3957740   -1.8079260  
H    -5.0163150   -0.9750970    3.1688060  
