62


C    -1.5329400   -0.7490520    0.5171270  
C    -2.8416390   -0.3422960    0.6794220  
C    -2.8399100    1.0971590    0.5084750  
C    -1.5049480    1.4878740    0.2458120  
N    -0.7148020    0.3385090    0.2570770  
C    -1.1323740    2.8171820    0.0226180  
C    -2.1283790    3.7787740    0.0853010  
O    -1.8204650    5.0904250   -0.1228650  
C    -3.4693830    3.4124620    0.3754620  
O    -4.3412830    4.4816270    0.4221760  
C    -3.8317960    2.0952880    0.5896960  
H    -0.1084580    3.1125410   -0.1720890  
H    -2.6406090    5.6015470   -0.0110950  
H    -5.2253600    4.1718080    0.6687000  
H    -4.8624780    1.8435430    0.8265790  
H    -1.1122660   -1.7433320    0.5726690  
C     1.2314360   -1.7692580   -3.0162340  
C     2.5257070   -1.4568760   -2.6891710  
C     2.4724370   -0.6299160   -1.5164530  
C     1.1038140   -0.4827090   -1.1765260  
N     0.3716070   -1.1839880   -2.1063390  
C     0.6646420    0.2513010   -0.0596630  
C     1.6415630    0.8576230    0.7284950  
O     1.2867150    1.5674210    1.8277980  
C     3.0163780    0.7625960    0.3824070  
O     3.8504670    1.4892260    1.2030040  
C     3.4388060    0.0266620   -0.7222920  
H     3.4106010   -1.7882190   -3.2133640  
H    -0.6351370   -1.2503210   -2.1123720  
H     2.1147210    1.8935620    2.2275920  
H     4.6957280    1.0206370    1.3355700  
H     0.8447900   -2.3710700   -3.8261630  
C     5.3593260    0.4220510   -2.2794440  
C     6.7106710    0.3358550   -2.2844470  
C     7.1126240   -0.1993970   -0.9997630  
C     5.8568150   -0.4295580   -0.2407270  
N     4.8177620   -0.0323870   -1.0638640  
C     5.8068590   -0.9431360    1.0222290  
C     7.0641560   -1.2931990    1.6815310  
O     7.1157500   -1.7816600    2.7990970  
C     8.4041660   -1.0312320    0.9034560  
O     9.4661030   -1.2862620    1.4470340  
C     8.3233350   -0.4911990   -0.4593650  
H     7.3694540    0.6205340   -3.0919440  
H     4.8777970   -1.1897960    1.5283630  
H     9.2558990   -0.3401760   -0.9948310  
H     4.6832010    0.7842940   -3.0417220  
C    -3.9704910   -2.3013410    1.8331860  
C    -3.9517320   -1.2267990    0.9949970  
C    -5.3091070   -1.2198780    0.3987080  
C    -5.9970640   -2.3799270    1.0329430  
N    -5.2075210   -3.0060670    1.8604280  
C    -7.3589250   -2.7176940    0.7095130  
C    -7.9977770   -1.9670760   -0.2204220  
O    -9.2667940   -2.1739810   -0.6186590  
C    -7.3201240   -0.8165240   -0.9012730  
O    -7.9618520   -0.1775610   -1.7356870  
C    -5.9221760   -0.4838830   -0.5471600  
H    -7.8377300   -3.5595400    1.1976200  
H    -9.4423930   -1.4822330   -1.2930490  
H    -5.4650430    0.3512010   -1.0687890  
H    -3.1649930   -2.6445950    2.4713860  
