58


C    -2.6025030   -1.5552380    0.6823560  
C    -1.4346730   -0.8817710    0.5563430  
C    -1.7318310    0.4050310   -0.0338340  
C    -3.1996150    0.4281090   -0.2459030  
N    -3.6887050   -0.7847070    0.2325140  
C    -3.8794240    1.4623650   -0.8129530  
C    -3.1313200    2.6500550   -1.2082530  
O    -3.6598990    3.6357790   -1.6981500  
C    -1.5780280    2.6522550   -0.9974580  
O    -0.9329440    3.5988700   -1.4085030  
C    -0.9382510    1.4676580   -0.3668870  
H    -0.4589520   -1.2409290    0.8458700  
H    -4.9440200    1.4421120   -1.0161680  
H    -2.7900140   -2.5458550    1.0677230  
C    -7.3190730    1.1608140    1.7179830  
C    -8.2150700    0.1996170    1.3836010  
C    -7.4772660   -0.8892910    0.7767010  
C    -6.0549300   -0.4652830    0.7805210  
N    -6.0204460    0.7687210    1.3866850  
C    -5.0328510   -1.2137020    0.2607560  
C    -5.3584860   -2.5462120   -0.2698700  
O    -4.5073290   -3.3096200   -0.6975480  
C    -6.8630490   -3.0074160   -0.2589320  
O    -7.1269160   -4.1131610   -0.7010240  
C    -7.8657190   -2.0980090    0.2891480  
H    -9.2820530    0.2291410    1.5483060  
H    -8.9003910   -2.4253530    0.2879080  
H    -7.4805740    2.1204900    2.1902780  
H    -5.2126370    1.3745010    1.4029630  
C     2.4432070   -0.9954650   -1.9060680  
C     1.2172780   -0.4854570   -1.6333040  
C     1.4020090    0.6295340   -0.7293860  
C     2.8635590    0.7396090   -0.5081300  
N     3.4547770   -0.2999190   -1.2305950  
C     3.4641210    1.7187250    0.2144690  
C     2.6175610    2.7114240    0.8683720  
O     3.0636590    3.6397890    1.5230170  
C     1.0626870    2.5627680    0.7321800  
O     0.3434500    3.2847360    1.3983890  
C     0.5194460    1.5066630   -0.1611210  
H     0.2758730   -0.8509320   -2.0146750  
H     4.5393360    1.8178380    0.3115860  
H     2.7198980   -1.8352650   -2.5291550  
C     5.5232650   -0.7536430   -2.5214880  
C     4.8268480   -0.5545360   -1.3710370  
C     5.7875440   -0.8195450   -0.2847450  
C     7.0487520   -1.1460850   -1.0145070  
N     6.8811420   -1.1100600   -2.3085590  
C     8.2629840   -1.4577820   -0.3096310  
C     8.2204100   -1.4936550    1.0446120  
O     9.2737770   -1.7831200    1.8225810  
C     6.9528730   -1.2105710    1.8034490  
O     6.9881060   -1.2706690    3.0294210  
C     5.7209740   -0.8620150    1.0580690  
H     9.1699280   -1.6715830   -0.8640770  
H     8.9459320   -1.7328470    2.7469270  
H     4.8338590   -0.6407550    1.6429490  
H     5.1526220   -0.6733320   -3.5365470  
