62


C    -0.3590360    0.1507840    1.1472620  
C    -0.2207500    1.4149750    0.5968770  
C    -1.4950460    1.7101430   -0.0363530  
C    -2.3354440    0.5895940    0.1698660  
N    -1.6146550   -0.3409200    0.8901970  
C    -3.6432600    0.4843120   -0.3597920  
C    -4.0998940    1.5843840   -1.0909340  
O    -5.3734340    1.6015700   -1.5614300  
C    -3.2712520    2.7155680   -1.2991780  
O    -3.8782400    3.7141430   -2.0336960  
C    -1.9877340    2.7881590   -0.7979090  
H    -1.9914900   -1.2004870    1.2608450  
H    -5.4927870    2.4413500   -2.0396900  
H    -3.3290520    4.5122730   -2.0123480  
H    -1.3886100    3.6782560   -0.9519940  
H     0.3313800   -0.4169640    1.7534550  
C     4.0120390    0.2552590    0.2258650  
C     4.5682370    1.4999840    0.3359510  
C     3.5204100    2.4598760    0.5628110  
C     2.2605720    1.6958530    0.5690780  
N     2.6090640    0.3397350    0.4562510  
C     1.0015440    2.2241800    0.6363780  
C     0.9493500    3.6998650    0.8034100  
O    -0.0986580    4.3132010    0.9210450  
C     2.2898840    4.5273270    0.8571850  
O     2.2030200    5.7421730    0.9751540  
C     3.5459150    3.8136590    0.7327130  
H     5.6265530    1.7164110    0.3178490  
H     4.4666810    4.3881380    0.7395630  
H     1.9822700   -0.2590990   -0.0778830  
C     7.5549250   -1.0535120   -2.2021220  
C     6.5623940   -0.3070600   -1.6176120  
C     5.7873940   -1.1978210   -0.8042890  
C     6.3603040   -2.4887150   -0.9465040  
N     7.4388330   -2.3672670   -1.7977110  
C     5.8473890   -3.6265730   -0.3144620  
C     4.7248600   -3.4655730    0.4826360  
O     4.1978010   -4.5402090    1.1347480  
C     4.1221490   -2.1932990    0.6402380  
O     3.0382120   -2.1990770    1.4907800  
C     4.6303640   -1.0447190    0.0129710  
H     6.3977670    0.7492830   -1.7688960  
H     8.0359910   -3.1242470   -2.0916550  
H     6.2931490   -4.6105600   -0.4184450  
H     3.4550240   -4.2147070    1.6725520  
H     2.7710560   -1.2766810    1.6672540  
H     8.3417650   -0.7540760   -2.8797850  
C    -5.0191890   -1.9406600    3.1524720  
C    -4.4341680   -0.9657890    2.4126610  
C    -4.7530230   -1.2984510    1.0260500  
C    -5.5695860   -2.5424130    1.1368420  
N    -5.7184120   -2.9143670    2.3789580  
C    -6.1190340   -3.1983380   -0.0217480  
C    -5.8626970   -2.6509900   -1.2309110  
O    -6.3028530   -3.1548700   -2.3958410  
C    -5.0019450   -1.4230320   -1.3861070  
O    -4.7231210   -1.0829240   -2.5301270  
C    -4.4768960   -0.7139510   -0.1707220  
H    -3.8854280   -0.1018700    2.7600760  
H    -6.7152510   -4.0966750    0.0934090  
H    -5.9158510   -2.5777670   -3.0904850  
H    -5.0214330   -2.0430500    4.2314980  
