60


C     0.6173090    1.7771010    0.2028190  
C     1.8623780    1.2116090    0.1218290  
C     1.6872970   -0.2138070    0.1251660  
C     0.2427490   -0.4484350    0.1773630  
N    -0.3752960    0.8035240    0.1787380  
C    -0.3854130   -1.6723980    0.2046780  
C     0.5369900   -2.8337550    0.2793460  
O     0.1522210   -3.9803690    0.4584850  
C     2.0874170   -2.6129760    0.1360940  
O     2.7952850   -3.6063550    0.1848650  
C     2.6027550   -1.2469290    0.0382700  
H     2.8004370    1.7368890    0.0320850  
H    -1.2767770    0.9337510    0.6230080  
C     1.1397560    4.0775190    0.8979350  
C     0.5622070    5.2976990    0.9232420  
C    -0.7524470    5.1780970    0.3249340  
C    -0.8999840    3.7578850   -0.0760770  
N     0.2837270    3.1158110    0.3195260  
C    -1.9787870    3.2673230   -0.7350900  
C    -3.1000160    4.1707620   -1.0100620  
O    -4.1161860    3.7980680   -1.5730440  
C    -2.9791240    5.6662770   -0.5546150  
O    -3.9074220    6.4288960   -0.7622440  
C    -1.7346760    6.0865320    0.1002520  
H     0.9967790    6.1995410    1.3297640  
H    -2.0552740    2.2494780   -1.0969550  
H    -1.6398880    7.1314050    0.3793520  
H     2.1026100    3.7571090    1.2699550  
C     5.7976300    1.0057670    2.2648490  
C     4.5860290    0.5058460    1.9145590  
C     4.8316590   -0.2804730    0.7101520  
C     6.3003500   -0.1381920    0.4866880  
N     6.8573040    0.6174240    1.3945180  
C     6.9747780   -0.8042720   -0.5971630  
C     6.2297810   -1.5752770   -1.4213840  
O     6.7221170   -2.2497260   -2.4730280  
C     4.7390310   -1.7084320   -1.2552650  
O     4.1322970   -2.3136810   -2.1319150  
C     4.0493310   -1.0482890   -0.0966250  
H     3.6410490    0.6275570    2.4241590  
H     8.0444510   -0.6834170   -0.7273800  
H     5.9444360   -2.6722410   -2.8995480  
H     6.0353970    1.6342770    3.1155310  
C    -1.8167820   -1.8600260    0.1804670  
C    -2.8517350   -0.9779700   -0.1559620  
C    -4.0764350   -1.6815200   -0.0331620  
C    -3.7536780   -3.0058990    0.3876000  
N    -2.3914000   -3.0791510    0.5112410  
C    -4.7317170   -3.9844670    0.6059760  
C    -6.0513940   -3.6219640    0.3928600  
O    -7.0435970   -4.5292410    0.5866370  
C    -6.3923550   -2.3001090   -0.0318180  
O    -7.7478710   -2.1123880   -0.1953260  
C    -5.4316850   -1.3368380   -0.2447170  
H    -2.7424780    0.0251670   -0.5403350  
H    -1.8219720   -3.8947220    0.7022950  
H    -4.4945910   -4.9937470    0.9245340  
H    -7.8871410   -4.0902820    0.3784870  
H    -7.9193980   -1.2115840   -0.5085520  
H    -5.7100590   -0.3364220   -0.5688260  
