58


C    -0.0407370    1.8260970    0.1000010  
C     1.1216690    1.0871880    0.0953220  
C     0.7692270   -0.2968410    0.1823420  
C    -0.7035090   -0.3477660    0.1904440  
N    -1.1318440    0.9456950    0.1461010  
C    -1.4794770   -1.4970300    0.2027840  
C    -0.7384630   -2.7547420    0.3605480  
O    -1.2731110   -3.8507030    0.4866880  
C     0.8315050   -2.7310720    0.4052390  
O     1.3915220   -3.7756690    0.6693770  
C     1.5486890   -1.4425890    0.2252370  
H     2.1088730    1.5085890    0.0249740  
H    -2.0879010    1.2465840    0.2691750  
C     2.8979760    5.1041290   -0.0316890  
C     2.0975240    6.1909200   -0.0720300  
C     0.7370050    5.6662700   -0.0442690  
C     0.9164600    4.1796780    0.0130410  
N     2.1750360    3.8648210    0.0231710  
C    -0.2282320    3.2614340    0.0528310  
C    -1.4601800    3.8658960    0.0419170  
O    -2.6272530    3.1956750    0.0766420  
C    -1.6550090    5.3508760   -0.0095390  
O    -2.8156180    5.7612460   -0.0109090  
C    -0.4825790    6.2362750   -0.0548360  
H     2.3815770    7.2329270   -0.1152450  
H    -3.3268980    3.8927780    0.0649280  
H    -0.6642990    7.3058670   -0.0923290  
H     3.9799710    5.0643940   -0.0360970  
C     2.9933490   -1.4358490    0.1760530  
C     3.8628030   -0.4957590    0.6767710  
C     5.1865780   -0.9782860    0.3619190  
C     4.9439960   -2.2575640   -0.3768700  
N     3.6769860   -2.5257020   -0.4778680  
C     6.0352070   -3.0447420   -0.8933600  
C     7.2940840   -2.6003690   -0.6677740  
O     8.4021810   -3.2323010   -1.0803960  
C     7.5692360   -1.3225040    0.0879670  
O     8.7468910   -0.9972690    0.2405250  
C     6.4418690   -0.5278430    0.5940210  
H     3.6249780    0.3840210    1.2568740  
H     5.8341140   -3.9649200   -1.4302460  
H     9.1503520   -2.6751240   -0.7694610  
H     6.6777900    0.3901460    1.1236100  
C    -2.9230440   -1.4940770    0.0705120  
C    -3.7824930   -0.5075950   -0.3862900  
C    -5.1186960   -1.0278460   -0.3433590  
C    -5.0039100   -2.4135180    0.1751530  
N    -3.6650330   -2.6223500    0.4171940  
C    -6.0567480   -3.2524030    0.3503590  
C    -7.3937610   -2.7699300    0.0162620  
O    -8.3996750   -3.4519550    0.1434150  
C    -7.5391810   -1.3018690   -0.5304220  
O    -8.6526870   -0.8813000   -0.8109770  
C    -6.3292510   -0.4959960   -0.6795940  
H    -3.5126040    0.4506550   -0.8028950  
H    -5.9545720   -4.2648120    0.7282070  
H    -6.4406930    0.5139950   -1.0629500  
H    -3.2061450   -3.4995690    0.6342140  
