62


C     1.2495400    1.1525930   -1.2557050  
C     2.5946690    1.0182680   -1.0978200  
C     2.8176170    0.0501530   -0.0548430  
C     1.5426030   -0.3721490    0.3961350  
N     0.5758620    0.3313270   -0.3430580  
C     1.3777790   -1.3990250    1.3253600  
C     2.5279500   -2.0010420    1.8164550  
O     2.4263740   -3.0079710    2.7212440  
C     3.8172250   -1.5971510    1.3899610  
O     4.8420930   -2.2856230    1.9957720  
C     3.9959110   -0.5464090    0.4803840  
H     3.3446490    1.5665270   -1.6481720  
H     0.4112070   -1.7396450    1.6715870  
H     3.3407160   -3.2980450    2.9030230  
H     5.4852800   -2.5236170    1.2947010  
H     0.6817440    1.8052300   -1.9012380  
C    -2.5796880    0.0789690   -3.4071940  
C    -1.3531730    0.0947490   -2.8320340  
C    -1.6092470    0.1523980   -1.3965530  
C    -3.0904180    0.1448070   -1.2872300  
N    -3.6463710    0.1117490   -2.4655510  
C    -3.7947220    0.1866700    0.0001460  
C    -2.9769960    0.2825220    1.0881310  
O    -3.4502960    0.3620650    2.3696810  
C    -1.5012310    0.3054640    1.0322300  
O    -0.8851830    0.4254520    2.0940230  
C    -0.8138260    0.2097620   -0.2961380  
H    -0.3878460    0.0578750   -3.3156470  
H    -2.6436870    0.4275420    2.9306160  
H    -2.8231890    0.0353050   -4.4616700  
C    -6.9911490   -2.4706600   -1.7714020  
C    -5.7900540   -1.9150440   -1.4179100  
C    -6.0708340   -0.7631410   -0.6097430  
C    -7.4851620   -0.6815030   -0.4985230  
N    -8.0185230   -1.7249170   -1.2249230  
C    -8.1433920    0.2962130    0.2540790  
C    -7.3510960    1.2014020    0.9408520  
O    -7.9237110    2.1723170    1.7051760  
C    -5.9356580    1.1367370    0.8742900  
O    -5.3003820    2.1286180    1.5934520  
C    -5.2667560    0.1886930    0.0840580  
H    -4.8188220   -2.2737770   -1.7212490  
H    -9.0011060   -1.9323790   -1.3064790  
H    -9.2245750    0.3553010    0.3290780  
H    -7.1787140    2.6678100    2.0956490  
H    -4.6040440    1.7058900    2.1403500  
H    -7.2048300   -3.3387600   -2.3788010  
C     5.8561070    3.5046110    0.1730020  
C     4.9966650    2.5056380    0.4776080  
C     5.6650570    1.2772650    0.0472070  
C     6.9619750    1.7560800   -0.5091150  
N     7.0682980    3.0521490   -0.4468080  
C     7.9439750    0.8471760   -1.0449480  
C     7.6682970   -0.4743600   -0.9855870  
O     8.5073840   -1.4359670   -1.4135410  
C     6.3983180   -0.9839660   -0.3740870  
O     6.3009820   -2.2143000   -0.2684750  
C     5.3265600   -0.0432410    0.0773410  
H     4.0311990    2.5756570    0.9558680  
H     8.8729920    1.2268870   -1.4550140  
H     8.0697720   -2.2882760   -1.2073510  
H     5.7352290    4.5667150    0.3480270  
