58


C    -0.2936490    0.1900320   -0.0831120  
C    -1.6752820    0.0692680   -0.0685990  
C    -2.2312790    1.3742350   -0.1500490  
C    -1.0763340    2.3057870   -0.2145050  
N     0.0543630    1.5281570   -0.1733820  
C    -1.1585450    3.6600490   -0.2969960  
C    -2.4755370    4.2658810   -0.3268240  
O    -2.6601370    5.4711290   -0.3983580  
C    -3.7345390    3.3260520   -0.2650810  
O    -4.8237580    3.8718340   -0.2948600  
C    -3.5532550    1.8461380   -0.1746210  
H    -2.2465600   -0.8415210   -0.0086880  
H    -0.2877720    4.3065160   -0.3414750  
H     1.0170530    1.8349940   -0.1840490  
C     0.7382350   -0.8001350   -0.0209730  
C     0.6446070   -2.1637480    0.0888720  
C     2.0053880   -2.6370610    0.1081150  
C     2.8392110   -1.3927950    0.0136190  
N     2.0943790   -0.3312010   -0.0764780  
C     4.2888940   -1.4391400   -0.0018660  
C     4.8505540   -2.6794770    0.0343850  
O     6.1685520   -2.8968820    0.0254470  
C     4.0344120   -3.9484880    0.1195530  
O     4.6571070   -5.0101730    0.1588620  
C     2.5732640   -3.8661010    0.1572750  
H    -0.2511540   -2.7661800    0.1435400  
H     6.2693140   -3.8756600    0.0668220  
H     2.0181020   -4.7970020    0.2138170  
C     4.6243450    1.9182290    2.8114460  
C     5.4928140    2.7424630    2.1828500  
C     5.8384800    2.0537120    0.9428150  
C     5.0351020    0.7884070    0.9935400  
N     4.3396340    0.7114910    2.0884810  
C     5.0957090   -0.2024900   -0.0687280  
C     5.9486610    0.0609150   -1.0960350  
O     6.1210210   -0.7504480   -2.1482450  
C     6.7721780    1.3208500   -1.1634730  
O     7.5010300    1.4671930   -2.1426240  
C     6.6733360    2.3156810   -0.0807660  
H     5.8728690    3.6982770    2.5155880  
H     6.7841450   -0.3000990   -2.7179930  
H     7.2894430    3.2057300   -0.1651990  
H     4.1406570    2.0649750    3.7698610  
C    -4.7001000    0.9920690   -0.1178370  
C    -6.0437060    1.3310600   -0.1342280  
C    -6.7672680    0.0990960   -0.0565610  
C    -5.7057140   -0.9572110    0.0049370  
N    -4.5140860   -0.4409220   -0.0305070  
C    -6.0381220   -2.3547170    0.0914320  
C    -7.3522110   -2.6823770    0.1150050  
O    -7.8156470   -3.9342550    0.1927660  
C    -8.4501010   -1.6374500    0.0541230  
O    -9.6099410   -2.0566370    0.0828600  
C    -8.0880100   -0.2278780   -0.0329460  
H    -6.4540510    2.3249380   -0.1939520  
H    -5.2561430   -3.1046320    0.1350790  
H    -8.7970870   -3.8402210    0.1896280  
H    -8.8938850    0.4979890   -0.0751600  
