60


C     3.0477150    0.7165640   -0.2035450  
C     3.9476420    0.0829700   -1.0603880  
C     3.4969760   -1.2458170   -1.2501410  
C     2.3056880   -1.4050840   -0.4805690  
N     2.0587490   -0.2068520    0.1369930  
C     1.5882770   -2.6206960   -0.4123770  
C     2.1016500   -3.6706780   -1.1812680  
O     1.4347950   -4.8468620   -1.2363590  
C     3.2908770   -3.5238650   -1.9555000  
O     3.6342810   -4.6683060   -2.6442350  
C     3.9901930   -2.3400750   -1.9966420  
H     4.8225810    0.5526770   -1.4805750  
H     1.2991170   -0.0013670    0.7692250  
H     1.9821480   -5.4745360   -1.7410010  
H     4.4957410   -4.5476980   -3.0705710  
H     4.8955120   -2.2466390   -2.5919950  
C    -2.2395390   -0.3831630    0.0562690  
C    -1.0134850   -0.8231080   -0.3503070  
C    -0.7005920   -2.0013280    0.4218220  
C    -1.8709130   -2.2393690    1.2973980  
N    -2.8058060   -1.2513820    0.9925850  
C    -1.9815490   -3.2442390    2.1977570  
C    -0.8651280   -4.1755450    2.3168380  
O    -0.8814410   -5.1428510    3.0609070  
C     0.4177900   -3.9129730    1.4486930  
O     1.4078940   -4.5840330    1.6758350  
C     0.3981170   -2.8223730    0.4378290  
H    -0.4126070   -0.3896180   -1.1343860  
H    -2.8624900   -3.4078930    2.8105470  
H    -3.5226510   -0.9601880    1.6427900  
C    -2.2430780    1.9831730   -0.6129570  
C    -3.1224060    2.9471090   -0.9650500  
C    -4.4529780    2.3751570   -0.9149280  
C    -4.2836780    0.9614170   -0.4998950  
N    -2.9055000    0.7742970   -0.3137460  
C    -5.3025210    0.0750740   -0.3828610  
C    -6.6671510    0.5475900   -0.6389960  
O    -7.6405590   -0.1815450   -0.5482220  
C    -6.8707160    2.0498760   -1.0444570  
O    -8.0003380    2.4632880   -1.2458060  
C    -5.6794800    2.8961860   -1.1724270  
H    -2.8790840    3.9697410   -1.2149750  
H    -5.1692400   -0.9705010   -0.1298500  
H    -5.8239670    3.9266240   -1.4823270  
H    -1.1698230    2.0263630   -0.4826940  
C     6.0150440    3.9460180   -0.5892220  
C     5.4204290    4.9458180    0.0981930  
C     4.1508200    4.3913970    0.5565370  
C     4.1489690    2.9913360    0.0348460  
N     5.2383250    2.7431030   -0.6289540  
C     3.0259570    2.0721260    0.2863320  
C     1.9907070    2.6116560    1.0135750  
O     0.8468310    1.9216550    1.3153590  
C     1.9729600    3.9842290    1.5345490  
O     0.9778950    4.3532570    2.1784760  
C     3.1223490    4.8737930    1.2773690  
H     5.7879640    5.9458300    0.2820970  
H     0.3400410    2.5549950    1.8771640  
H     3.0733860    5.8798780    1.6834640  
H     6.9744450    3.9522750   -1.0915760  
