62


C     2.8769970    1.5357890   -0.5561750  
C     1.5979140    1.0876070   -0.4070730  
C     1.6634090   -0.2928570   -0.0091770  
C     3.0392700   -0.6295780    0.0725920  
N     3.7769000    0.5036280   -0.2900150  
C     3.4865690   -1.8643060    0.5410380  
C     2.5205150   -2.7802390    0.9385490  
O     2.8992930   -3.9975200    1.4114520  
C     1.1405030   -2.4764840    0.8747690  
O     0.3254780   -3.5049850    1.2882380  
C     0.6776490   -1.2522170    0.3672640  
H     0.7080840    1.6788930   -0.5633630  
H     4.5335060   -2.1252320    0.6179080  
H     2.0715830   -4.4521250    1.6599960  
H    -0.3644370   -3.1077600    1.8646880  
H     3.2472550    2.5112680   -0.8267590  
C    -1.7967700    0.5094230   -2.8965880  
C    -0.7738270   -0.0696700   -2.2287840  
C    -1.3099160   -0.3976500   -0.9083530  
C    -2.7262420    0.0480910   -0.9753060  
N    -2.9965460    0.5959250   -2.1248930  
C    -3.6516890   -0.0890660    0.1551380  
C    -3.0938360   -0.6539670    1.2668320  
O    -3.8071490   -0.8784990    2.4150730  
C    -1.7160600   -1.1636140    1.3365120  
O    -1.4070290   -1.7805420    2.3761510  
C    -0.7571840   -0.9436750    0.2116050  
H     0.2316350   -0.2587360   -2.5736010  
H    -3.1840200   -1.3559900    3.0078480  
H    -1.8090360    0.8909140   -3.9100640  
C    -7.0100880   -0.6965190   -2.8109890  
C    -5.8058410   -0.7470050   -2.1598520  
C    -5.9154130    0.0744780   -0.9889240  
C    -7.2386140    0.5929110   -0.9812530  
N    -7.8767070    0.1180190   -2.1072850  
C    -7.7401770    1.4099230    0.0364960  
C    -6.8926090    1.6876770    1.0965650  
O    -7.3192450    2.4661440    2.1293160  
C    -5.5745680    1.1661940    1.1392500  
O    -4.8589330    1.5638780    2.2493690  
C    -5.0437510    0.3860940    0.0976150  
H    -4.9341640   -1.2878540   -2.4933740  
H    -8.8361780    0.3038800   -2.3522650  
H    -8.7502250    1.8073000    0.0310560  
H    -6.5675050    2.5058140    2.7509820  
H    -4.4423440    0.7674550    2.6434520  
H    -7.3245650   -1.1699290   -3.7303090  
C     6.3365400    3.6438850    1.2513770  
C     7.5632270    3.1828820    0.9212830  
C     7.3241510    1.9186890    0.2296540  
C     5.8348510    1.7776370    0.2403200  
N     5.2665630    2.7835430    0.8336640  
C     5.1742740    0.6219650   -0.3577380  
C     5.9772730   -0.3009350   -0.9653050  
O     5.5149330   -1.3911870   -1.6029260  
C     7.4655910   -0.1780410   -0.9725340  
O     8.1070990   -1.0590980   -1.5463540  
C     8.1129600    0.9880570   -0.3366360  
H     8.5257520    3.6328520    1.1207140  
H     6.3183770   -1.8574070   -1.9261350  
H     9.1970430    1.0340380   -0.3727080  
H     6.0815510    4.5564270    1.7760570  
