60


C    -0.3707270    0.2849410   -0.0336480  
C     0.0252610    1.5945130    0.2713510  
C    -1.1095470    2.4269490    0.1699160  
C    -2.2118140    1.5930110   -0.1913070  
N    -1.7348590    0.3165100   -0.3054450  
C    -3.5234500    2.0821570   -0.3976890  
C    -3.6698980    3.4669510   -0.2585660  
O    -4.8809860    4.0423370   -0.4589160  
C    -2.5760020    4.3120070    0.1091180  
O    -2.9358580    5.6371350    0.2157080  
C    -1.3135550    3.8180930    0.3318410  
H     1.0142280    1.8988050    0.5763050  
H    -2.2543620   -0.5195320   -0.5366340  
H    -4.7889200    4.9932850   -0.2671380  
H    -2.1754900    6.1660270    0.5002810  
H    -0.4939460    4.4772820    0.6069530  
C     4.0186130   -0.7605170   -0.0013540  
C     2.8471280   -0.0388080   -0.0772340  
C     1.7795840   -1.0039600   -0.0273900  
C     2.4819290   -2.2985760    0.0843880  
N     3.7809000   -2.1631350    0.1039460  
C     1.7784630   -3.5551290    0.1542250  
C     0.4309400   -3.5305430    0.0589570  
O    -0.3422250   -4.6338180    0.0672260  
C    -0.3209190   -2.2486120   -0.0945500  
O    -1.5458890   -2.3464300   -0.2402460  
C     0.3991150   -0.9290010   -0.0589970  
H     2.7650850    1.0224540   -0.2538710  
H     2.3334050   -4.4818750    0.2477420  
H    -1.2635150   -4.3160210   -0.0350440  
C     6.0064720    2.8995170    1.6053740  
C     5.0627650    1.9622620    1.3256270  
C     5.7504040    0.9508190    0.5406500  
C     7.1526520    1.4558650    0.4613850  
N     7.2934390    2.5984350    1.0792560  
C     8.1900740    0.7179620   -0.2069400  
C     7.8570770   -0.4685820   -0.7646790  
O     8.7208600   -1.2608210   -1.4190770  
C     6.4462010   -1.0026860   -0.7383280  
O     6.2407160   -2.0364200   -1.3635010  
C     5.3718390   -0.2372190   -0.0226990  
H     4.0304000    1.9444700    1.6420140  
H     9.1989950    1.1133480   -0.2477820  
H     8.1826250   -2.0177630   -1.7418770  
H     5.8842850    3.8114380    2.1786010  
C    -5.6497820    1.4368010   -1.6494270  
C    -4.6571690    1.2174490   -0.7414860  
C    -5.0183720   -0.0771970   -0.1264790  
C    -6.2613280   -0.4916100   -0.8490490  
N    -6.6193430    0.3983730   -1.7304260  
C    -6.9417690   -1.7224690   -0.5426790  
C    -6.4440250   -2.4922500    0.4542190  
O    -6.9782710   -3.6594290    0.8473540  
C    -5.2218420   -2.0826870    1.2288050  
O    -4.8335450   -2.8283150    2.1252620  
C    -4.5352320   -0.8167980    0.8908800  
H    -7.8321950   -1.9987520   -1.0963980  
H    -6.4103270   -3.9736740    1.5845920  
H    -3.6642930   -0.5615900    1.4854460  
H    -5.7638680    2.3009790   -2.2904000  
