58


C     0.0293970    2.0631270   -0.0705010  
C     1.1069630    1.1886010    0.0403940  
C     0.6242860   -0.1381670   -0.0889610  
C    -0.8274780   -0.0263470   -0.2761120  
N    -1.1171730    1.3197130   -0.2969460  
C    -1.7238330   -1.0733700   -0.3848740  
C    -1.1290000   -2.4134190   -0.2150360  
O    -1.7713370   -3.4473260   -0.2825150  
C     0.4114550   -2.5567610    0.0603770  
O     0.8047940   -3.6862550    0.3377410  
C     1.2781470   -1.3784180   -0.0237650  
H     2.1134230    1.4732720    0.2932530  
H    -2.0415090    1.7268840   -0.2197470  
C     3.0906420    5.3436030   -0.1795070  
C     2.5148290    4.1162850   -0.3067840  
C     1.1130630    4.3177030   -0.0088420  
C     1.0199690    5.7893830    0.2727670  
N     2.1815790    6.3750030    0.1847310  
C    -0.2244610    6.4289430    0.5904460  
C    -1.3431450    5.6669830    0.5958170  
O    -2.5702110    6.1474900    0.8444890  
C    -1.2999390    4.1962180    0.3024540  
O    -2.3872490    3.6117210    0.2776390  
C     0.0055100    3.5055290    0.0606750  
H     2.9989970    3.2025950   -0.6137810  
H    -0.2511450    7.4933200    0.7949360  
H    -3.1871340    5.3898330    0.7597130  
H     4.1317120    5.6021720   -0.3332760  
C    -3.6897680    0.1180410   -1.4343720  
C    -3.1308450   -0.8931150   -0.6839650  
C    -4.3088970   -1.6909290   -0.2521790  
C    -5.4693180   -0.9694360   -0.8475760  
N    -5.0856580    0.0731050   -1.5444030  
C    -6.8243620   -1.4001600   -0.6573520  
C    -7.0375520   -2.4971490    0.1107470  
O    -8.2456390   -3.0076840    0.3801680  
C    -5.8940230   -3.2409440    0.7419480  
O    -6.1610790   -4.2178990    1.4368650  
C    -4.5041640   -2.7830140    0.5112150  
H    -7.6361130   -0.8464400   -1.1155480  
H    -8.0818880   -3.7879600    0.9550280  
H    -3.7128360   -3.3753350    0.9521390  
H    -3.1600940    0.8944170   -1.9741210  
C     2.7090620   -1.5342400   -0.0104050  
C     3.7069660   -0.6429160   -0.3933760  
C     4.9687840   -1.2952970   -0.2474220  
C     4.6729080   -2.6612640    0.2508200  
N     3.3045470   -2.7331910    0.3773450  
C     5.6183770   -3.6002690    0.5081570  
C     7.0211870   -3.2567320    0.2882670  
O     7.9380930   -4.0370680    0.4940860  
C     7.3588070   -1.8151290   -0.2396040  
O     8.5276370   -1.5094120   -0.4289760  
C     6.2533860   -0.8907360   -0.4841870  
H     3.5558190    0.3397200   -0.8109860  
H     5.3845160   -4.5971150    0.8684130  
H     6.4975780    0.1019910   -0.8505110  
H     2.7438200   -3.5479250    0.5978450  
