58


C     5.1646650    0.8212940    0.0453410  
C     6.1812160    1.7361050    0.2066970  
C     7.4010930    0.9872830    0.1316420  
C     6.9531440   -0.4322410   -0.0873250  
N     5.6567000   -0.5222290   -0.1363980  
C     7.8966830   -1.5103600   -0.2178990  
C     9.2121430   -1.2003400   -0.1361060  
O    10.2046310   -2.0896790   -0.2377160  
C     9.6969460    0.2222200    0.0843220  
O    10.9174180    0.3836890    0.1418870  
C     8.7213470    1.2990530    0.2137800  
H     6.0919000    2.8025790    0.3596720  
H     7.5502370   -2.5256550   -0.3752510  
H    11.0309880   -1.5619450   -0.1379050  
H     9.1015610    2.3035230    0.3705430  
C     3.0494520    2.2066610    0.1870430  
C     3.7486900    1.0330790    0.0369010  
C     2.6936370    0.0182000   -0.1391750  
C     1.4159930    0.7830910   -0.0618760  
N     1.6592930    2.0598390    0.1291300  
C     0.1026750    0.1583420   -0.1837140  
C     0.1302610   -1.2088200   -0.3935740  
O    -0.9319650   -1.9890760   -0.5550740  
C     1.4217900   -1.9917810   -0.4737750  
O     1.3275680   -3.2036610   -0.6613910  
C     2.7178730   -1.3110490   -0.3333770  
H    -0.5624640   -2.8960580   -0.6807970  
H     3.6323200   -1.8892650   -0.3926670  
H     3.4585000    3.1985270    0.3407050  
C    -1.1160440    0.9437430   -0.0846570  
C    -1.2477260    2.3019440    0.0468000  
C    -2.6691080    2.5547470    0.0954440  
C    -3.2910170    1.1970860    0.0006510  
N    -2.3952800    0.2697710   -0.1193000  
C    -4.7328170    1.0097710    0.0134170  
C    -5.4875150    2.1399660    0.0652400  
O    -6.8271870    2.1436690    0.0786400  
C    -4.8835640    3.5202860    0.1476340  
O    -5.6660050    4.4701670    0.2045320  
C    -3.4253700    3.6735270    0.1632410  
H    -0.4540450    3.0288730    0.0968720  
H    -7.0775180    3.0942810    0.1283850  
H    -3.0279580    4.6821920    0.2191740  
C    -4.4949650   -2.3249130    2.8551680  
C    -5.1869170   -3.3005910    2.2242570  
C    -5.6422510   -2.6936500    0.9768350  
C    -5.0878430   -1.3012140    1.0261790  
N    -4.4348550   -1.0891890    2.1291310  
C    -5.3210490   -0.3444230   -0.0431840  
C    -6.1098560   -0.7615270   -1.0699250  
O    -6.4232080    0.0009590   -2.1281030  
C    -6.6876060   -2.1497260   -1.1345990  
O    -7.3750130   -2.4327650   -2.1148350  
C    -6.4113380   -3.1066170   -0.0481570  
H    -5.3845320   -4.3093490    2.5591830  
H    -6.9893170   -0.5673100   -2.6964190  
H    -6.8548200   -4.0942810   -0.1310830  
H    -4.0014960   -2.3747640    3.8186600  
