64


C    -0.3779960    1.9208330    0.5868160  
C     0.9139260    1.4712410    0.4679430  
C     0.8402200    0.0909450    0.0838390  
C    -0.5324420   -0.2373330   -0.0410520  
N    -1.2561160    0.8997770    0.2641480  
C    -1.0140590   -1.5166880   -0.4039540  
C    -0.0180920   -2.4712140   -0.6531690  
O    -0.3660600   -3.7429520   -1.0117130  
C     1.3568570   -2.1611780   -0.5581320  
O     2.1792490   -3.2335580   -0.8481280  
C     1.8254700   -0.8930790   -0.1955960  
H     1.8028250    2.0715290    0.5886350  
H    -2.2518490    0.9218660    0.4315860  
H     0.4657750   -4.2385990   -1.1209480  
H     3.0920040   -3.0142150   -0.5827260  
C    -0.3993470    3.8750170    2.1017420  
C    -1.0629080    5.0642620    2.2038320  
C    -1.9906830    5.1317220    1.1081570  
C    -1.8389430    3.9387890    0.3580970  
N    -0.8588060    3.1691290    0.9889630  
C    -2.5659920    3.6850820   -0.8118210  
C    -3.4817440    4.6446530   -1.2172500  
O    -4.2156660    4.4443980   -2.3500170  
C    -3.6609290    5.8368310   -0.4680400  
O    -4.6103450    6.6909560   -0.9961430  
C    -2.9281650    6.0901300    0.6770240  
H    -0.9174330    5.8058570    2.9774430  
H    -2.4281850    2.7919650   -1.4106890  
H    -4.7916000    5.2201710   -2.4617820  
H    -4.6777260    7.4821250   -0.4416110  
H    -3.0724120    7.0168960    1.2291120  
H     0.3565990    3.4302080    2.7321860  
C    -3.4201580   -0.9743130   -1.0144100  
C    -2.4471600   -1.7938830   -0.5150570  
C    -3.2012650   -2.9782430   -0.0349850  
C    -4.6215220   -2.6628840   -0.3540250  
N    -4.7371220   -1.4973330   -0.9291830  
C    -5.6917600   -3.5722740   -0.0361980  
C    -5.3754080   -4.7282310    0.5944870  
O    -6.2701080   -5.6642250    0.9582430  
C    -3.9569540   -5.0626360    0.9516990  
O    -3.7458260   -6.1300390    1.5277310  
C    -2.8742120   -4.1178440    0.6019800  
H    -6.7133690   -3.3145590   -0.2929150  
H    -5.7410660   -6.3719480    1.3876610  
H    -1.8611190   -4.4095210    0.8507740  
H    -3.2841230   -0.0098740   -1.4901400  
C     3.2544930   -0.6203380   -0.0680590  
C     3.9477010    0.1406690    0.8444310  
C     5.3471170    0.0383650    0.5419610  
C     5.4664910   -0.8105430   -0.5843080  
N     4.1883860   -1.2631700   -0.9136720  
C     6.6942600   -1.1099300   -1.1790970  
C     7.8319300   -0.5478710   -0.6153760  
O     9.0554890   -0.8041900   -1.1589780  
C     7.7342910    0.2874710    0.5285970  
O     8.9518870    0.7578990    0.9788590  
C     6.5149140    0.5820760    1.1117680  
H     3.5055060    0.6658680    1.6795280  
H     3.9426790   -1.4733270   -1.8743310  
H     6.7896470   -1.7560010   -2.0457860  
H     9.7146860   -0.3262300   -0.6265610  
H     8.8143420    1.3366970    1.7432250  
H     6.4639000    1.2283600    1.9856640  
