60


C    -1.6279750   -1.6629820   -0.2515390  
C    -1.7452800   -2.7815340    0.5620480  
C    -0.4315710   -3.1875250    0.9291070  
C     0.4749230   -2.2892170    0.2965080  
N    -0.2731720   -1.3855700   -0.4351790  
C     1.8783170   -2.4297280    0.4000530  
C     2.3277350   -3.4438910    1.2599550  
O     3.6573130   -3.5890200    1.5050860  
C     1.4262850   -4.3331140    1.9030090  
O     2.0549360   -5.2815040    2.6889600  
C     0.0632090   -4.2366640    1.7293970  
H    -2.6648380   -3.2937940    0.8068700  
H     0.0577960   -0.4332130   -0.5775230  
H     3.7582290   -4.3704790    2.0767610  
H     1.3901270   -5.8586360    3.0925100  
H    -0.6118420   -4.9388880    2.2140830  
C     2.2542680    1.9234980   -0.2575350  
C     3.4459870    1.9931680   -0.9408030  
C     3.8668120    0.6276450   -1.1381090  
C     2.8148250   -0.1881450   -0.4453210  
N     1.8814700    0.5726410    0.0494980  
C     2.8612640   -1.6365330   -0.3744810  
C     3.8679160   -2.2160100   -1.0990710  
O     4.0218230   -3.5349710   -1.2420550  
C     4.9256010   -1.4238370   -1.8276370  
O     5.7896490   -2.0641910   -2.4308340  
C     4.8874000    0.0390980   -1.8015240  
H     3.9061190    2.8659250   -1.3847830  
H     4.8260390   -3.6383750   -1.8012550  
H     5.6689210    0.5730730   -2.3328450  
C     3.2198940    5.9668980    1.1295720  
C     1.9705640    6.4241890    1.3921140  
C     1.0458240    5.3583370    1.0624720  
C     1.8704350    4.2350390    0.5665070  
N     3.1711930    4.6728890    0.6083110  
C     1.3928740    2.9989870    0.1873870  
C    -0.0759620    2.8238340    0.2384670  
O    -0.6537530    1.8411220   -0.1925290  
C    -0.9562570    3.9883760    0.8208860  
O    -2.1530050    3.8018950    0.9623870  
C    -0.3057360    5.2522200    1.1702000  
H     1.7084220    7.3973640    1.7805810  
H    -0.9319100    6.0564660    1.5440600  
H     4.1758070    6.4575180    1.2547310  
H     3.9640750    4.0593490    0.4818140  
C    -2.5389280   -0.0794490   -2.0061620  
C    -2.6454820   -0.8999950   -0.9160260  
C    -4.0853280   -0.8404520   -0.5613760  
C    -4.6741280    0.0552740   -1.5888900  
N    -3.7610610    0.4939050   -2.4179110  
C    -6.0744230    0.3759690   -1.5958100  
C    -6.8528280   -0.1431160   -0.6134940  
O    -8.1792960    0.0721120   -0.5039890  
C    -6.2839450   -1.0185380    0.4548270  
O    -7.0488640   -1.4545470    1.3190430  
C    -4.8389490   -1.3331910    0.4391000  
H    -6.4770520    1.0247760   -2.3659960  
H    -8.4491530   -0.4224950    0.3005190  
H    -4.4622210   -1.9440020    1.2527790  
H    -1.6419990    0.1495270   -2.5668740  
