60


C    -0.2010100    1.9456270   -0.0236470  
C     1.0482480    1.3108920    0.0115220  
C     0.8356310   -0.0842830    0.0637270  
C    -0.5754010   -0.2740570    0.0800030  
N    -1.1639470    0.9541430    0.0229110  
C    -1.2138510   -1.5417270    0.1222310  
C    -0.3502390   -2.6431990    0.1555700  
O    -0.8289610   -3.8938920    0.2634700  
C     1.0754450   -2.4929880    0.1464890  
O     1.7123450   -3.6777660    0.2008960  
C     1.7096240   -1.2303040    0.0942850  
H     1.9858840    1.8348460    0.0628270  
H    -2.1551920    1.1529940    0.0177760  
H    -0.0528860   -4.4885490    0.2743900  
H     2.7087150   -3.4860810    0.2144940  
C     2.0372960    5.7350620   -0.9304810  
C     1.7333950    4.4127110   -0.8506010  
C     0.3573070    4.3598260   -0.3755210  
C    -0.0171320    5.7827060   -0.2331750  
N     0.9684590    6.5862420   -0.5429180  
C    -1.3309760    6.1959080    0.1916530  
C    -2.2504380    5.2349070    0.4313190  
O    -3.5253720    5.4864260    0.7940250  
C    -1.9215020    3.7863640    0.2857950  
O    -2.8490370    2.9886140    0.4682650  
C    -0.5223060    3.3500620   -0.0629160  
H     2.3583950    3.5812000   -1.1396420  
H    -1.5629270    7.2511180    0.2849410  
H    -3.9575930    4.6106700    0.8709860  
H     2.9667780    6.1845290   -1.2590650  
C    -2.6632700   -1.6741460    0.1368490  
C    -3.5805550   -0.8430270    0.7284270  
C    -4.8762290   -1.4067230    0.4221610  
C    -4.5612700   -2.6123850   -0.4096720  
N    -3.2812090   -2.7694000   -0.5690060  
C    -5.6039660   -3.4532290   -0.9414370  
C    -6.8843120   -3.1285990   -0.6460380  
O    -7.9545080   -3.8197600   -1.0627290  
C    -7.2310170   -1.9266790    0.2033790  
O    -8.4247170   -1.7140490    0.4156200  
C    -6.1529790   -1.0762440    0.7236220  
H    -3.3961190    0.0123750    1.3636190  
H    -5.3503580   -4.3159680   -1.5470870  
H    -8.7306410   -3.3436580   -0.6904170  
H    -6.4407990   -0.2169980    1.3215520  
C     3.1459490   -1.1376590    0.0639580  
C     4.0008560   -0.0611760   -0.0581750  
C     5.3299460   -0.5847400   -0.0284710  
C     5.1553090   -2.0672910    0.1210730  
N     3.8902620   -2.3720140    0.1703210  
C     6.2676730   -2.9674030    0.1920090  
C     7.5051850   -2.4178310    0.1148150  
O     8.6392880   -3.1130280    0.1641570  
C     7.7252190   -0.9173130   -0.0393940  
O     8.9009910   -0.5485800   -0.0977200  
C     6.5747520   -0.0345700   -0.1065170  
H     3.7505350    0.9791100   -0.1775210  
H     6.1138980   -4.0349930    0.3015180  
H     9.3548060   -2.4370700    0.0833660  
H     6.7600270    1.0289870   -0.2158020  
