60


C     0.4559970    1.7433830    0.1475330  
C     1.7472250    1.2921850    0.0551370  
C     1.7200230   -0.1312570   -0.1071910  
C     0.2920450   -0.5126460   -0.1284320  
N    -0.4222740    0.6558740   -0.0223150  
C    -0.2004780   -1.7985770   -0.1966530  
C     0.8101550   -2.8624950   -0.3960680  
O     0.5266560   -4.0071410   -0.6914100  
C     2.3289070   -2.4887950   -0.3028260  
O     3.1370820   -3.4012000   -0.2678370  
C     2.7215950   -1.0653210   -0.2378000  
H     2.6323590    1.9066410    0.0935460  
H    -1.3871040    0.6651710    0.2843280  
C     5.2811110    1.0426820    2.6972010  
C     6.5096710    0.9086140    2.1488130  
C     6.2894810    0.1881110    0.8992250  
C     4.8041310   -0.0339960    0.8599500  
N     4.2274410    0.4703020    1.9122500  
C     4.1609220   -0.7478030   -0.2337900  
C     4.9876450   -1.1852270   -1.2294500  
O     4.5509130   -1.8137030   -2.3257360  
C     6.4764710   -0.9671880   -1.2141440  
O     7.1237590   -1.3951040   -2.1678410  
C     7.0964050   -0.2568850   -0.0816410  
H     7.4607650    1.2433990    2.5388440  
H     5.3561080   -2.0327260   -2.8453740  
H     8.1746240   -0.1307860   -0.1014630  
H     5.0186630    1.5158460    3.6361950  
C    -1.6099940   -2.1098720   -0.1196990  
C    -2.6895010   -1.3503720   -0.5188260  
C    -3.8608430   -2.1118430   -0.1691050  
C    -3.3097630   -3.3418170    0.4893610  
N    -2.0106010   -3.3419620    0.5111910  
C    -4.1771790   -4.3636930    1.0185150  
C    -5.5116250   -4.1900410    0.8747700  
O    -6.4387960   -5.0576010    1.3055180  
C    -6.0956490   -2.9700660    0.1972650  
O    -7.3250240   -2.9082410    0.1204070  
C    -5.1977450   -1.9357340   -0.3151750  
H    -2.6751020   -0.4398690   -1.1020720  
H    -3.7540250   -5.2392030    1.4979640  
H    -7.3003590   -4.6534020    1.0541580  
H    -5.6554510   -1.0688280   -0.7820330  
C     0.6009780    4.0525130    1.1018250  
C    -0.0589110    3.0691070    0.3832460  
C    -1.3253380    3.6412560   -0.0306410  
C    -1.3629260    4.9629430    0.4764750  
N    -0.1746000    5.1778310    1.1563400  
C    -2.4367950    5.8328750    0.2602590  
C    -3.4992160    5.3600150   -0.4940240  
O    -4.5705630    6.1638690   -0.7347190  
C    -3.4728720    4.0445900   -1.0312960  
O    -4.5900040    3.7295290   -1.7744270  
C    -2.4071230    3.1896830   -0.8134980  
H     0.0651970    6.0221720    1.6535230  
H    -2.4624250    6.8460690    0.6475680  
H    -5.1927850    5.6641810   -1.2914340  
H    -4.4871570    2.8525340   -2.1727530  
H    -2.4007630    2.2019150   -1.2679750  
H     1.5547000    4.0033530    1.6071840  
