60


C    -1.9470930    3.9120540   -0.3348100  
C    -3.1398290    3.2533560   -0.4842980  
C    -2.8548450    1.8478260   -0.4416170  
C    -1.4556930    1.7159380   -0.2457780  
N    -0.9328100    2.9892290   -0.1786860  
C    -0.7808320    0.4754390   -0.1568630  
C    -1.6023440   -0.6538140   -0.2817400  
O    -1.0553820   -1.9036780   -0.2207620  
C    -2.9989790   -0.5425180   -0.4589040  
O    -3.6359790   -1.7713810   -0.5522550  
C    -3.6656150    0.6828820   -0.5310110  
H    -4.1087760    3.7167770   -0.5974210  
H     0.0534410    3.1974540   -0.1400840  
H    -1.7864760   -2.5347300   -0.3518770  
H    -4.4688050   -1.6654390   -1.0382430  
H    -1.7327670    4.9711310   -0.3162880  
C     1.4125350    1.1992530    0.8930030  
C     0.6624740    0.4055080    0.0727630  
C     1.6666090   -0.4686450   -0.5812030  
C     2.9678550   -0.0349270    0.0004510  
N     2.8054580    0.9331730    0.8581950  
C     4.2305450   -0.6379090   -0.3913400  
C     4.1663670   -1.6171090   -1.3382990  
O     5.2339550   -2.2963000   -1.7782920  
C     2.8712570   -2.0527870   -1.9566430  
O     2.9166590   -2.9440770   -2.8036910  
C     1.6084550   -1.4184610   -1.5315710  
H     4.8866150   -2.9179740   -2.4563760  
H     0.6916970   -1.7750230   -1.9847890  
H     1.0536840    1.9605200    1.5759850  
C     6.0065190   -0.3463090    3.7185960  
C     5.1251090   -0.5642190    2.7162520  
C     5.8251340   -0.1655700    1.4989450  
C     7.1687690    0.2811560    1.9876640  
N     7.2706370    0.1697930    3.2802470  
C     8.1908110    0.7449550    1.0852160  
C     7.8978080    0.7674970   -0.2341880  
O     8.7452180    1.1859340   -1.1894440  
C     6.5541870    0.3365900   -0.7606560  
O     6.3617150    0.4584380   -1.9669670  
C     5.5142190   -0.1826620    0.1793680  
H     4.1123100   -0.9318240    2.7826110  
H     9.1531600    1.0625050    1.4708730  
H     8.2449060    1.1080920   -2.0313380  
H     5.8632930   -0.5150210    4.7793210  
C    -5.8130290    1.6073790   -1.5409160  
C    -5.1166680    0.7658090   -0.7204490  
C    -6.1788100    0.0317150    0.0091230  
C    -7.4521050    0.5828190   -0.5430830  
N    -7.2246330    1.4944190   -1.4486540  
C    -8.7366710    0.1262980   -0.0837660  
C    -8.7655300   -0.8069100    0.8983540  
O    -9.8914190   -1.3144890    1.4248790  
C    -7.5022440   -1.3615600    1.4935830  
O    -7.6063810   -2.2056790    2.3812260  
C    -6.1915850   -0.8887820    0.9933350  
H    -9.6423100    0.5400510   -0.5132980  
H    -9.5969100   -1.9561630    2.1077480  
H    -5.3046990   -1.3229370    1.4428800  
H    -5.3967040    2.3203860   -2.2420650  
