60


C     0.2588740    0.0177170   -1.2242230  
C     1.4810370   -0.5234400   -0.9645320  
C     2.2078680    0.4042560   -0.1414190  
C     1.3563080    1.5164930    0.0726570  
N     0.1613900    1.2757030   -0.6193660  
C     1.6895950    2.5723840    0.9231480  
C     2.9177240    2.5048230    1.5657440  
O     3.2968630    3.5025860    2.4132790  
C     3.7922470    1.4107590    1.3704910  
O     4.9854400    1.5154270    2.0565510  
C     3.4745410    0.3553970    0.5004780  
H     1.8273270   -1.4791140   -1.3266470  
H     1.0407410    3.4194330    1.0989320  
H     4.1734860    3.2366340    2.7501420  
H     5.1435290    0.6675420    2.5225930  
H    -0.5774570   -0.3803030   -1.7761890  
C    -4.0231780    0.2264860   -0.2869980  
C    -4.6050480    1.4681440   -0.3542650  
C    -3.5199170    2.4044220   -0.5474390  
C    -2.2961840    1.5456730   -0.5416540  
N    -2.5890350    0.2914940   -0.3906080  
C    -0.9602730    2.1133610   -0.6917010  
C    -0.8934690    3.4597240   -0.9210140  
O     0.2522000    4.1239220   -1.1529490  
C    -2.1064830    4.3309570   -0.9298770  
O    -1.9375440    5.5362420   -1.1378930  
C    -3.4374790    3.7405310   -0.7247450  
H    -5.6599860    1.7057940   -0.3916820  
H    -0.0213410    5.0618710   -1.2713330  
H    -4.2880210    4.4149630   -0.7377440  
C    -7.4882990   -0.9464200    2.1184800  
C    -7.5102410   -2.2774190    1.8574250  
C    -6.4227790   -2.5529180    0.9406460  
C    -5.7659080   -1.2535290    0.6778990  
N    -6.4737620   -0.3183010    1.3964490  
C    -4.6472330   -1.0688760   -0.1012150  
C    -4.1147670   -2.2750750   -0.7811510  
O    -3.2307120   -2.2387010   -1.6160970  
C    -4.7733940   -3.6682830   -0.4663930  
O    -4.2758200   -4.6723840   -0.9489240  
C    -5.9619660   -3.7063910    0.3862050  
H    -8.2037900   -3.0015440    2.2591420  
H    -6.4195590   -4.6729670    0.5738060  
H    -8.1292910   -0.3590460    2.7622810  
H    -6.1492080    0.6277410    1.5398420  
C     5.0157770   -1.4685840   -3.2196240  
C     5.8222520   -2.4454990   -2.7504800  
C     5.7405540   -2.3389560   -1.2956950  
C     4.7810270   -1.2116450   -1.0623960  
N     4.3757510   -0.7051500   -2.1867470  
C     4.4175790   -0.7605220    0.2863120  
C     5.0662760   -1.4103900    1.2946430  
O     4.8864460   -1.1101960    2.6136810  
C     6.0274200   -2.5272630    1.0936310  
O     6.5261580   -3.0445750    2.0974510  
C     6.3403880   -2.9769820   -0.2748580  
H     6.4211790   -3.1506120   -3.3100120  
H     5.4628990   -1.7509360    3.0926800  
H     7.0507970   -3.7908990   -0.3834310  
H     4.8069330   -1.2069490   -4.2497470  
