64


C    -1.6445160    0.1907850    1.2602370  
C    -1.7845220    1.3632290    0.5593660  
C    -2.9586560    1.2049290   -0.2772580  
C    -3.4746710   -0.0922950   -0.0550260  
N    -2.6772490   -0.6817670    0.9232350  
C    -4.5867650   -0.6035110   -0.7292110  
C    -5.2006450    0.2293010   -1.6527460  
O    -6.2906420   -0.2093660   -2.3462040  
C    -4.7077920    1.5411730   -1.8832250  
O    -5.4318000    2.2509650   -2.8235920  
C    -3.6040230    2.0341070   -1.2132660  
H    -4.9665170   -1.6046550   -0.5588270  
H    -6.5651210    0.5143040   -2.9355220  
H    -5.0381140    3.1289060   -2.9346280  
H    -3.2501890    3.0453790   -1.3932100  
H    -0.9165660   -0.1026260    2.0027360  
C    -3.4251040   -2.5846570    2.2902170  
C    -3.0174190   -3.8778960    2.4661210  
C    -1.9474130   -4.1275040    1.5344250  
C    -1.7606970   -2.9381580    0.7904910  
N    -2.6866970   -2.0135050    1.2560990  
C    -0.7722560   -2.7858320   -0.1819060  
C     0.0683420   -3.8645270   -0.3938260  
O     1.0910080   -3.7411670   -1.3037850  
C    -0.0978540   -5.0759580    0.3222480  
O     0.8182870   -6.0541940   -0.0085650  
C    -1.0971910   -5.2202560    1.2712370  
H    -3.4301400   -4.5774310    3.1801450  
H    -0.6364020   -1.8670580   -0.7398410  
H     1.6761840   -4.5149910   -1.2234220  
H     0.7207480   -6.8056230    0.5948790  
H    -1.2067050   -6.1574320    1.8134020  
H    -4.1825780   -1.9986550    2.7897810  
C     2.6051450    1.5588560    0.0656440  
C     2.7455740    2.9223080    0.3196000  
C     1.4514850    3.4493440    0.5662400  
C     0.5291320    2.3675890    0.4667940  
N     1.2517710    1.2420820    0.1687760  
C    -0.8660720    2.5156890    0.6399960  
C    -1.3058370    3.8139960    0.9014200  
O    -2.6363970    4.0583330    1.0866730  
C    -0.3973000    4.9068110    0.9971150  
O    -1.0195610    6.1145670    1.2642870  
C     0.9615730    4.7452260    0.8431330  
H     3.6862160    3.4487340    0.3215260  
H     0.8790870    0.3240050   -0.0250080  
H    -2.7218050    5.0027630    1.3069420  
H    -0.3470840    6.7930500    1.4239030  
H     1.6364590    5.5949290    0.9216600  
C     6.9864300    1.8907690   -0.1072640  
C     7.3470470    0.6364050   -0.4566350  
C     6.0922700   -0.0983960   -0.5764270  
C     5.0365800    0.9097380   -0.2517820  
N     5.5716990    2.0640610    0.0214660  
C     3.6081100    0.5648330   -0.2599690  
C     3.3162260   -0.7403430   -0.5947970  
O     2.0436360   -1.1960650   -0.6572540  
C     4.3472450   -1.7546340   -0.9058350  
O     4.0020100   -2.9094490   -1.1781440  
C     5.7750490   -1.3664100   -0.8865400  
H     8.3407940    0.2415480   -0.6165110  
H     2.0414780   -2.1429460   -0.9455070  
H     6.4971500   -2.1412370   -1.1273830  
H     7.6252650    2.7456640    0.0791140  
