60


C    -2.7100140   -1.3089600    0.8740000  
C    -1.5892090   -0.5368240    0.8282860  
C    -1.9297650    0.6902840    0.1534320  
C    -3.2985390    0.6010250   -0.1969820  
N    -3.7676290   -0.6509330    0.2355590  
C    -4.0016880    1.6697430   -0.7560150  
C    -3.2975380    2.8441260   -0.9750150  
O    -3.9282500    3.9215940   -1.5077540  
C    -1.9208660    2.9592090   -0.6491200  
O    -1.3819070    4.1834160   -0.9512270  
C    -1.1991680    1.8831280   -0.1185590  
H    -0.6249540   -0.8137960    1.2285660  
H    -5.0523940    1.6247640   -1.0109220  
H    -3.2621700    4.6355970   -1.5307950  
H    -0.7966450    4.4358750   -0.1992290  
H    -2.8621300   -2.3042580    1.2635140  
C     2.0959090   -0.7948990   -1.2875410  
C     0.9191270   -0.1455000   -1.1478230  
C     1.1327790    0.9827510   -0.2710860  
C     2.5667370    0.9505000    0.1020350  
N     3.1193990   -0.1818510   -0.5437390  
C     3.1557460    1.8517650    0.9229290  
C     2.3259560    2.9421080    1.4284370  
O     2.7350370    3.7808040    2.2130900  
C     0.8513540    3.0651040    0.9152510  
O     0.2668630    4.1201590    1.1508280  
C     0.2540530    1.9494470    0.1611840  
H    -0.0135110   -0.4107700   -1.6211900  
H     4.1924680    1.7903470    1.2204680  
H     2.3237310   -1.6685840   -1.8789640  
C     4.4110860   -0.6568030   -0.5140280  
C     4.9117510   -1.7684890   -1.1607750  
C     6.2920370   -1.8097600   -0.7984790  
C     6.4804770   -0.6163110    0.1037980  
N     5.3658110    0.0471250    0.2587540  
C     7.7475130   -0.2980030    0.6905710  
C     8.7840000   -1.1224770    0.3988200  
O    10.0218860   -0.9660940    0.8619830  
C     8.6313530   -2.3394760   -0.5100820  
O     9.6540650   -3.0044270   -0.6918780  
C     7.3351270   -2.6364070   -1.0897660  
H     4.3992280   -2.4687630   -1.8024900  
H     7.8555390    0.5665000    1.3356980  
H    10.5342010   -1.7161320    0.4739150  
H     7.2571810   -3.5077120   -1.7317440  
C    -6.4474870   -2.6862280    3.0978230  
C    -5.3766520   -2.0175690    2.6030970  
C    -5.6902900   -1.7917370    1.1954830  
C    -7.0271900   -2.4155870    1.0179290  
N    -7.4667230   -2.9355160    2.1311860  
C    -7.7240270   -2.3961840   -0.2446490  
C    -7.1221970   -1.7857970   -1.2893930  
O    -7.6602140   -1.6860680   -2.5187750  
C    -5.7606330   -1.1659170   -1.1681610  
O    -5.2491050   -0.7104350   -2.1856600  
C    -5.0645820   -1.1652560    0.1632160  
H    -4.4933060   -1.6883110    3.1306940  
H    -8.7014340   -2.8575580   -0.3301200  
H    -6.9835270   -1.2402740   -3.0715890  
H    -6.6062600   -3.0263340    4.1141050  
