62


C    -0.4959030   -1.5435450   -0.2958300  
C     0.8805730   -1.5838320   -0.1245340  
C     1.3498830   -0.2475680    0.0009670  
C     0.2036440    0.5969010   -0.0797560  
N    -0.8912890   -0.2137270   -0.2574700  
C     0.2432950    2.0067010   -0.0057410  
C     1.5227840    2.5272990    0.1813640  
O     1.7062480    3.8895630    0.2494460  
C     2.6814280    1.7224740    0.3088380  
O     3.8396160    2.4542300    0.4772870  
C     2.6398390    0.3294560    0.2002960  
H     1.4698460   -2.4862180   -0.0831610  
H    -1.8226380    0.1326680   -0.4301170  
H     2.6653880    4.0102950    0.4085390  
H     4.3372190    2.0688860    1.2312090  
C    -3.8241510    1.8515340    1.9414000  
C    -2.5014100    1.6513970    1.6313140  
C    -2.1657570    2.5669420    0.5707840  
C    -3.3408900    3.3166150    0.2969790  
N    -4.3326260    2.8502680    1.1364200  
C    -3.3880910    4.3495990   -0.6460010  
C    -2.2080700    4.6447700   -1.3076970  
O    -2.1668850    5.6522980   -2.2213180  
C    -1.0162120    3.9088510   -1.0612330  
O     0.0521630    4.3111970   -1.8336570  
C    -0.9717670    2.8443090   -0.1570240  
H    -1.8355600    0.9594670    2.1266300  
H    -5.2806950    3.1916130    1.1611230  
H    -4.2854200    4.9247380   -0.8499240  
H    -1.2419040    5.6831900   -2.5328380  
H     0.8425560    4.3573160   -1.2532830  
H    -4.4512480    1.3608570    2.6721480  
C     4.2574440   -2.8524100   -2.4241390  
C     5.4033140   -3.1879560   -1.7923230  
C     5.4624060   -2.3151060   -0.6225430  
C     4.2045540   -1.5048270   -0.7040690  
N     3.5170920   -1.8180500   -1.7596900  
C     3.8723770   -0.4766110    0.2900540  
C     4.8242250   -0.2888700    1.2492250  
O     4.7134820    0.6465830    2.2368530  
C     6.0811510   -1.0767890    1.3544920  
O     6.8426670   -0.8189820    2.2910500  
C     6.3637410   -2.1245900    0.3577910  
H     6.1411750   -3.9230010   -2.0824440  
H     5.5283320    0.5284970    2.7805300  
H     7.2936250   -2.6755400    0.4607720  
H     3.8517580   -3.2603380   -3.3418090  
C    -1.1918650   -3.8774590   -0.9725190  
C    -1.4288070   -2.6248550   -0.4774020  
C    -2.8710040   -2.6483890   -0.1190220  
C    -3.3157090   -4.0137770   -0.4986870  
N    -2.3269490   -4.7191460   -0.9852490  
C    -4.6728850   -4.4454910   -0.3033310  
C    -5.5435720   -3.5782010    0.2711480  
O    -6.8393220   -3.8567520    0.5128420  
C    -5.1160210   -2.2122890    0.6999640  
O    -5.9525560   -1.4772050    1.2295570  
C    -3.7149350   -1.7861970    0.4791040  
H    -4.9703990   -5.4448190   -0.6017800  
H    -7.2009150   -3.0490070    0.9376400  
H    -3.4551170   -0.7906910    0.8290510  
H    -0.2545840   -4.2592990   -1.3580540  
