62


C     1.1241050   -0.9893530   -2.0485780  
C     0.4131770   -0.5484540   -0.9549380  
C     1.3804040    0.0641560   -0.0713100  
C     2.6489660   -0.0319580   -0.6946300  
N     2.4595620   -0.6722230   -1.9006810  
C     3.8518530    0.4249780   -0.1020140  
C     3.7166340    0.9878700    1.1729090  
O     4.8133580    1.4810560    1.8234800  
C     2.4546290    1.0832690    1.8110020  
O     2.5136730    1.6704910    3.0624920  
C     1.2924910    0.6359730    1.2124750  
H     3.2039530   -0.9488560   -2.5222000  
H     4.5020350    1.8372700    2.6744980  
H     1.6305660    1.6754210    3.4601380  
H     0.3369890    0.7113120    1.7260470  
H     0.7690900   -1.4807680   -2.9433960  
C    -1.7653780   -1.8478680   -0.8602850  
C    -1.0270900   -0.6935680   -0.7329760  
C    -1.9670810    0.3414750   -0.3617110  
C    -3.2495990   -0.2567360   -0.2788380  
N    -3.0980540   -1.5874140   -0.6029910  
C    -4.4233390    0.4765210    0.0145570  
C    -4.2539410    1.8443780    0.2555420  
O    -5.3233220    2.6005910    0.6228690  
C    -2.9764220    2.4518300    0.1725080  
O    -2.9896150    3.8082630    0.4423360  
C    -1.8424500    1.7260810   -0.1389880  
H    -3.8295160   -2.2800830   -0.5554000  
H    -5.0238090    3.5262570    0.6560560  
H    -2.1356810    4.1946030    0.1976280  
H    -0.8731630    2.2141710   -0.2083660  
H    -1.4359390   -2.8493830   -1.0982470  
C     5.3674260    0.5275490   -2.1367410  
C     5.1322880    0.3228210   -0.8074220  
C     6.4502200   -0.1085580   -0.2825950  
C     7.3452410   -0.0884520   -1.4740290  
N     6.7065930    0.2880070   -2.5475530  
C     8.7350330   -0.4553280   -1.3856770  
C     9.2114910   -0.8487150   -0.1806000  
O    10.4821010   -1.2248350    0.0467520  
C     8.3287020   -0.9007780    1.0327560  
O     8.8314290   -1.2716010    2.0930790  
C     6.9075410   -0.5069050    0.9185780  
H     9.3607300   -0.4198680   -2.2706950  
H    10.5176280   -1.4495290    1.0024660  
H     6.3108160   -0.5308190    1.8225120  
H     4.6594440    0.8805780   -2.8781350  
C    -6.2813570   -3.0394610    2.0852640  
C    -5.3792830   -2.1029350    1.6998690  
C    -6.0949650   -1.2534730    0.7507550  
C    -7.4608070   -1.8514720    0.6977360  
N    -7.5634590   -2.8936800    1.4766500  
C    -8.5070500   -1.2893500   -0.1170780  
C    -8.2081620   -0.1939330   -0.8504840  
O    -9.0777460    0.4316490   -1.6614060  
C    -6.8271360    0.4109720   -0.8579140  
O    -6.6257920    1.3202540   -1.6548060  
C    -5.7578760   -0.1447530    0.0386840  
H    -4.3597550   -1.9786730    2.0360100  
H    -9.4914650   -1.7438320   -0.1283670  
H    -8.5600960    1.1466730   -2.0929730  
H    -6.1365990   -3.8491820    2.7911160  
