60


C     1.1191040    2.6276440   -0.0533670  
C     2.1341090    3.5583780    0.0405610  
C     3.3700530    2.8506940   -0.0304850  
C     3.0570190    1.4706350   -0.1576120  
N     1.6796980    1.3469640   -0.1231320  
C     4.0451440    0.4599180   -0.2408870  
C     5.3726370    0.9158050   -0.2559390  
O     6.3967460    0.0360660   -0.4003840  
C     5.6915640    2.2971400   -0.1334220  
O     7.0477770    2.5442200   -0.1529760  
C     4.7176910    3.2619300   -0.0004130  
H     2.0029550    4.6214430    0.1889370  
H     1.2409800    0.6028820   -0.6549850  
H     7.2215950    0.5533700   -0.4360480  
H     7.2109160    3.4986810   -0.1850490  
H     4.9826290    4.3111950    0.1058820  
C    -0.3061260    2.8136420   -0.0398410  
C    -1.0572680    3.9312000   -0.3074310  
C    -2.4431500    3.5850790   -0.1583900  
C    -2.4722320    2.1578610    0.2415300  
N    -1.1556770    1.7367220    0.2550010  
C    -3.5993850    1.4406360    0.5275510  
C    -4.8872890    2.1457950    0.3667610  
O    -5.9608510    1.6054490    0.5783420  
C    -4.8787110    3.6499910   -0.0939700  
O    -5.9525020    4.2187160   -0.2308250  
C    -3.5954290    4.2960290   -0.3284670  
H    -0.6717120    4.8860860   -0.6339930  
H    -3.6001520    5.3390460   -0.6292910  
H    -0.8508700    0.8793750    0.6896500  
C    -2.8969370   -0.4348850    2.0756880  
C    -3.5709350    0.0449280    0.9897760  
C    -4.2439070   -1.1088560    0.3863140  
C    -3.8872950   -2.2844510    1.2164400  
N    -3.0519480   -1.8096700    2.2111100  
C    -4.3219810   -3.5505310    0.9921710  
C    -5.1898120   -3.7905280   -0.1561150  
O    -5.6294220   -4.8936030   -0.4429580  
C    -5.5600760   -2.5632260   -1.0668710  
O    -6.2603020   -2.7457040   -2.0490460  
C    -5.0406130   -1.2376130   -0.7032730  
H    -4.0522090   -4.3947860    1.6193090  
H    -5.3346550   -0.3955840   -1.3197530  
H    -2.3155420    0.1142470    2.8059780  
H    -2.7452850   -2.3497450    3.0053130  
C     5.4873760   -3.1141560    2.0330820  
C     5.2896350   -1.8361840    1.6405820  
C     4.3533540   -1.9157290    0.5215960  
C     4.0928080   -3.3824980    0.3817510  
N     4.7566690   -4.0772550    1.2579700  
C     3.1994300   -3.9057360   -0.6190380  
C     2.5608320   -3.0150620   -1.4095190  
O     1.6773940   -3.3563730   -2.3631090  
C     2.7535420   -1.5330710   -1.2476200  
O     2.0308660   -0.8087690   -1.9389660  
C     3.7536670   -0.9917180   -0.2782340  
H     5.7212120   -0.9371590    2.0528030  
H     3.0446680   -4.9751300   -0.7077520  
H     1.3529020   -2.5138520   -2.7460510  
H     6.1128130   -3.4757950    2.8403230  
