62


C    -0.2148880    0.1027120    0.8561130  
C    -0.1905940    1.4442290    0.4952460  
C    -1.5454940    1.7597480    0.0667270  
C    -2.3058780    0.5679450    0.1838790  
N    -1.4591650   -0.4190850    0.6529700  
C    -3.6612480    0.4534960   -0.2033880  
C    -4.2678560    1.6469130   -0.6272980  
O    -5.5998900    1.6848100   -0.9033560  
C    -3.5189860    2.8397150   -0.7571610  
O    -4.2622180    3.9127810   -1.2222620  
C    -2.1751510    2.9073780   -0.4507060  
H    -1.8263470   -1.2407210    1.1218080  
H    -5.8009060    2.5944730   -1.1861050  
H    -3.7274300    4.7180150   -1.1635880  
H    -1.6323740    3.8386550   -0.5607230  
H     0.5910470   -0.5085720    1.2302340  
C     4.0188400    0.2745760    0.1889060  
C     4.6482860    1.4891110    0.2673590  
C     3.6008790    2.4685130    0.4428260  
C     2.3346680    1.6678980    0.4212450  
N     2.5866300    0.4037210    0.2701830  
C     1.0040130    2.2813640    0.5526240  
C     1.0260010    3.6361900    0.7609400  
O    -0.0808750    4.3861880    0.9828950  
C     2.2707830    4.4504330    0.7950480  
O     2.1542390    5.6680460    0.9940350  
C     3.5768940    3.8065630    0.6143700  
H     5.7117190    1.6831750    0.3057130  
H     0.2758360    5.2956660    1.1128030  
H     4.4567030    4.4423390    0.6390840  
C     7.5050220   -0.9082190   -2.2096800  
C     7.4879280   -2.2477380   -1.9223010  
C     6.3853090   -2.4712280   -1.0310870  
C     5.7712780   -1.2149160   -0.8025590  
N     6.4815120   -0.2802300   -1.5234050  
C     4.6110310   -1.0402600   -0.0053490  
C     4.0872340   -2.2097670    0.5731070  
O     3.0158940   -2.1573450    1.4075980  
C     4.7044990   -3.4699140    0.3576490  
O     4.0713100   -4.5100790    1.0147540  
C     5.8338600   -3.6159210   -0.4234030  
H     8.1767140   -2.9900360   -2.3014410  
H     6.1911300    0.6785900   -1.6423410  
H     2.8434300   -3.0702460    1.6999390  
H     4.5539880   -5.3348310    0.8585580  
H     6.2814120   -4.5974480   -0.5670810  
H     8.1710060   -0.3370290   -2.8407990  
C    -4.0949590   -2.8559740    2.7450580  
C    -5.0775060   -3.5966540    2.1865220  
C    -5.3605470   -2.9518620    0.9099780  
C    -4.4427500   -1.7617510    0.8784520  
N    -3.6924860   -1.7390460    1.9466840  
C    -4.4242290   -0.8155100   -0.2293730  
C    -5.1787340   -1.1851820   -1.3134320  
O    -5.1996830   -0.5131150   -2.4705110  
C    -6.0766520   -2.3881190   -1.3222430  
O    -6.7219240   -2.6144060   -2.3467620  
C    -6.1481890   -3.2583730   -0.1361140  
H    -5.5516470   -4.4868830    2.5755180  
H    -5.8367950   -0.9997100   -3.0400410  
H    -6.8084770   -4.1188580   -0.1838360  
H    -3.5964650   -3.0115460    3.6944250  
