62


C    -3.4936600    1.8653230    0.5231660  
C    -4.0803850    0.6401360    0.2424470  
C    -2.9949490   -0.2358190   -0.1664380  
C    -1.8020370    0.5223510   -0.1078260  
N    -2.1443580    1.7897790    0.3237100  
C    -0.5278630    0.0098600   -0.4486260  
C    -0.5024020   -1.3381170   -0.8351900  
O     0.6825980   -1.9364970   -1.1539810  
C    -1.6923010   -2.0965980   -0.9379620  
O    -1.4823610   -3.3863510   -1.3768780  
C    -2.9292520   -1.5648110   -0.6247570  
H    -1.4756390    2.5038090    0.5735480  
H     0.4923260   -2.8628520   -1.3880720  
H    -2.3236870   -3.8654800   -1.4142620  
H    -3.8256370   -2.1699730   -0.7208710  
H    -3.9526010    2.7796570    0.8633230  
C     0.6742770    0.8382020   -0.4065860  
C     0.8035140    2.2007060   -0.5678650  
C     2.1959590    2.5388880   -0.4276510  
C     2.9002540    1.2624700   -0.1683910  
N     1.9264120    0.2829740   -0.1568340  
C     4.2450570    1.1230850    0.0251670  
C     5.0517700    2.3616510   -0.0717630  
O     6.2688980    2.3627100   -0.0282690  
C     4.3117140    3.7352190   -0.2856870  
O     4.9770630    4.7612170   -0.2856880  
C     2.8674530    3.7239630   -0.4821140  
H     0.0224090    2.8881200   -0.8582150  
H     2.3706270    4.6743600   -0.6522390  
H     2.0986940   -0.7106120   -0.1028460  
C     4.3452590   -2.5811730   -2.4118000  
C     5.1213710   -3.3343300   -1.5707710  
C     5.4289250   -2.5155600   -0.4312990  
C     4.7986940   -1.2613010   -0.6387070  
N     4.1345530   -1.3344640   -1.8485740  
C     4.8963490   -0.1816160    0.2668580  
C     5.6595820   -0.4112360    1.4138930  
O     5.7605090    0.5601950    2.3607550  
C     6.2962600   -1.6600910    1.6349420  
O     6.9991850   -1.7198390    2.8250060  
C     6.1898350   -2.7062400    0.7386140  
H     5.4419100   -4.3528690   -1.7424400  
H     3.6808270   -0.5584260   -2.3047390  
H     6.4054770    0.2534610    3.0215870  
H     7.5393520   -2.5235280    2.8395290  
H     6.6858310   -3.6543930    0.9367010  
H     3.9156630   -2.8253430   -3.3731920  
C    -6.6136470   -2.8686030    1.5086910  
C    -5.5297840   -2.0805420    1.2977300  
C    -6.0582000   -0.8392270    0.7348820  
C    -7.5231240   -1.0722570    0.6912240  
N    -7.8439320   -2.2609200    1.1290110  
C    -8.4502030   -0.0644750    0.2390330  
C    -7.9470180    1.1405960   -0.1060990  
O    -8.6962260    2.1851150   -0.5079290  
C    -6.4744840    1.4238140   -0.0593830  
O    -6.1188320    2.5612780   -0.3629830  
C    -5.4999330    0.3422590    0.3345980  
H    -4.4995990   -2.2913600    1.5440420  
H    -9.5132920   -0.2768170    0.2146420  
H    -8.0610290    2.9134050   -0.6771470  
H    -6.6392100   -3.8645330    1.9352250  
