62


C    -1.5796140   -0.2327400    1.0365850  
C    -0.8246150    0.6509990    0.3088360  
C    -1.7233850    1.4427100   -0.4925870  
C    -3.0292500    0.9861600   -0.1961820  
N    -2.9222900   -0.0562230    0.7296640  
C    -4.1701940    1.5667410   -0.7642660  
C    -3.9804290    2.5963270   -1.6737010  
O    -5.0582230    3.1913620   -2.2540080  
C    -2.6716870    3.0421900   -2.0036850  
O    -2.6501460    4.0638170   -2.9273030  
C    -1.5480050    2.4826740   -1.4248830  
H    -5.1774650    1.2551350   -0.5143970  
H    -4.7244490    3.8942820   -2.8383130  
H    -1.7404290    4.3716890   -3.0563140  
H    -0.5546810    2.8460140   -1.6742500  
H    -1.2752330   -0.9942080    1.7390940  
C     1.4160270   -0.3482450    0.0575760  
C     2.7482410    0.0415550    0.1597270  
C     2.7254700    1.4540740    0.4999990  
C     1.3697610    1.8388140    0.5903060  
N     0.5851530    0.7103310    0.3076340  
C     0.9637080    3.1309320    0.9400740  
C     1.9622030    4.0640790    1.1807990  
O     1.6296420    5.3428730    1.5175480  
C     3.3297550    3.6986040    1.0807060  
O     4.2040250    4.7327990    1.3458810  
C     3.7217490    2.4138190    0.7503520  
H    -0.0778310    3.4154640    1.0329670  
H     2.4610650    5.8262580    1.6655800  
H     5.1141890    4.4041160    1.2947770  
H     4.7675250    2.1314620    0.6827730  
H     0.9952110   -1.3077920   -0.2057540  
C     3.8823970   -0.8045320   -0.0485930  
C     3.9310560   -2.1505570   -0.3558670  
C     5.3125320   -2.4873760   -0.4536020  
C     6.0297360   -1.1922730   -0.1689680  
N     5.1965770   -0.2212130    0.0650160  
C     7.4660100   -1.1100200   -0.1716920  
C     8.1518360   -2.2456410   -0.4406090  
O     9.4849840   -2.3342860   -0.4807680  
C     7.4578710   -3.5693910   -0.7319400  
O     8.2041970   -4.5282770   -0.9617390  
C     6.0108390   -3.6285390   -0.7238460  
H     3.0969510   -2.8244680   -0.4947950  
H     7.9623820   -0.1684300    0.0354020  
H     9.6590960   -3.2817620   -0.6991080  
H     5.5450290   -4.5858730   -0.9351840  
C    -4.1419950   -1.0438500    2.6502680  
C    -3.9704610   -0.7662280    1.3313690  
C    -5.0432330   -1.5019420    0.6368120  
C    -5.7892910   -2.1560980    1.7513280  
N    -5.2556500   -1.8883820    2.9115940  
C    -6.9451260   -2.9753190    1.4993170  
C    -7.3125860   -3.1769210    0.2106180  
O    -8.3607700   -3.9267410   -0.1652010  
C    -6.5526430   -2.5644050   -0.9326980  
O    -6.9417230   -2.7966860   -2.0747090  
C    -5.3818650   -1.7021330   -0.6496200  
H    -7.4811050   -3.4233530    2.3286500  
H    -8.3762590   -3.8881120   -1.1463560  
H    -4.8702930   -1.2625090   -1.4999920  
H    -3.5349960   -0.6991930    3.4786470  
