60


C     2.1359000    2.7564870    0.1874710  
C     1.8464250    4.0927020    0.4519490  
C     0.4409860    4.1945440    0.6152880  
C    -0.1006910    2.8828970    0.4376160  
N     0.9442600    2.0430210    0.1816140  
C    -1.4854270    2.5957450    0.5260090  
C    -2.3110320    3.6813120    0.8151470  
O    -3.6529590    3.4972500    0.9587430  
C    -1.7848130    4.9964380    0.9870600  
O    -2.7587170    5.9343310    1.2627140  
C    -0.4382180    5.2658620    0.8948180  
H     2.5705510    4.8919160    0.5301480  
H     0.9287870    1.0508950   -0.0297150  
H    -4.0453400    4.3670490    1.1542930  
H    -2.3516930    6.8053540    1.3811230  
H    -0.0629140    6.2772580    1.0331680  
C    -1.3780260    0.1062720    0.8181040  
C    -1.9781180    1.2239690    0.3253250  
C    -3.0835240    0.7571510   -0.5113120  
C    -3.0481030   -0.7257240   -0.4669430  
N    -1.9997800   -1.0738580    0.3845600  
C    -3.8819700   -1.5338730   -1.1737800  
C    -4.9089510   -0.9176420   -2.0109670  
O    -5.7061580   -1.5688760   -2.6686480  
C    -4.9792170    0.6484790   -2.0525320  
O    -5.8401250    1.1855550   -2.7309510  
C    -3.9966060    1.4098490   -1.2732000  
H    -3.8012330   -2.6148820   -1.1883040  
H    -4.0431970    2.4905890   -1.3249260  
H    -0.5364090    0.0321740    1.4903550  
C    -3.7801360   -4.8638180    1.6515790  
C    -2.6785820   -5.6489390    1.5471420  
C    -1.5818830   -4.8049490    1.1196100  
C    -2.1528910   -3.4437900    0.9801730  
N    -3.4785820   -3.5386630    1.3350110  
C    -1.4375180   -2.3531390    0.5688330  
C    -0.0076320   -2.5415430    0.2738410  
O     0.7153490   -1.6305560   -0.0978980  
C     0.6117020   -3.9764270    0.4551350  
O     1.8059990   -4.1167810    0.2452700  
C    -0.2670690   -5.0621460    0.8775140  
H    -2.6226280   -6.7079850    1.7515250  
H     0.1660870   -6.0513330    0.9844510  
H    -4.7884840   -5.1262810    1.9422030  
H    -4.1552670   -2.7982920    1.2223530  
C     3.3492550    2.0317630   -0.0286520  
C     4.6618800    2.4293420   -0.1151420  
C     5.4159750    1.2227760   -0.3140630  
C     4.3810710    0.1291330   -0.3256330  
N     3.1842840    0.6096120   -0.1672470  
C     4.7296440   -1.2572140   -0.4889880  
C     6.0435940   -1.5434730   -0.6469860  
O     6.5370960   -2.7770810   -0.8094780  
C     7.1152020   -0.4666740   -0.6519490  
O     8.2783980   -0.8513670   -0.8053900  
C     6.7339870    0.9285030   -0.4759060  
H     5.0561270    3.4337770   -0.0498840  
H     3.9539130   -2.0164650   -0.4715220  
H     7.5102670   -2.6464700   -0.8958670  
H     7.5278060    1.6688820   -0.4812290  
