60


C     1.4687980   -0.3878290    1.9306220  
C     0.7137810    0.0095880    0.8485980  
C     1.6508580    0.2888030   -0.2183790  
C     2.9492810    0.0389570    0.2897600  
N     2.8063030   -0.3569450    1.6037700  
C     4.1274610    0.2515430   -0.4625620  
C     3.9500180    0.6994050   -1.7746290  
O     5.0293290    0.8482030   -2.5856100  
C     2.6548590    0.9559130   -2.2937660  
O     2.6657030    1.3994680   -3.5996130  
C     1.5150370    0.7712210   -1.5354680  
H     3.5575540   -0.6888540    2.1897280  
H     4.7089260    1.1914500   -3.4383460  
H     1.7583560    1.4756360   -3.9303740  
H     0.5358820    0.9897730   -1.9539420  
H     1.1461550   -0.7165000    2.9084490  
C    -1.5160230    0.7612760    1.7703180  
C    -0.7416640    0.1485170    0.8307140  
C    -1.6676000   -0.3835880   -0.1680970  
C    -3.0341960   -0.0154060    0.2773180  
N    -2.8733830    0.6508080    1.4677760  
C    -4.1892930   -0.3478850   -0.3841040  
C    -4.0393220   -1.0660070   -1.6666910  
O    -4.9759590   -1.2730230   -2.4185130  
C    -2.6069170   -1.5306600   -2.1056710  
O    -2.4909310   -2.2018070   -3.1180220  
C    -1.4619920   -1.1236580   -1.2888130  
H    -0.4736280   -1.4404520   -1.6053150  
H    -1.2048930    1.2891200    2.6619030  
H    -3.6181590    1.1233750    1.9585620  
C    -6.3163350    3.3471480    1.0565310  
C    -5.3487880    2.5310270    0.5639330  
C    -5.9623840    1.2083390    0.5046910  
C    -7.3500250    1.4374710    1.0099030  
N    -7.5459440    2.6869080    1.3352620  
C    -8.3186840    0.3762010    1.0849270  
C    -7.9304200   -0.8575320    0.6887970  
O    -8.7230930   -1.9391840    0.7117350  
C    -6.5228180   -1.1410540    0.2305770  
O    -6.2231620   -2.3141030    0.0445120  
C    -5.5348240   -0.0180910    0.0984060  
H    -4.3569350    2.8039830    0.2320610  
H    -9.3202100    0.5795780    1.4471040  
H    -8.1575660   -2.6883550    0.4218920  
H    -6.2524360    4.4141020    1.2371870  
C     6.2376740   -3.1299500    1.5894330  
C     5.2871250   -2.4108100    0.9424800  
C     5.8952070   -1.1034170    0.7067070  
C     7.2612680   -1.2338430    1.2961660  
N     7.4535050   -2.4164500    1.8123650  
C     8.2145230   -0.1554260    1.2534200  
C     7.8281460    0.9982820    0.6638840  
O     8.6060290    2.0877170    0.5574370  
C     6.4421850    1.1827870    0.0994250  
O     6.1507160    2.3038900   -0.3008060  
C     5.4721160    0.0371880    0.1003920  
H     4.3046230   -2.7327670    0.6278020  
H     9.2014290   -0.2844380    1.6835910  
H     8.0410970    2.7708290    0.1338560  
H     6.1750730   -4.1570780    1.9297550  
