62


C    -0.8434650   -2.0021890   -0.6102630  
C     0.5331330   -1.9308960   -0.7766050  
C     0.9477070   -0.6038880   -0.4682480  
C    -0.2195180    0.1177090   -0.0982840  
N    -1.2865300   -0.7575470   -0.1580480  
C    -0.2191560    1.4772840    0.2655120  
C     1.0339910    2.0968050    0.2481090  
O     1.1401690    3.4112470    0.5842990  
C     2.2133570    1.3907600   -0.1094060  
O     3.3442240    2.1802140   -0.0810780  
C     2.2137700    0.0449180   -0.4627790  
H     1.1732910   -2.7629300   -1.0327310  
H    -2.2445240   -0.4449770   -0.2251500  
H     2.0752260    3.6603260    0.4701920  
H     4.0948950    1.6742800   -0.4370270  
C    -2.3580890    1.7821260    1.5861370  
C    -1.4543860    2.1853260    0.6452830  
C    -1.9851880    3.4261860    0.0786760  
C    -3.2647430    3.6966140    0.7792330  
N    -3.4327570    2.6592330    1.6749220  
C    -4.0668470    4.7651860    0.5376100  
C    -3.6586480    5.7192650   -0.4877120  
O    -4.3111450    6.7110660   -0.7768420  
C    -2.3135870    5.4442200   -1.2553990  
O    -1.9581520    6.2246310   -2.1242890  
C    -1.5332240    4.2543130   -0.8963530  
H    -4.9989710    4.9434520    1.0650600  
H    -0.5990360    4.0858830   -1.4197370  
H    -2.3100000    0.9214940    2.2409560  
H    -4.2014750    2.5729330    2.3211930  
C    -1.5804930   -4.2227450   -1.5813420  
C    -1.7441580   -3.1018970   -0.8113660  
C    -3.0812750   -3.2899130   -0.1879510  
C    -3.5581720   -4.5840360   -0.7335480  
N    -2.6687320   -5.1177510   -1.5339020  
C    -4.8337120   -5.1309860   -0.3646800  
C    -5.5947730   -4.4430510    0.5248020  
O    -6.8083900   -4.8465170    0.9493570  
C    -5.1292380   -3.1569250    1.1182400  
O    -5.8625950   -2.5771130    1.9231690  
C    -3.8098350   -2.6150100    0.7212270  
H    -5.1599960   -6.0745980   -0.7882100  
H    -7.1039450   -4.1570420    1.5819920  
H    -3.5005510   -1.6944970    1.2062370  
H    -0.7337710   -4.4639530   -2.2120310  
C     3.6384440   -1.4087950   -1.9848800  
C     3.4566440   -0.6416300   -0.8517210  
C     4.7296910   -0.6467810   -0.1548760  
C     5.6275060   -1.4288160   -0.9265370  
N     4.9318220   -1.8781900   -2.0311340  
C     6.9521820   -1.6663790   -0.5402380  
C     7.3812220   -1.1069030    0.6528670  
O     8.6622210   -1.3036060    1.0734160  
C     6.4936350   -0.3328190    1.4487790  
O     7.0646800    0.1443280    2.6111370  
C     5.1857270   -0.1009330    1.0659930  
H     5.3149830   -2.4513500   -2.7668500  
H     7.6390240   -2.2656730   -1.1290210  
H     8.7609210   -0.8474940    1.9270840  
H     6.4058750    0.6413890    3.1184740  
H     4.5229880    0.4829130    1.6999310  
H     2.9393350   -1.6310950   -2.7782620  
