60


C    -0.7302210    0.0023380    1.5864130  
C    -2.0550710   -0.2720700    1.4143190  
C    -2.3860780   -0.0192150    0.0338430  
C    -1.1978830    0.4047950   -0.6079890  
N    -0.2008370    0.4274620    0.3654560  
C    -1.1100680    0.6967260   -1.9682430  
C    -2.2677980    0.5243430   -2.7136430  
O    -2.2577450    0.7695730   -4.0466800  
C    -3.4774030    0.0847500   -2.1116090  
O    -4.5262670   -0.0123130   -2.9962880  
C    -3.5786540   -0.1561560   -0.7366100  
H    -2.7261850   -0.6105300    2.1896160  
H    -0.1940470    1.0231340   -2.4476920  
H    -3.1573080    0.5608470   -4.3651580  
H    -4.9781700   -0.8642920   -2.8177520  
H    -0.0959590   -0.0507890    2.4591300  
C     2.0832640   -0.2008430   -0.2532390  
C     3.2972670    0.4051010   -0.3567200  
C     3.1235000    1.8143390   -0.0209850  
C     1.6866240    1.9882190    0.2827530  
N     1.1125750    0.7249690    0.1385370  
C     1.1062460    3.1583960    0.6354730  
C     1.9582070    4.3462860    0.7304690  
O     1.5301180    5.4461080    1.0368160  
C     3.4923180    4.1847330    0.4251240  
O     4.2204960    5.1590610    0.5039740  
C     3.9926160    2.8538870    0.0514700  
H     0.0477580    3.2554660    0.8507170  
H     5.0547770    2.7520860   -0.1478960  
H     1.8016230   -1.2312290   -0.4194700  
C     5.3558270    0.2182050   -1.7462690  
C     6.4644940   -0.5539460   -1.8335280  
C     6.3774930   -1.5590220   -0.7941350  
C     5.1043040   -1.3036770   -0.0767320  
N     4.5160700   -0.2019710   -0.7006530  
C     4.6615720   -2.0333400    0.9769790  
C     5.4826560   -3.1487080    1.4456580  
O     5.1635990   -3.8543370    2.3896140  
C     6.8297140   -3.4448270    0.6923730  
O     7.5219320   -4.3797770    1.0607790  
C     7.2000050   -2.5769780   -0.4302990  
H     7.2651450   -0.4448510   -2.5506380  
H     3.7322930   -1.8302440    1.4980160  
H     8.1371370   -2.7831550   -0.9383520  
H     5.0517590    1.0606810   -2.3529680  
C    -5.7901490    1.3063420    2.8637300  
C    -4.8992530    1.2245040    1.8497330  
C    -5.3223900    0.0699570    1.0567960  
C    -6.5306350   -0.4306320    1.7765580  
N    -6.7945080    0.2811620    2.8330890  
C    -7.2736760   -1.5755460    1.3144300  
C    -6.8648720   -2.1631110    0.1681430  
O    -7.4837600   -3.2152060   -0.3970840  
C    -5.6928380   -1.6398940   -0.6064660  
O    -5.4774780   -2.1784070   -1.7006240  
C    -4.8496320   -0.5261900   -0.0732680  
H    -4.0635560    1.8748720    1.6399270  
H    -8.1390430   -1.9237050    1.8668980  
H    -7.0035620   -3.3986280   -1.2313510  
H    -5.8298500    2.0387710    3.6607370  
