60


C    -1.0736970    1.4345180   -0.1521710  
C    -0.3290610    0.4271480    0.4547020  
C    -1.2880920   -0.5994380    0.8335770  
C    -2.5660750   -0.1290160    0.4593950  
N    -2.3944500    1.1038860   -0.1452860  
C    -3.7724570   -0.8471570    0.6512550  
C    -3.6381980   -2.1022790    1.2712350  
O    -4.7230870   -2.8537810    1.5536700  
C    -2.3605170   -2.5753780    1.6728660  
O    -2.4060180   -3.8104430    2.2848250  
C    -1.2026850   -1.8520680    1.4733880  
H    -3.1318480    1.5972620   -0.6291430  
H    -4.4042280   -3.6803340    1.9597930  
H    -1.5057740   -4.1309390    2.4446720  
H    -0.2429260   -2.2579150    1.7708130  
H    -0.7262320    2.3380560   -0.6309410  
C     2.4821800    3.7775680    1.2752210  
C     1.3442830    3.0473660    1.1745130  
C     1.7795060    1.6945930    0.8465650  
C     3.2526420    1.7933910    0.7956630  
N     3.6554320    3.0159120    1.0323270  
C     4.1190210    0.6433480    0.5117010  
C     3.4634470   -0.5508300    0.3912120  
O     4.0965750   -1.7381300    0.2476190  
C     1.9853670   -0.6837150    0.4434540  
O     1.5264090   -1.8263540    0.3390370  
C     1.1112560    0.5239610    0.6122760  
H     0.3292340    3.3743730    1.3471320  
H     3.3739830   -2.4005370    0.1769880  
H     2.5857810    4.8269780    1.5232300  
C     6.2734020    1.7892110    1.0795050  
C     5.5655580    0.8133000    0.4190930  
C     6.5462720    0.0805570   -0.3908170  
C     7.8653420    0.7027150   -0.1063470  
N     7.6201970    1.7165830    0.8001650  
C     9.0458910    0.3306770   -0.6608430  
C     9.0420080   -0.7544050   -1.6355030  
O    10.0525150   -1.1634080   -2.1870140  
C     7.6582700   -1.4046900   -1.9897590  
O     7.6219260   -2.3011470   -2.8184040  
C     6.4524590   -0.9141300   -1.3118910  
H     9.9906250    0.8124180   -0.4273650  
H     5.5162590   -1.3949970   -1.5606090  
H     5.8843440    2.5569520    1.7302760  
H     8.3193210    2.3481950    1.1596240  
C    -5.0535020   -0.3071680    0.2223960  
C    -5.4586650    1.0063370    0.2203430  
C    -6.7881530    1.0090640   -0.3413230  
C    -7.0473300   -0.4329530   -0.6645780  
N    -6.0467090   -1.1925850   -0.3308760  
C    -8.2817400   -0.8576440   -1.2742530  
C    -9.2163440    0.0891310   -1.5230820  
O   -10.4118970   -0.1553080   -2.0763980  
C    -8.9904570    1.5484630   -1.1898050  
O    -9.9040890    2.3300550   -1.4575570  
C    -7.7211910    1.9601080   -0.5852350  
H    -4.9514740    1.8552060    0.6588670  
H    -8.4406320   -1.9044800   -1.5073920  
H   -10.8561970    0.7215920   -2.1244740  
H    -7.5926280    3.0162210   -0.3685300  
