64


C    -1.2962180   -0.9004530   -0.3079060  
C    -0.0531620   -1.4478350   -0.5452250  
C     0.8915780   -0.3736090   -0.5287550  
C     0.1650500    0.8230310   -0.2991630  
N    -1.1749740    0.4880250   -0.2072110  
C     0.7677820    2.0968090   -0.2032340  
C     2.1716160    2.1007140   -0.2685170  
O     2.8653680    3.2521130   -0.0740170  
C     2.9155790    0.9223930   -0.5328150  
O     4.2714810    1.1375190   -0.6573620  
C     2.2935120   -0.3118540   -0.6824450  
H     0.1541200   -2.4904290   -0.7388430  
H    -1.7536880    1.0383180    0.4285410  
H     3.8090910    3.0245460   -0.1644530  
H     4.7608090    0.3124710   -0.4921400  
C    -2.5889850   -1.5333300   -0.1912700  
C    -2.9316090   -2.8318590    0.1307950  
C    -4.3584220   -2.9250810    0.0955370  
C    -4.8516650   -1.6386510   -0.2558410  
N    -3.7600580   -0.8034760   -0.3931340  
C    -6.2164370   -1.3657750   -0.3987470  
C    -7.1049000   -2.4071970   -0.1748620  
O    -8.4483030   -2.1957790   -0.3032440  
C    -6.6323810   -3.6953780    0.1915550  
O    -7.6396450   -4.6236350    0.3874580  
C    -5.2834680   -3.9632310    0.3306950  
H    -2.2342980   -3.6121200    0.4032550  
H    -3.7782220    0.0975900   -0.8471560  
H    -6.5968400   -0.3866090   -0.6715670  
H    -8.8902060   -3.0395860   -0.1062690  
H    -7.2477420   -5.4773120    0.6231220  
H    -4.9461020   -4.9594300    0.6106270  
C    -2.6042960    3.3274220    2.4275410  
C    -2.6716530    4.6555280    2.1866010  
C    -1.6793800    4.9058970    1.1486590  
C    -1.0523430    3.5638270    0.8966240  
N    -1.6240160    2.6510300    1.6352920  
C     0.0239220    3.3698320   -0.0648980  
C     0.3080080    4.4645370   -0.8399960  
O     1.1785500    4.4520540   -1.8550800  
C    -0.3275810    5.8102750   -0.6315720  
O     0.0183900    6.7265960   -1.3778940  
C    -1.3365650    5.9876160    0.4256180  
H    -3.3247060    5.3875460    2.6406700  
H     1.1862910    5.3728450   -2.2009960  
H    -1.7725730    6.9748480    0.5433300  
H    -3.1905290    2.7416870    3.1253170  
C     2.8910630   -2.2792210   -2.0977870  
C     3.8393940   -3.2646720   -2.1129740  
C     4.6529170   -3.0883830   -0.9433740  
C     4.1344040   -1.9661730   -0.2445830  
N     3.0537170   -1.4764080   -0.9712480  
C     4.6719950   -1.5212070    0.9746030  
C     5.7666510   -2.2094630    1.4812650  
O     6.3245950   -1.8186790    2.6632670  
C     6.3062290   -3.3225690    0.7864930  
O     7.3943750   -3.8988140    1.4147090  
C     5.7606970   -3.7692540   -0.4039930  
H     3.9497640   -4.0266240   -2.8724340  
H     4.2387450   -0.7082670    1.5482260  
H     7.0550670   -2.4323100    2.8534250  
H     7.6825810   -4.6761760    0.9140210  
H     6.1837350   -4.6344980   -0.9110540  
H     2.1055280   -2.0477920   -2.8023760  
