60


C    -1.1249120   -1.9525340   -0.0261500  
C    -1.8966740   -0.7778060   -0.1010110  
C    -3.2497810   -1.1490120   -0.1045560  
C    -3.2824790   -2.5865760   -0.0105300  
N    -1.9952850   -3.0311180    0.0196060  
C    -4.4707960   -3.3148960    0.0651050  
C    -5.6412980   -2.5780390    0.0877990  
O    -6.8317410   -3.1953340    0.1953830  
C    -5.6493690   -1.1387700    0.0067230  
O    -6.9105180   -0.6239070    0.0534080  
C    -4.4796170   -0.4027690   -0.1402300  
H    -1.4895000    0.2195970   -0.1529690  
H    -1.6597530   -3.9818150    0.0966140  
H    -4.5011010   -4.3962250    0.1375630  
H    -7.5012850   -2.4807930    0.2270850  
H    -6.8861110    0.1941350    0.6326430  
C     0.2662650   -2.1639560    0.0139480  
C     1.3169930   -1.2350970   -0.0195040  
C     2.4992510   -1.9866670    0.0416900  
C     2.0238770   -3.4159130    0.1005300  
N     0.7173510   -3.5043830    0.0952110  
C     2.9323890   -4.5179410    0.1404580  
C     4.2546280   -4.2278840    0.0804260  
O     5.2171390   -5.1491900    0.0768450  
C     4.7847230   -2.8064530    0.0046500  
O     6.0257450   -2.7320610   -0.0814280  
C     3.8695040   -1.6767840    0.0459240  
H     1.2123900   -0.1673200   -0.1240760  
H     2.5651240   -5.5364730    0.1923220  
H     6.0575070   -4.6342480    0.0133410  
C     4.3916410   -0.3292700    0.0973030  
C     3.7484070    0.8633630    0.3877960  
C     4.7125990    1.9183870    0.3392720  
C     6.0073210    1.2776680   -0.0025420  
N     5.7439640   -0.0637820   -0.1433640  
C     7.1805170    1.9496810   -0.1326610  
C     7.1821220    3.3945260    0.0705150  
O     8.1899690    4.0802210   -0.0261150  
C     5.8205230    4.0958440    0.4304580  
O     5.8071850    5.3080160    0.6015570  
C     4.6259130    3.2666550    0.5453980  
H     2.7143940    0.9783120    0.6673030  
H     8.1196170    1.4648130   -0.3809070  
H     3.6919400    3.7604410    0.7971480  
H     6.4148410   -0.8091890   -0.2750190  
C    -6.7642250    2.8186020    1.8697760  
C    -6.1668700    3.9311300    1.3895150  
C    -5.1821120    3.4576070    0.4249380  
C    -5.2924630    1.9649090    0.4763340  
N    -6.2358000    1.6138210    1.3094700  
C    -4.4661800    1.0702000   -0.3190200  
C    -3.6741640    1.7060770   -1.2404910  
O    -2.9017480    1.0698900   -2.1289500  
C    -3.5702640    3.2063660   -1.3486160  
O    -2.8189490    3.6563730   -2.2118230  
C    -4.3570730    4.0646370   -0.4485940  
H    -6.3743620    4.9617150    1.6402460  
H    -2.4670990    1.7812950   -2.6542580  
H    -4.2525060    5.1392770   -0.5591050  
H    -7.5627240    2.7409790    2.5966690  
