60


C    -3.7078980    2.1159860   -0.1632640  
C    -2.3459560    2.1800050   -0.1036980  
C    -1.8467670    0.8428710    0.0665530  
C    -2.9734220   -0.0052440    0.1102950  
N    -4.1231420    0.7934060   -0.0148430  
C    -2.8749790   -1.4028010    0.1414620  
C    -1.6070860   -1.9547770    0.1591810  
O    -1.4539810   -3.3057140    0.1877180  
C    -0.4431840   -1.1402060    0.1497750  
O     0.7042400   -1.8492680    0.1807190  
C    -0.5301320    0.2788980    0.1244590  
H    -1.7768970    3.0894220   -0.2096610  
H    -3.7388770   -2.0560000    0.1460800  
H    -0.4936870   -3.4737990    0.2088510  
H     1.4675410   -1.1935100    0.1157540  
H    -4.4349950    2.9018170   -0.2844370  
C     0.6661220    1.0825220    0.1709970  
C     0.8590490    2.4374430    0.3360820  
C     2.2699070    2.6580320    0.3151480  
C     2.8707730    1.2936230    0.1209800  
N     1.9308010    0.3954030    0.0476600  
C     4.2958950    1.0675960    0.0467050  
C     5.0683870    2.1881980    0.1715260  
O     6.3933180    2.1802760    0.0896620  
C     4.4952220    3.5837050    0.3777660  
O     5.3219160    4.4955020    0.4658880  
C     3.0586850    3.7601780    0.4472520  
H     0.1153560    3.1973800    0.5097290  
H     6.6631720    3.1199650    0.2331550  
H     2.6763620    4.7637170    0.6016840  
C     3.9072020   -2.1819410   -2.9864470  
C     3.7950140   -1.0200150   -2.2927310  
C     4.6137960   -1.1435980   -1.1052970  
C     5.2266880   -2.4950070   -1.1708980  
N     4.7497600   -3.0730180   -2.3309570  
C     6.0921580   -3.0035680   -0.2572400  
C     6.4507370   -2.1725920    0.8825790  
O     7.2375370   -2.5239790    1.7480610  
C     5.7863030   -0.7524570    1.0053680  
O     6.0179960   -0.0898930    2.0008740  
C     4.8814180   -0.2830080   -0.0751750  
H     3.1956640   -0.1667940   -2.5689220  
H     6.5392240   -3.9894210   -0.3397000  
H     3.4447290   -2.4688810   -3.9216110  
H     5.0075740   -3.9879160   -2.6655480  
C    -6.5269470   -1.9596340    2.5264830  
C    -5.4713130   -1.2414500    2.0718350  
C    -5.9730590   -0.5304900    0.8991800  
C    -7.3942210   -0.9595550    0.7994480  
N    -7.7131570   -1.7931640    1.7503050  
C    -8.2852350   -0.4549280   -0.2158430  
C    -7.8016170    0.4608070   -1.0837680  
O    -8.5288740    1.0339650   -2.0606670  
C    -6.3810580    0.9334680   -1.0217020  
O    -6.0201890    1.7650050   -1.8496520  
C    -5.4548030    0.3703170    0.0218690  
H    -4.4763330   -1.1838670    2.4872310  
H    -9.3129580   -0.7984730   -0.2513030  
H    -7.9168600    1.6390040   -2.5307410  
H    -6.5626310   -2.6124710    3.3901750  
