60


C     0.0515920    2.0586550   -0.1459110  
C    -1.1975510    1.4572980   -0.3232070  
C    -0.9994220    0.0529850   -0.3718400  
C     0.3947700   -0.1769700   -0.2039910  
N     0.9946720    1.0429290   -0.0803720  
C     0.9844330   -1.4663350   -0.1930900  
C     0.0862790   -2.5358620   -0.3485570  
O     0.5208260   -3.8111730   -0.2924880  
C    -1.3125360   -2.3176030   -0.5230650  
O    -2.0091880   -3.4943920   -0.6968010  
C    -1.8837990   -1.0514450   -0.5385420  
H    -2.1488470    1.9655000   -0.3313980  
H     1.9774190    1.2353220    0.0661780  
H    -0.2562470   -4.3871770   -0.4137210  
H    -2.9654460   -3.3311050   -0.6881190  
C    -2.0216360    5.9185340   -1.0319170  
C    -1.6705220    4.6048900   -0.9777960  
C    -0.3898170    4.5184630   -0.3135690  
C    -0.0106230    5.9075160    0.0087990  
N    -1.0515490    6.7034120   -0.4264280  
C     1.1418300    6.2996390    0.6232730  
C     2.1014320    5.2767290    0.9632930  
O     3.1662760    5.4848390    1.5277270  
C     1.7656450    3.7887850    0.5683640  
O     2.6561330    2.9636640    0.7284580  
C     0.4247040    3.4468320    0.0154610  
H    -2.2313360    3.7889960   -1.4030310  
H     1.3668430    7.3323190    0.8691220  
H    -2.8991740    6.3795060   -1.4649070  
H    -1.0568340    7.7103260   -0.3824940  
C     2.4188740   -1.6516730   -0.0295900  
C     3.2938620   -0.8837650    0.6957020  
C     4.5991270   -1.4636630    0.4824700  
C     4.3400000   -2.6129990   -0.4441240  
N     3.0793930   -2.7253870   -0.7357860  
C     5.4114530   -3.4523370   -0.9203670  
C     6.6626800   -3.1783810   -0.4848460  
O     7.7559050   -3.8730120   -0.8335090  
C     6.9512620   -2.0329900    0.4611900  
O     8.1256150   -1.8695570    0.7962330  
C     5.8490270   -1.1841600    0.9218650  
H     3.0716630   -0.0571110    1.3561130  
H     5.1995540   -4.2736740   -1.5957410  
H     8.4972060   -3.4333470   -0.3580350  
H     6.0943300   -0.3642830    1.5898440  
C    -3.9043790   -0.0290100   -1.6746060  
C    -3.3279060   -0.8564800   -0.7514320  
C    -4.4325180   -1.4926470   -0.0350280  
C    -5.6846850   -0.9699890   -0.6383590  
N    -5.2886510   -0.0764990   -1.6159520  
C    -6.9336980   -1.3302800   -0.2529940  
C    -7.0751470   -2.2952180    0.8364560  
O    -8.1580970   -2.6861030    1.2410230  
C    -5.7657480   -2.8400700    1.5136640  
O    -5.8611310   -3.6264460    2.4410140  
C    -4.4697870   -2.3776540    0.9998570  
H    -7.8368530   -0.9340990   -0.7070940  
H    -3.5755440   -2.7446360    1.4946540  
H    -3.4134400    0.6033330   -2.4024630  
H    -5.9142220    0.4116190   -2.2377780  
