58


C     0.5786990    1.6710340   -0.1678570  
C     1.6765390    0.8526670   -0.1881300  
C     1.1713870   -0.4918900   -0.0642490  
C    -0.3129980   -0.3250380    0.0092930  
N    -0.6463200    0.9260930   -0.0461020  
C    -1.2229500   -1.4691440    0.1247970  
C    -0.6049300   -2.6928610    0.1792520  
O    -1.2625850   -3.8624880    0.3015990  
C     0.8758820   -2.8833800    0.1270070  
O     1.2928610   -4.0362510    0.2548400  
C     1.7704540   -1.7133190   -0.0262900  
H     2.7091500    1.1372030   -0.3200130  
H    -0.5553730   -4.5502920    0.3362320  
C     3.2922000    4.9404340    1.1926840  
C     2.7738740    3.7022690    0.9691500  
C     1.5319650    3.9330430    0.2586750  
C     1.4564220    5.4316550    0.1522160  
N     2.4925830    6.0068730    0.6959270  
C     0.3469700    6.0929160   -0.4697740  
C    -0.6510210    5.3191540   -0.9587860  
O    -1.7400670    5.8041380   -1.5659700  
C    -0.6125110    3.8096010   -0.8911610  
O    -1.5406220    3.2182290   -1.4299020  
C     0.5447030    3.1216710   -0.2325330  
H     3.1886850    2.7530240    1.2731320  
H     0.3245280    7.1749140   -0.5355660  
H    -2.2663140    5.0192760   -1.8376540  
H     4.2179090    5.1845710    1.7010730  
C     5.3345390   -0.3755430    2.3407680  
C     4.0533920   -0.5200960    1.9210500  
C     4.1339340   -1.3962260    0.7590350  
C     5.6004920   -1.6945740    0.6319480  
N     6.2917480   -1.0913240    1.5555870  
C     6.1122150   -2.5595840   -0.3963000  
C     5.2246770   -3.1107430   -1.2573560  
O     5.5649340   -3.9245760   -2.2658640  
C     3.7490230   -2.8231710   -1.1736640  
O     3.0278130   -3.2991950   -2.0433540  
C     3.2236010   -1.9420390   -0.0866900  
H     3.1574770   -0.0999350    2.3545910  
H     7.1770950   -2.7519780   -0.4632030  
H     4.7280640   -4.1452510   -2.7297860  
H     5.6934330    0.1991430    3.1865590  
C    -2.6623660   -1.2881770    0.1634480  
C    -3.3967950   -0.1317540    0.0172980  
C    -4.7873650   -0.4796720    0.1161700  
C    -4.8386330   -1.9462290    0.3364580  
N    -3.5315660   -2.3714270    0.3603180  
C    -5.9859500   -2.6598210    0.4774030  
C    -7.2585450   -1.9499260    0.4124170  
O    -8.3411140   -2.5048440    0.5289390  
C    -7.2286230   -0.3936830    0.1820830  
O    -8.2841820    0.2187940    0.1254150  
C    -5.9269680    0.2642130    0.0430840  
H    -2.9817610    0.8486000   -0.1521440  
H    -6.0049810   -3.7334730    0.6369880  
H    -5.9168690    1.3381310   -0.1166600  
H    -3.2203350   -3.3266040    0.4520340  
