60


C    -1.1987780   -1.0905280   -0.3661380  
C     0.1263240   -1.4955700   -0.5312500  
C     0.9343060   -0.3361650   -0.4697630  
C     0.0550370    0.7764970   -0.2705370  
N    -1.2186060    0.2901420   -0.2406700  
C     0.5100700    2.1120990   -0.1680150  
C     1.8987120    2.2687750   -0.1775650  
O     2.4436120    3.4941700    0.0046680  
C     2.7887270    1.1694990   -0.3791400  
O     4.1071890    1.5660990   -0.4280760  
C     2.3434310   -0.1320020   -0.5472000  
H     0.4577350   -2.5162330   -0.6582220  
H    -2.0221870    0.7856350    0.1272040  
H     3.4107140    3.3935360   -0.0592400  
H     4.6958010    0.7949820   -0.4568980  
C     3.1621720   -2.1643690   -1.8189000  
C     3.2690720   -1.2469450   -0.8104810  
C     4.4724610   -1.6073770   -0.0636070  
C     5.0516670   -2.7948660   -0.7423510  
N     4.1996400   -3.0830650   -1.7913680  
C     6.1857530   -3.4273750   -0.3520200  
C     6.8985290   -2.9200170    0.8193820  
O     7.9340720   -3.4158160    1.2332740  
C     6.2898160   -1.6836450    1.5749190  
O     6.8548750   -1.2597080    2.5694510  
C     5.0570080   -1.0832380    1.0501790  
H     6.5904810   -4.2966140   -0.8613910  
H     4.6340720   -0.2485030    1.6011250  
H     2.4033790   -2.2264560   -2.5877210  
H     4.3299010   -3.8335290   -2.4517810  
C    -2.4148300   -1.8290640   -0.2922160  
C    -2.6474000   -3.1833870   -0.3982060  
C    -4.0571750   -3.3491570   -0.2342190  
C    -4.5756250   -1.9503040   -0.0259160  
N    -3.6166810   -1.0707960   -0.0611690  
C    -5.9748380   -1.6891170    0.1814760  
C    -6.8120360   -2.7532080    0.1814160  
O    -8.1348050   -2.6750980    0.3597400  
C    -6.3209910   -4.1772850   -0.0266930  
O    -7.1887760   -5.0575840   -0.0046930  
C    -4.9056930   -4.4171480   -0.2332160  
H    -1.9206970   -3.9655360   -0.5674920  
H    -6.3271700   -0.6743390    0.3291210  
H    -8.4450320   -3.6107510    0.3047960  
H    -4.5853470   -5.4441260   -0.3774290  
C    -2.9795310    3.0180270    2.4053120  
C    -3.2739020    4.2885390    2.0509400  
C    -2.3242180    4.6202150    0.9949180  
C    -1.4808860    3.3850880    0.8552680  
N    -1.8827940    2.4550740    1.6735670  
C    -0.3830160    3.2910040   -0.0960430  
C    -0.2352220    4.3673320   -0.9263740  
O     0.6602710    4.4291300   -1.9180830  
C    -1.0778160    5.6113610   -0.8163530  
O    -0.8472720    6.5219770   -1.6105380  
C    -2.1358400    5.6924470    0.2040750  
H    -4.0488520    4.9322610    2.4428380  
H     0.5370900    5.3176540   -2.3224910  
H    -2.7209530    6.6058370    0.2477410  
H    -3.4648880    2.4006350    3.1513090  
