60


C    -1.9215740   -0.2430100    1.3751050  
C    -2.8410120    0.0316480    0.3707110  
C    -2.2232140    1.0443260   -0.4706880  
C    -0.9557400    1.3309280    0.0909590  
N    -0.8038030    0.5210730    1.2059970  
C    -0.0699030    2.3057990   -0.4125440  
C    -0.5121480    3.0102390   -1.5340460  
O     0.3011740    3.9287240   -2.1163630  
C    -1.7841780    2.7479110   -2.1026540  
O    -2.0636100    3.5247730   -3.2087160  
C    -2.6358560    1.7875250   -1.5926990  
H     0.0115270    0.5011350    1.7993810  
H    -0.2069190    4.3579030   -2.8268330  
H    -2.9518670    3.3165310   -3.5344640  
H    -3.5890400    1.5907290   -2.0706590  
H    -1.9788990   -0.9801590    2.1622650  
C     3.4437530   -0.2631900    0.2736550  
C     4.2701400    0.6666070    0.8782290  
C     3.5579150    1.9124780    0.9559320  
C     2.2302480    1.6636230    0.3476930  
N     2.2272050    0.3368050   -0.0365220  
C     1.2413290    2.5947950    0.2059370  
C     1.5261870    3.9449420    0.7464090  
O     0.6945330    4.8340480    0.7700660  
C     2.9473330    4.2358840    1.3560150  
O     3.1973650    5.3693800    1.7401050  
C     3.9038990    3.1394560    1.4406780  
H     5.2323620    0.4763310    1.3305670  
H     4.8762710    3.3462750    1.8774330  
H     1.4559760   -0.1813570   -0.4385760  
C     7.1907710   -2.4911450   -0.3169780  
C     6.6890520   -3.7394970   -0.4738110  
C     5.2461820   -3.6360300   -0.3879200  
C     4.9478900   -2.2052020   -0.1460440  
N     6.1619180   -1.5717920   -0.0855660  
C     3.6837890   -1.6627150   -0.0297390  
C     2.5650050   -2.5908180   -0.2757980  
O     1.3997490   -2.2307750   -0.3831720  
C     2.8634790   -4.1271140   -0.4159370  
O     1.9199810   -4.8967860   -0.4685970  
C     4.2569300   -4.5621340   -0.4933560  
H     7.2525850   -4.6456660   -0.6406190  
H     4.4510020   -5.6198030   -0.6409900  
H     8.2170460   -2.1499920   -0.3331510  
H     6.2627920   -0.5670500   -0.1240530  
C    -5.8018290   -1.3847340    3.3960020  
C    -4.7517050   -0.7394430    2.8289650  
C    -4.8778920   -0.9838600    1.3941000  
C    -6.1048680   -1.8046370    1.2848850  
N    -6.6384240   -2.0480210    2.4536090  
C    -6.6172160   -2.2501410    0.0121190  
C    -5.9481110   -1.8725270   -1.0986890  
O    -6.3261480   -2.1873730   -2.3542410  
C    -4.7039110   -1.0353370   -1.0290660  
O    -4.1840690   -0.7311430   -2.1025600  
C    -4.1379910   -0.6240960    0.3004310  
H    -4.0041310   -0.1318130    3.3180360  
H    -7.5182810   -2.8520060   -0.0310930  
H    -5.6443030   -1.7858860   -2.9348870  
H    -6.0667060   -1.4315900    4.4457000  
