60


C    -0.1171900    2.5885340   -0.7046480  
C     0.6425330    1.6373760   -0.0233620  
C     1.9679170    1.6624090   -0.5460590  
C     1.9889730    2.6891940   -1.5341180  
N     0.7096270    3.1960870   -1.6416330  
C     3.1466780    3.0736810   -2.2097360  
C     4.3115340    2.4034330   -1.8675360  
O     5.4826560    2.7314930   -2.4574160  
C     4.3215390    1.3452380   -0.9064920  
O     5.5569100    0.7840740   -0.7492170  
C     3.1589750    0.9139660   -0.2631270  
H     0.2673850    0.9799570    0.7457660  
H     0.4726600    4.0488610   -2.1263760  
H     3.1695550    3.8653710   -2.9508660  
H     6.1577040    2.1557430   -2.0446980  
H     5.6561240    0.5594430    0.2129340  
C     0.3192750   -2.4956390   -0.0393460  
C     1.0692780   -1.3912590   -0.4100270  
C     2.1272070   -1.2284210    0.5298140  
C     1.9937540   -2.3584000    1.4834390  
N     0.8796610   -3.0706270    1.0940590  
C     2.8236500   -2.5784730    2.5327730  
C     3.9290000   -1.6508630    2.7190800  
O     4.7208220   -1.7251710    3.6444550  
C     4.1325630   -0.5015500    1.6635350  
O     5.1802520    0.1454140    1.7641300  
C     3.1213180   -0.2650490    0.6353420  
H     0.9352890   -0.7987240   -1.2990630  
H     2.6955040   -3.3862160    3.2455090  
H     0.5718670   -3.9733670    1.4352970  
C    -2.7821010   -0.5534830   -2.4857470  
C    -3.5569210   -1.6307220   -2.7572270  
C    -2.9536500   -2.7688460   -2.0946250  
C    -1.7323110   -2.2598440   -1.4241170  
N    -1.6741580   -0.9261720   -1.7148300  
C    -0.8824320   -3.0259150   -0.6426630  
C    -1.3146600   -4.4081210   -0.3796780  
O    -0.7756090   -5.1384940    0.4432720  
C    -2.5337430   -4.9884020   -1.1791250  
O    -2.7879190   -6.1752190   -1.0703180  
C    -3.3241490   -4.0734000   -2.0029110  
H    -4.4671610   -1.6420320   -3.3383370  
H    -4.1988930   -4.4740340   -2.5055530  
H    -2.9053580    0.4840270   -2.7656420  
H    -1.0333320   -0.2696470   -1.2846100  
C    -2.3278990    3.5035910   -1.5459560  
C    -1.5124250    2.9053100   -0.6162370  
C    -2.4133690    2.6508730    0.5380730  
C    -3.7342850    3.1464900    0.0816630  
N    -3.6648360    3.6437740   -1.1307110  
C    -4.8943060    3.0795820    0.9238450  
C    -4.7479680    2.5715340    2.1746800  
O    -5.7542020    2.4491740    3.0595320  
C    -3.4239490    2.0970850    2.6769100  
O    -3.3588870    1.6452510    3.8218030  
C    -2.2428200    2.1785170    1.7878180  
H    -5.8500240    3.4405900    0.5598840  
H    -5.3459760    2.0649160    3.8657530  
H    -1.2939650    1.8568270    2.2051760  
H    -2.0557400    3.8441310   -2.5387030  
