62


C     1.7998890    0.3061940    0.1798540  
C     3.1558890    0.5349880    0.1948920  
C     3.3265600    1.9749320    0.0756780  
C     2.0427500    2.5579520    0.0023900  
N     1.0982260    1.5027450    0.0717700  
C     1.8566060    3.9346720   -0.1414810  
C     2.9935410    4.7314970   -0.2122290  
O     2.8573920    6.0797190   -0.3461730  
C     4.2869450    4.1595700   -0.1564230  
O     5.3137100    5.0726300   -0.2560840  
C     4.4627720    2.7923700   -0.0164570  
H     0.8719480    4.3753380   -0.1966230  
H     3.7511010    6.4613630   -0.3901730  
H     6.1662310    4.6131980   -0.2283630  
H     5.4620030    2.3661080   -0.0019970  
H     1.2624620   -0.6196440    0.3053400  
C    -0.2767100    1.5731880    0.0463180  
C    -1.1740250    0.5231310    0.0585820  
C    -2.4642370    1.1401480    0.0116740  
C    -2.1710930    2.6096010   -0.0233630  
N    -0.8854400    2.8479410   -0.0008100  
C    -3.2081870    3.5973440   -0.0914710  
C    -4.4821470    3.1415600   -0.1200040  
O    -5.5601650    3.9255040   -0.1811570  
C    -4.8250160    1.6582260   -0.0517200  
O    -6.0257540    1.3993900    0.0168940  
C    -3.7481900    0.6533960   -0.0232570  
H    -0.9720420   -0.5364600    0.0431380  
H    -2.9644040    4.6531710   -0.1225410  
H    -6.3238880    3.3008130   -0.1456240  
C    -2.6694530   -2.4700990    2.9295780  
C    -3.3636570   -3.5064100    2.3627930  
C    -3.9906580   -2.9948730    1.1766850  
C    -3.6337760   -1.6249810    1.0750830  
N    -2.8365660   -1.3316110    2.1617430  
C    -4.0971720   -0.7777580    0.0420440  
C    -4.9212040   -1.3738610   -0.9175830  
O    -5.3523170   -0.6449940   -1.9842220  
C    -5.2804310   -2.7427040   -0.8304670  
O    -6.0952870   -3.1665250   -1.8645730  
C    -4.8349390   -3.5521890    0.1968030  
H    -3.4278780   -4.5152760    2.7466270  
H    -2.3844480   -0.4442520    2.3194640  
H    -5.9462080   -1.2163190   -2.5015500  
H    -6.3279470   -4.0971860   -1.7321640  
H    -5.1292550   -4.5989780    0.2410670  
H    -2.0652100   -2.4409890    3.8253460  
C     5.4446280   -0.3481990    0.8606580  
C     4.1884680   -0.4642100    0.3324540  
C     4.1065010   -1.8888880   -0.0723840  
C     5.4218250   -2.4602040    0.3244740  
N     6.1928110   -1.5506190    0.8597250  
C     5.7462760   -3.8411140    0.0916740  
C     4.8223810   -4.6158290   -0.5288790  
O     4.9920610   -5.9213120   -0.8018750  
C     3.5029340   -4.0609380   -0.9736540  
O     2.7149470   -4.8201270   -1.5368750  
C     3.1952370   -2.6347410   -0.7235880  
H     6.7089920   -4.2312410    0.4031000  
H     4.1678790   -6.2012550   -1.2568400  
H     2.2445810   -2.2660140   -1.0958210  
H     5.8923080    0.5335210    1.3011150  
