62


C     0.7021620    0.7804170   -0.4842600  
C     1.8247760    0.0112220   -0.2991730  
C     2.9556850    0.8732250   -0.4711940  
C     2.4497610    2.1724340   -0.7340520  
N     1.0707990    2.0906780   -0.7410030  
C     3.2701920    3.2885470   -0.9149970  
C     4.6388970    3.0926320   -0.8225330  
O     5.4830470    4.1445300   -1.0071990  
C     5.1769470    1.8116440   -0.5335940  
O     6.5520740    1.8107670   -0.5038450  
C     4.3631310    0.6823200   -0.3653460  
H     1.8265070   -1.0410510   -0.0581410  
H     0.4337420    2.8293410   -0.9978000  
H     2.8819830    4.2808520   -1.1192870  
H     6.3899100    3.8108230   -0.8908270  
H     6.8856660    0.9702810   -0.1503770  
C    -1.1463870   -0.7068300   -1.2024480  
C    -2.4814920   -0.8396080   -1.0231320  
C    -2.9144690    0.2346220   -0.1480780  
C    -1.6994340    1.0144340    0.1778160  
N    -0.6434440    0.3983220   -0.4961930  
C    -1.6736610    2.1157350    0.9739410  
C    -2.9331380    2.5822620    1.5355810  
O    -3.0257490    3.5874640    2.2243300  
C    -4.2327920    1.7462200    1.2488600  
O    -5.2560290    2.0548110    1.8290800  
C    -4.1510980    0.5740780    0.3301430  
H    -3.1173780   -1.5879120   -1.4715380  
H    -0.7696180    2.6662780    1.2090320  
H    -0.4607370   -1.2898610   -1.8020500  
C    -5.1866460   -3.6724630    1.1164260  
C    -6.4622910   -3.6424100    0.6183400  
C    -6.6954720   -2.3109200    0.1334390  
C    -5.5065630   -1.5706110    0.3628070  
N    -4.6038800   -2.4271050    0.9594080  
C    -5.3744290   -0.2007280    0.0437560  
C    -6.4904520    0.4064750   -0.5374790  
O    -6.4204070    1.7094450   -0.9249500  
C    -7.6814960   -0.3235130   -0.7806800  
O    -8.6791960    0.4274900   -1.3756220  
C    -7.7980140   -1.6611900   -0.4549140  
H    -7.1582320   -4.4698620    0.6009050  
H    -3.6842380   -2.1654470    1.2775630  
H    -7.3128930    1.9743530   -1.2081740  
H    -9.5056760   -0.0773390   -1.3756330  
H    -8.7240360   -2.1976670   -0.6521350  
H    -4.6328060   -4.4815640    1.5712760  
C     7.3068650   -0.9334060    2.6009380  
C     6.4562950   -0.0948100    1.9566090  
C     5.8688090   -0.8989980    0.8860080  
C     6.5066180   -2.2367000    1.0558350  
N     7.3466810   -2.2497060    2.0540040  
C     6.1874510   -3.3460060    0.1952920  
C     5.2758130   -3.1374030   -0.7806170  
O     4.8746330   -4.0804860   -1.6493670  
C     4.6194720   -1.7965750   -0.9914530  
O     3.8350370   -1.7087770   -1.9311130  
C     4.9578700   -0.6384270   -0.0946130  
H     6.2179020    0.9305290    2.2020700  
H     6.6681560   -4.3064510    0.3439400  
H     4.2420760   -3.6306560   -2.2510590  
H     7.9238420   -0.7159430    3.4648510  
