58


C     1.5541900   -0.2406560   -0.0582320  
C     2.8234990    0.2873940   -0.0369240  
C     2.6564330    1.7445800   -0.0141040  
C     1.1985120    1.9944600   -0.0309770  
N     0.5768900    0.7338210   -0.0577640  
C     0.6215870    3.2164010    0.0252460  
C     1.4950320    4.3900810    0.0843260  
O     1.0650650    5.5300910    0.1536200  
C     3.0457560    4.1529640    0.0714760  
O     3.7915680    5.1177300    0.1104470  
C     3.5425380    2.7708060    0.0289910  
H    -0.4499960    3.3765570    0.0150170  
H     4.6115150    2.5983120    0.0446270  
H     1.2554940   -1.2796490   -0.0947360  
C    -1.9314890   -1.6725860    2.6029840  
C    -0.8950190   -0.9843380    2.0475410  
C    -1.4071860   -0.3178370    0.8748690  
C    -2.8403290   -0.6703960    0.7874600  
N    -3.0902700   -1.4985080    1.8688360  
C    -3.7073150   -0.2567810   -0.1839000  
C    -3.1562200    0.6629300   -1.2037790  
O    -3.8520050    1.2357500   -2.0200090  
C    -1.6167880    0.9751970   -1.2013560  
O    -1.1413690    1.5981700   -2.1326870  
C    -0.8130110    0.4821600   -0.0682440  
H     0.1144210   -0.9359360    2.4272090  
H    -1.9428050   -2.2880240    3.4928460  
H    -3.9881610   -1.9091510    2.0728920  
C    -7.1735410    0.1280060    2.6127020  
C    -5.9374690    0.1767820    2.0455870  
C    -6.0360800   -0.4451430    0.7411570  
C    -7.4525790   -0.8617580    0.5943820  
N    -8.0793940   -0.5048490    1.7759360  
C    -7.9825300   -1.4485910   -0.5082160  
C    -7.1022360   -1.7024220   -1.6429270  
O    -7.4867310   -2.1973500   -2.6896820  
C    -5.5825840   -1.3368620   -1.4960500  
O    -4.8113260   -1.6794620   -2.3728950  
C    -5.1220700   -0.6467800   -0.2612530  
H    -5.0581450    0.6317070    2.4761270  
H    -9.0296170   -1.7209950   -0.5969190  
H    -7.4999730    0.5052550    3.5729900  
H    -9.0697670   -0.5871330    1.9463210  
C     4.0446330   -0.4711700   -0.0489140  
C     4.2179770   -1.8362650   -0.1023720  
C     5.6340560   -2.0537370   -0.0866700  
C     6.2199090   -0.6691450   -0.0174140  
N     5.2921760    0.2425220    0.0038890  
C     7.6410630   -0.4501840    0.0190000  
C     8.4395670   -1.5430400   -0.0134800  
O     9.7755560   -1.5037110    0.0134150  
C     7.8800680   -2.9541680   -0.0841580  
O     8.7052870   -3.8703420   -0.1062610  
C     6.4365250   -3.1507640   -0.1195530  
H     3.4563650   -2.6019760   -0.1576280  
H     8.0382800    0.5574550    0.0685350  
H    10.0574660   -2.4475130   -0.0232610  
H     6.0713740   -4.1716570   -0.1710670  
