60


C     1.7254900   -2.7934340    0.6313590  
C     0.7098540   -1.8707620    0.5441180  
C     1.3046940   -0.6046790    0.2315020  
C     2.6993610   -0.8281580    0.1515740  
N     2.9251480   -2.1650760    0.3981780  
C     3.6526010    0.1970480   -0.0604330  
C     3.1427190    1.4842410   -0.2166600  
O     3.9797740    2.5168000   -0.4863400  
C     1.7485660    1.7525160   -0.1578660  
O     1.4574390    3.0582760   -0.3429850  
C     0.7914700    0.7242720    0.0464860  
H    -0.3305240   -2.0861580    0.7273040  
H     3.8279040   -2.6131540    0.3572970  
H     3.4246140    3.3184110   -0.5277370  
H     0.4593280    3.1627490   -0.2399760  
H     1.6886450   -3.8525080    0.8425750  
C    -0.6147420    1.0300430    0.0327560  
C    -1.7284450    0.2117110    0.0360550  
C    -2.8698450    1.0674450    0.0116390  
C    -2.3028250    2.4530210   -0.0209380  
N    -0.9994740    2.4168380   -0.0122640  
C    -3.1240500    3.6249570   -0.0799320  
C    -4.4641570    3.4291960   -0.1066500  
O    -5.3637840    4.4102320   -0.1541080  
C    -5.0884470    2.0436480   -0.0452190  
O    -6.3152660    2.0175790    0.0419480  
C    -4.2276310    0.8492840   -0.0262030  
H    -1.7533700   -0.8635160    0.0015970  
H    -2.6809480    4.6140260   -0.1057260  
H    -6.2388760    3.9543920   -0.1274500  
C    -3.9367900   -2.7443010    2.6115490  
C    -3.7715120   -1.5176630    2.0493510  
C    -4.6209460   -1.4601660    0.8786870  
C    -5.3102820   -2.7720040    0.8101190  
N    -4.8370540   -3.5081320    1.8800090  
C    -6.2363180   -3.1220200   -0.1195780  
C    -6.5857270   -2.1452380   -1.1405380  
O    -7.4352180   -2.3415010   -1.9956140  
C    -5.8190860   -0.7750120   -1.1443060  
O    -5.9812620   -0.0223020   -2.0874720  
C    -4.8728880   -0.4692760   -0.0365280  
H    -3.1236460   -0.7331910    2.4085150  
H    -6.7442270   -4.0814820   -0.1262830  
H    -3.4770360   -3.1576100    3.4996120  
H    -5.1636010   -4.4275350    2.1328080  
C     6.3612140   -2.5295400   -2.3665990  
C     5.2453270   -1.8974860   -1.9254440  
C     5.7137090   -0.9795500   -0.8908550  
C     7.1910200   -1.2045200   -0.8551460  
N     7.5612550   -2.1118660   -1.7159170  
C     8.0516010   -0.4650450    0.0307250  
C     7.4761930    0.4466120    0.8470060  
O     8.1513690    1.1992750    1.7300760  
C     5.9853910    0.6711990    0.8708140  
O     5.5507300    1.4251370    1.7332980  
C     5.1013600   -0.0637930   -0.0936900  
H     4.2294830   -2.0119260   -2.2757960  
H     9.1204120   -0.6475780    0.0284500  
H     7.4677780    1.7219760    2.2042440  
H     6.4333950   -3.2824880   -3.1428370  
