64


C     3.7410960    1.2822830   -1.3496070  
C     2.4341050    1.5051000   -1.0099190  
C     2.1241880    0.6283250    0.0830350  
C     3.3029640   -0.1116650    0.3629770  
N     4.2877240    0.3031520   -0.5278380  
C     3.3746740   -1.0782940    1.3774640  
C     2.2217230   -1.3077280    2.1153670  
O     2.2366200   -2.2206020    3.1274170  
C     1.0300190   -0.5917360    1.8465660  
O    -0.0206150   -0.9287750    2.6816610  
C     0.9515070    0.3825240    0.8457570  
H     1.7622750    2.1965510   -1.4967810  
H     4.2896730   -1.6042280    1.6278220  
H     1.3599130   -2.1909900    3.5496130  
H    -0.6965780   -0.2303310    2.6328010  
H     4.3494500    1.7209830   -2.1271330  
C     8.2559090    2.2742300   -0.2171050  
C     6.9068710    2.0319610   -0.2168000  
C     6.7332840    0.6351530   -0.4996180  
C     8.0274730    0.0743770   -0.6609670  
N     8.9347950    1.0995580   -0.4859910  
C     8.2431690   -1.2841610   -0.9235150  
C     7.1255150   -2.0957610   -1.0347840  
O     7.2717310   -3.4273590   -1.2904550  
C     5.8157930   -1.5624220   -0.9037330  
O     4.8109190   -2.4849090   -1.0939590  
C     5.6105400   -0.2120360   -0.6355730  
H     6.1282550    2.7577820   -0.0314870  
H     9.9367640    1.0018300   -0.5303500  
H     9.2330600   -1.7151720   -1.0317760  
H     6.3775840   -3.8125900   -1.3021430  
H     3.9744580   -2.1469420   -0.7312450  
H     8.7981320    3.1932320   -0.0448390  
C    -0.2840540    1.1362790    0.6204450  
C    -0.4869810    2.4663320    0.3321720  
C    -1.9003630    2.6871010    0.2303920  
C    -2.5351770    1.4450790    0.4687890  
N    -1.5416620    0.5217180    0.7625160  
C    -3.9332970    1.2485370    0.3915000  
C    -4.6813380    2.3958760    0.0918080  
O    -6.0442760    2.3261400    0.0241480  
C    -4.0609450    3.6519990   -0.1211570  
O    -4.9577130    4.6680970   -0.3922750  
C    -2.6903160    3.8162590   -0.0558240  
H     0.2906430    3.2128250    0.2516640  
H    -1.6776850   -0.4724720    0.6223990  
H    -6.3669850    3.2281670   -0.1504440  
H    -4.4851980    5.5107640   -0.4601380  
H    -2.2387900    4.7895100   -0.2350590  
C    -4.1535250   -1.0086810    1.5403120  
C    -4.5354180   -0.0678390    0.6272290  
C    -5.6332720   -0.7314970   -0.1170060  
C    -5.7566610   -2.0707510    0.5264640  
N    -4.8945170   -2.2197420    1.4936800  
C    -6.7241910   -3.0413230    0.0839120  
C    -7.5144160   -2.7150140   -0.9660540  
O    -8.4527120   -3.5224210   -1.4894400  
C    -7.3959310   -1.3841900   -1.6519460  
O    -8.1444850   -1.1596760   -2.6021970  
C    -6.4033620   -0.3992160   -1.1692850  
H    -6.7928940   -4.0014990    0.5831670  
H    -8.8497450   -3.0124110   -2.2292650  
H    -6.3696960    0.5586500   -1.6738730  
H    -3.3802540   -0.9150300    2.2935370  
