60


C    -0.7816940   -0.5183480    2.6937520  
C    -0.0613570    0.5078970    2.1383120  
C    -0.7952200    0.9745290    0.9951700  
C    -1.9662070    0.1833530    0.9132530  
N    -1.9190200   -0.7305240    1.9428110  
C    -3.0129990    0.4048020   -0.0175500  
C    -2.8261300    1.5109150   -0.8700450  
O    -3.7220650    1.8032020   -1.8306100  
C    -1.6574970    2.3197890   -0.8046000  
O    -1.6387940    3.3122720   -1.7531450  
C    -0.6032690    2.0541840    0.0753390  
H     0.8751610    0.8936240    2.5126790  
H    -2.6954590   -1.3226810    2.1987550  
H    -3.3872230    2.6158960   -2.2620510  
H    -1.3046910    4.1280020   -1.3094810  
H    -0.5757520   -1.1248240    3.5642130  
C     3.6593150    0.7923570    0.0554040  
C     2.2898020    0.8523480    0.0101370  
C     1.8983650    2.2299860    0.1023600  
C     3.1560060    3.0033500    0.2072650  
N     4.1963190    2.0875000    0.1226950  
C     3.2312040    4.3466250    0.3755140  
C     1.9828980    5.0909590    0.3747420  
O     1.9098510    6.2949610    0.5559220  
C     0.6536260    4.3060220    0.0719790  
O    -0.3398850    4.9903620   -0.1652670  
C     0.6519010    2.8308850    0.0756000  
H     1.6273470    0.0132120   -0.1331830  
H     4.1612270    4.8892580    0.5096760  
H     5.1089500    2.2740270    0.5160280  
C     4.5254080   -0.3553050   -0.0206800  
C     4.2601000   -1.6614830    0.2947300  
C     5.4593220   -2.4251310    0.0650920  
C     6.4736390   -1.4617860   -0.4256590  
N     5.8737470   -0.2045600   -0.3961730  
C     7.7252440   -1.8012950   -0.8138840  
C     8.1269510   -3.2060250   -0.7133300  
O     9.2348050   -3.6018270   -1.0362880  
C     7.0825130   -4.2372790   -0.1509400  
O     7.4048770   -5.4099910   -0.0455340  
C     5.7514930   -3.7463670    0.2166050  
H     3.3309390   -2.0352350    0.7008420  
H     8.4543100   -1.0861110   -1.1822570  
H     5.0302150   -4.4696710    0.5843910  
H     6.1647400    0.5306510   -1.0274920  
C    -4.1919100   -0.4390900   -0.0507550  
C    -4.2764110   -1.7792570    0.2550990  
C    -5.6643040   -2.1339900    0.1005400  
C    -6.3256150   -0.8458470   -0.2921620  
N    -5.4722350    0.1299550   -0.3862240  
C    -7.7461030   -0.7688740   -0.5210840  
C    -8.4639230   -1.9092750   -0.3947790  
O    -9.7878380   -1.9949550   -0.5845860  
C    -7.8211860   -3.2271940   -0.0184800  
O    -8.5661930   -4.2050840    0.0711730  
C    -6.3792890   -3.2791930    0.2253120  
H    -3.4627700   -2.4634950    0.4538810  
H    -8.2019860    0.1760160   -0.7946570  
H   -10.0074340   -2.9407400   -0.4222260  
H    -5.9553530   -4.2396180    0.5022580  
