62


C     1.2235950    1.6118330    0.5225680  
C     0.5096160    0.4407570    0.3593600  
C     1.4975730   -0.5968070    0.1540540  
C     2.7707200    0.0236180    0.1774740  
N     2.5742100    1.3769260    0.3768510  
C     3.9832500   -0.6786380   -0.0310060  
C     3.8548460   -2.0707970   -0.1563040  
O     4.9597760   -2.8605580   -0.2307920  
C     2.5824700   -2.6972660   -0.1798330  
O     2.6468830   -4.0716450   -0.3402880  
C     1.4091870   -1.9846120   -0.0567210  
H     3.3028820    1.9275930    0.8245540  
H     4.6433170   -3.7785250   -0.3046020  
H     1.7752010   -4.4544570   -0.1622850  
H     0.4469410   -2.4868450   -0.0660630  
H     0.8657190    2.5987450    0.7836810  
C    -2.4709210    2.9392780   -1.6502130  
C    -3.6058380    2.3037840   -1.2068720  
C    -3.1854680    1.1926000   -0.3915500  
C    -1.7679060    1.2283710   -0.3653900  
N    -1.3659670    2.2954120   -1.1437440  
C    -0.9570480    0.3262570    0.3566690  
C    -1.6646200   -0.6331290    1.0831770  
O    -1.0013330   -1.5474880    1.8467020  
C    -3.0842980   -0.6998940    1.0779620  
O    -3.5797890   -1.7271180    1.8456520  
C    -3.8799460    0.1727760    0.3286050  
H    -4.6192870    2.6266140   -1.3979660  
H    -0.4000470    2.5072470   -1.3442840  
H    -1.7045210   -2.0464820    2.3085780  
H    -4.3728360   -1.3755160    2.3197110  
H    -2.3629170    3.8145500   -2.2752830  
C    -6.5066710    0.1699250   -3.1819980  
C    -7.7229730    0.0883390   -2.5835810  
C    -7.4921700    0.0118720   -1.1569130  
C    -6.0207770    0.0659660   -0.9722920  
N    -5.4855420    0.1333470   -2.2393410  
C    -5.3516450    0.0346570    0.2323960  
C    -6.2105690   -0.1809660    1.3986020  
O    -5.7832660   -0.4242780    2.5289370  
C    -7.7784760   -0.1401370    1.2438130  
O    -8.4557790   -0.1828590    2.2587570  
C    -8.3408030   -0.0809310   -0.0975240  
H    -8.6843440    0.0663460   -3.0755290  
H    -9.4210150   -0.0909730   -0.2010000  
H    -6.2610620    0.2377700   -4.2336460  
H    -4.5143530    0.3485360   -2.4180920  
C     6.0414660    2.4651210    2.3629340  
C     7.2892940    2.4313130    1.8462790  
C     7.2216980    1.4717010    0.7507240  
C     5.8044450    0.9711080    0.7755500  
N     5.1246470    1.5842300    1.7064150  
C     5.3142450   -0.0410060   -0.1513700  
C     6.1876130   -0.3698090   -1.1563420  
O     5.8806110   -1.1842240   -2.1729160  
C     7.5967920    0.1436210   -1.2262090  
O     8.2981450   -0.2340760   -2.1653150  
C     8.0878570    1.0796160   -0.2002890  
H     8.1582110    2.9973140    2.1515150  
H     6.7016680   -1.2471420   -2.7105280  
H     9.1123790    1.4280470   -0.2874180  
H     5.6734170    3.0646240    3.1869170  
