62


C     3.7510320    0.1648240    0.0026880  
C     4.3678110    1.4159610    0.0001220  
C     3.3460050    2.3978960   -0.0089380  
C     2.0974650    1.7080050   -0.0068280  
N     2.3713760    0.3666650    0.0014520  
C     0.8505540    2.3687150   -0.0395360  
C     0.9010150    3.7640560   -0.0667250  
O    -0.2530830    4.4768900   -0.0489720  
C     2.1409830    4.4672920   -0.0663690  
O     1.9897600    5.8403560   -0.0834820  
C     3.3507150    3.8109420   -0.0378620  
H     5.4350870    1.5689220    0.0005780  
H     1.6982790   -0.3858940   -0.0249040  
H    -0.0184750    5.4146120   -0.1647970  
H     2.8533240    6.2591560   -0.2143310  
H     4.2858670    4.3666200   -0.0372490  
C    -1.0390150   -0.6354520    2.6431490  
C    -0.2128910    0.2883940    2.0859560  
C    -0.8391390    0.7463760    0.8607280  
C    -2.1201320    0.0113880    0.7586190  
N    -2.1812540   -0.8067900    1.8728890  
C    -3.0477800    0.1409280   -0.2365590  
C    -2.7334680    1.1284510   -1.2844650  
O    -3.5164900    1.4410930   -2.1641460  
C    -1.3313730    1.8441390   -1.2572310  
O    -1.0168960    2.5162990   -2.2228040  
C    -0.4395900    1.6506110   -0.0878780  
H     0.7341460    0.6234080    2.4805730  
H    -0.9158630   -1.2029650    3.5562620  
H    -2.9283540   -1.4603900    2.0509800  
C    -6.4046190    0.0547330    2.6564840  
C    -7.2014070   -0.8370050    1.9892590  
C    -6.5049430   -1.2138540    0.7901720  
C    -5.2713800   -0.5136990    0.7901270  
N    -5.2249140    0.2351810    1.9522760  
C    -4.3232440   -0.6063080   -0.2522350  
C    -4.6619910   -1.4453730   -1.3162750  
O    -3.7821650   -1.6227550   -2.3385510  
C    -5.8906790   -2.1552070   -1.3291120  
O    -6.0577630   -2.9518850   -2.4474710  
C    -6.8057290   -2.0558640   -0.2981500  
H    -8.1723450   -1.1872030    2.3120940  
H    -4.5435410    0.9558640    2.1362700  
H    -4.2315150   -2.1554770   -3.0175780  
H    -6.9690200   -3.2785330   -2.4767960  
H    -7.7385900   -2.6150870   -0.3335950  
H    -6.5680930    0.5746160    3.5899960  
C     7.9610150   -1.1294970    0.0228490  
C     7.8336480   -2.4745230    0.0089570  
C     6.3955230   -2.7205570    0.0003240  
C     5.7854340   -1.3552200    0.0097750  
N     6.7069720   -0.4380820    0.0241830  
C     4.3271640   -1.1586310    0.0035550  
C     3.5854980   -2.3177470   -0.0045010  
O     2.2238350   -2.3287910   -0.0073430  
C     4.1670220   -3.6693450   -0.0118430  
O     3.3962860   -4.6404290   -0.0190460  
C     5.6348440   -3.8295380   -0.0101260  
H     8.6133130   -3.2235830    0.0049910  
H     1.9886840   -3.2847140   -0.0279980  
H     6.0240250   -4.8434880   -0.0167990  
H     8.8698410   -0.5402640    0.0324460  
