58


C    -1.7125810    2.4695170    0.2150000  
C    -2.8735560    1.7735270    0.1833910  
C    -2.5549470    0.3769870    0.0181750  
C    -1.0768570    0.3029830   -0.0379780  
N    -0.5993410    1.6276610    0.0786100  
C    -0.3683020   -0.8462600   -0.1578910  
C    -1.1044860   -2.0938240   -0.2987640  
O    -0.5482150   -3.1676520   -0.4684450  
C    -2.6684510   -2.0613800   -0.2451690  
O    -3.2458970   -3.1283870   -0.3492480  
C    -3.3621770   -0.7499180   -0.0739470  
H    -3.8726730    2.1677720    0.2608270  
H     0.7111500   -0.8669340   -0.1666740  
H    -1.5625700    3.5337640    0.3159670  
C     0.6986040    2.0944360    0.0474800  
C     1.1341640    3.3865940    0.2214400  
C     2.5566790    3.3174630    0.0703890  
C     2.8424700    1.8642990   -0.1944700  
N     1.7404030    1.1665170   -0.2063010  
C     4.1839010    1.3431540   -0.4005270  
C     5.1716400    2.2897420   -0.3831350  
O     6.4613290    2.0208500   -0.6114730  
C     4.9187140    3.7574050   -0.1154270  
O     5.9102560    4.4917600   -0.1262290  
C     3.5612660    4.2287430    0.1166350  
H     0.5597380    4.2752170    0.4344780  
H     6.9195380    2.8915310   -0.5258220  
H     3.4183510    5.2877810    0.3038540  
C     3.5617350   -0.9276520   -1.2939790  
C     4.4016850   -0.0917720   -0.6059570  
C     5.4776360   -0.9364410   -0.0834500  
C     5.1850980   -2.3157530   -0.5501790  
N     4.0226710   -2.2288580   -1.2938280  
C     5.9339440   -3.4100830   -0.2651850  
C     7.1180020   -3.2410850    0.5714040  
O     7.8567930   -4.1638600    0.8787420  
C     7.4379070   -1.7973970    1.1002410  
O     8.4137750   -1.6318690    1.8152860  
C     6.5491870   -0.6949010    0.7162530  
H     5.6904040   -4.4069690   -0.6196390  
H     6.7995190    0.2924580    1.0824680  
H     2.6441140   -0.6791090   -1.8059670  
H     3.5173810   -3.0183360   -1.6670290  
C    -4.8044210   -0.7138370   -0.0132070  
C    -5.6986900   -1.7578760   -0.0841720  
C    -7.0077850   -1.1696030    0.0282130  
C    -6.7483480    0.2984490    0.1673750  
N    -5.4767290    0.5603030    0.1433730  
C    -7.8236040    1.2459670    0.3067620  
C    -9.0875780    0.7602510    0.3081960  
O   -10.1848710    1.5157200    0.4290840  
C    -9.3824190   -0.7195770    0.1695530  
O   -10.5668510   -1.0541520    0.1829270  
C    -8.2702970   -1.6630440    0.0289170  
H    -5.4661340   -2.8029630   -0.1998570  
H    -7.6132470    2.3050130    0.4062250  
H   -10.9390150    0.8835660    0.3954000  
H    -8.5149500   -2.7161240   -0.0682780  
