62


C     1.9365980   -0.6112920   -0.3778390  
C     2.8375950    0.4251490   -0.2364270  
C     2.0787170    1.6568970   -0.3752270  
C     0.7297940    1.2976360   -0.5938760  
N     0.6630400   -0.1155940   -0.5805650  
C    -0.2754090    2.2376790   -0.8323130  
C     0.0879130    3.5790140   -0.8133700  
O    -0.8558500    4.5345180   -1.0386600  
C     1.4298570    3.9611200   -0.5740360  
O     1.6344360    5.3222590   -0.5871530  
C     2.4228390    3.0181310   -0.3632900  
H    -1.3066980    1.9817260   -1.0466660  
H    -0.4102170    5.3988060   -0.9985090  
H     2.5709010    5.5191860   -0.4355290  
H     3.4482480    3.3385260   -0.2064240  
H     2.1172810   -1.6714580   -0.3026330  
C    -0.4422370   -0.9285140   -0.7773800  
C    -0.4930370   -2.1726190   -1.3436950  
C    -1.8511320   -2.6320970   -1.2373960  
C    -2.6090390   -1.5489070   -0.5653400  
N    -1.7043010   -0.5281100   -0.3445670  
C    -3.9346840   -1.5877530   -0.2090440  
C    -4.5986070   -2.8689960   -0.4770950  
O    -5.7108030   -3.1606490   -0.0370180  
C    -3.8745630   -3.9627370   -1.3455180  
O    -4.5243750   -4.9345960   -1.7005860  
C    -2.4638060   -3.7803790   -1.6419630  
H     0.3259210   -2.6911080   -1.8190530  
H    -1.9466050   -4.5689000   -2.1786330  
H    -1.8966800    0.2666830    0.2483120  
C    -4.1237560    2.7677670   -1.2965110  
C    -3.9177190    1.4100010   -1.3108540  
C    -4.4967550    0.8749320   -0.1063070  
C    -5.0629140    1.9741330    0.5925070  
N    -4.8059980    3.1107180   -0.1484980  
C    -5.7746120    1.8343610    1.7885900  
C    -5.9378430    0.5464670    2.2720170  
O    -6.6399580    0.3272960    3.4153550  
C    -5.3799400   -0.5767420    1.6004000  
O    -5.6162520   -1.7707570    2.2358940  
C    -4.6207540   -0.4409850    0.4337830  
H    -3.4427590    0.8558850   -2.1076480  
H    -5.0954900    4.0434620    0.1004650  
H    -6.2158090    2.6733430    2.3168700  
H    -6.6561220   -0.6428440    3.5298790  
H    -5.8235860   -2.4340680    1.5343730  
H    -3.8305110    3.5239540   -2.0103710  
C     4.2293460    0.1989580    0.0161510  
C     5.2659290    1.0738410    0.2266140  
C     6.4351820    0.2611150    0.4240090  
C     5.9298720   -1.1487160    0.3007690  
N     4.6521160   -1.1822620    0.0658250  
C     6.8112650   -2.2789360    0.4385720  
C     8.1178730   -2.0251120    0.6849790  
O     9.0551820   -2.9679050    0.8368060  
C     8.6572940   -0.6134000    0.8156040  
O     9.8649640   -0.5040610    1.0407220  
C     7.7457580    0.5161810    0.6725190  
H     5.2358550    2.1528630    0.2523770  
H     6.4253120   -3.2879170    0.3457680  
H     9.8894390   -2.4700070    1.0020640  
H     8.1646080    1.5126020    0.7729310  
