58


C     4.1316570    1.1097890   -0.1132470  
C     4.6488050    2.3819780   -0.1477390  
C     3.5494060    3.3005670   -0.0293190  
C     2.3208690    2.4703280    0.0818300  
N     2.7426290    1.1676770    0.0246010  
C     1.0502090    2.9764890    0.1737960  
C     0.9157470    4.4466910    0.2403900  
O    -0.1494710    4.9978790    0.4562460  
C     2.2011800    5.3317250    0.0849020  
O     2.0814510    6.5463530    0.0681340  
C     3.4959120    4.6624380   -0.0279390  
H     5.6911320    2.6470900   -0.2495210  
H     4.3808250    5.2839560   -0.1246180  
H     2.1743150    0.3339410    0.0927600  
C    -0.4241100   -0.4183520    2.6943420  
C     0.3579160    0.5675710    2.1940240  
C    -0.4044750    1.1325110    1.0906570  
C    -1.6769110    0.3410850    1.0739740  
N    -1.6666970   -0.5606790    2.0161100  
C    -2.7652430    0.5982230    0.1273140  
C    -2.5279780    1.6315030   -0.7563840  
O    -3.3635850    2.0447150   -1.7028320  
C    -1.2280230    2.4055700   -0.7824720  
O    -1.0845830    3.2011700   -1.7050590  
C    -0.1635570    2.1527900    0.2284640  
H     1.3251410    0.8954880    2.5463630  
H    -2.8760300    2.7574540   -2.1804350  
H    -0.2163520   -1.0750490    3.5308280  
C    -3.9811890   -0.1926530    0.1514280  
C    -4.3158310   -1.2125710    1.0070300  
C    -5.6275840   -1.6542460    0.5986660  
C    -5.9694560   -0.7748190   -0.5646130  
N    -5.0196430    0.0684360   -0.8244140  
C    -7.2227960   -0.9063530   -1.2670200  
C    -8.0855730   -1.8556100   -0.8371120  
O    -9.2856660   -2.0950700   -1.3882980  
C    -7.7676340   -2.7573680    0.3339390  
O    -8.6194060   -3.5911890    0.6462010  
C    -6.4869800   -2.6065240    1.0327040  
H    -3.7165280   -1.5966920    1.8158500  
H    -7.4468370   -0.2570660   -2.1060260  
H    -9.6655070   -2.8322680   -0.8588710  
H    -6.2930750   -3.2722250    1.8681800  
C     4.7649220   -0.1805900   -0.1920810  
C     6.0863430   -0.5028810   -0.3358010  
C     6.1263840   -1.9476830   -0.3527420  
C     4.6914830   -2.3640210   -0.2027760  
N     3.9059360   -1.3304380   -0.1098230  
C     4.3051560   -3.7491440   -0.1732230  
C     5.2866570   -4.6759310   -0.2863230  
O     5.0775360   -5.9957070   -0.2750410  
C     6.7430510   -4.2886790   -0.4389370  
O     7.5603400   -5.2010810   -0.5340050  
C     7.1133600   -2.8659320   -0.4664810  
H     6.9305480    0.1666630   -0.4218270  
H     3.2620020   -4.0236570   -0.0645560  
H     5.9651540   -6.4077500   -0.3743570  
H     8.1663860   -2.6268180   -0.5773580  
