58


C     0.6826330    1.6462430   -0.1069640  
C    -0.5794010    1.0770530   -0.0744980  
C    -0.4279700   -0.3366920   -0.0297930  
C     1.0305490   -0.5908190   -0.0329600  
N     1.6434830    0.6375250   -0.1270310  
C     1.6184840   -1.8334800    0.0255760  
C     0.6815690   -2.9455620    0.3211040  
O     1.0496620   -4.0218140    0.7562980  
C    -0.8458180   -2.7386750    0.0774880  
O    -1.5201710   -3.7334720   -0.1109080  
C    -1.3747230   -1.3560620    0.0125970  
H    -1.4974490    1.6371960   -0.0572380  
H     2.6053820    0.7565970    0.1941820  
C    -1.8518330    5.2572950   -0.0775300  
C    -0.9276880    6.2424040   -0.0965090  
C     0.3586300    5.5580110   -0.1213570  
C     0.0049560    4.1003690   -0.1100010  
N    -1.2837950    3.9412850   -0.0875140  
C     1.0349530    3.0528240   -0.1277940  
C     2.3300640    3.5116300   -0.1661160  
O     3.4094380    2.7139380   -0.1924590  
C     2.6951320    4.9641610   -0.1796610  
O     3.8969970    5.2396630   -0.2116630  
C     1.6366920    5.9805350   -0.1548720  
H    -1.0849380    7.3118400   -0.0951490  
H     4.1789130    3.3315010   -0.2162780  
H     1.9414290    7.0224990   -0.1667070  
H    -2.9308060    5.3473240   -0.0560800  
C     5.2977090    0.0931010    1.6655460  
C     6.2442210   -0.8147680    1.3406880  
C     5.5433610   -1.8435680    0.5817500  
C     4.1120300   -1.3874680    0.5680640  
N     3.9922720   -0.2487690    1.1920210  
C     3.0523260   -2.1495050   -0.0752300  
C     3.4776270   -3.2505040   -0.7776490  
O     2.6693340   -4.0020130   -1.5256570  
C     4.9073240   -3.7177830   -0.7966550  
O     5.1664270   -4.7273670   -1.4488950  
C     5.9329000   -2.9599380   -0.0598370  
H     7.2993940   -0.7970950    1.5746200  
H     3.2262400   -4.7352410   -1.8718770  
H     6.9526050   -3.3306500   -0.0945580  
H     5.4144310    1.0134900    2.2246550  
C    -2.7960760   -1.1303460   -0.0551260  
C    -3.4803670   -0.1150960   -0.6889890  
C    -4.8752860   -0.3604400   -0.4377070  
C    -4.8826680   -1.5930730    0.4141190  
N    -3.6837360   -2.0422850    0.6296180  
C    -6.1149120   -2.1562170    0.9074360  
C    -7.2702060   -1.5467690    0.5528550  
O    -8.4903700   -1.9611640    0.9268510  
C    -7.2940600   -0.3126880   -0.3190770  
O    -8.3999770    0.1677140   -0.5801570  
C    -6.0315780    0.2522970   -0.7969070  
H    -3.0721150    0.6645700   -1.3151490  
H    -6.0951940   -3.0450490    1.5280360  
H    -9.1123500   -1.3201100    0.5136010  
H    -6.0852690    1.1461080   -1.4109410  
