62


C    -1.8460940    2.0472270   -2.6495520  
C    -0.6975680    1.6037680   -2.0488120  
C    -1.0949620    0.8250500   -0.9109460  
C    -2.5102770    0.8382120   -0.8674110  
N    -2.9397170    1.5986240   -1.9312320  
C    -3.2814550    0.1159590    0.0820670  
C    -2.5391410   -0.6255830    1.0218220  
O    -3.1565580   -1.2791790    2.0315310  
C    -1.1205320   -0.6423820    0.9859250  
O    -0.5568360   -1.3941750    1.9971940  
C    -0.3717270    0.0623220    0.0432710  
H     0.3139840    1.8068040   -2.3683160  
H    -3.9051830    1.6743530   -2.2142490  
H    -2.4561290   -1.6752260    2.5819600  
H     0.3946550   -1.1954450    2.0430410  
H    -1.9834040    2.6615460   -3.5280410  
C     2.7902450    3.2046680    0.6588440  
C     1.5977970    2.5490500    0.5039450  
C     1.9114290    1.1709220    0.2513640  
C     3.3269650    1.0622470    0.2489190  
N     3.8393870    2.3243970    0.4664540  
C     4.0156200   -0.1527040    0.0192350  
C     3.2033280   -1.2886430   -0.0999600  
O     3.7626340   -2.5227880   -0.2256060  
C     1.7884270   -1.1979320   -0.0820110  
O     1.1599100   -2.4157840   -0.2521720  
C     1.1126290    0.0127430    0.0693180  
H     0.6115100    2.9868940    0.5547450  
H     4.7636650    2.4346350    0.8715590  
H     3.0337280   -3.1482680   -0.3865010  
H     0.2122160   -2.2663480   -0.4090300  
H     2.9864740    4.2438980    0.8835480  
C    -4.7309790    0.1547410    0.0717920  
C    -5.5473710    1.1928570   -0.3178360  
C    -6.8963720    0.7086400   -0.1849580  
C    -6.7287350   -0.7050220    0.2908100  
N    -5.4778910   -1.0205290    0.4473770  
C    -7.8655970   -1.5589700    0.5262800  
C    -9.0960570   -1.0318720    0.3285610  
O   -10.2448190   -1.6977710    0.5138460  
C    -9.2962570    0.3970150   -0.1320230  
O   -10.4616080    0.7731440   -0.2814170  
C    -8.1294710    1.2402450   -0.3803750  
H    -5.2553970    2.2056450   -0.5598430  
H    -7.7186130   -2.5799720    0.8602740  
H   -10.9503170   -1.0477610    0.2908330  
H    -8.3110530    2.2560690   -0.7179330  
C     7.4296940    1.4451060    2.3832130  
C     8.4833180    0.8331600    1.7993620  
C     7.9171190    0.0784950    0.6878190  
C     6.4381400    0.3328800    0.7766860  
N     6.1755590    1.1525780    1.7578490  
C     5.4837210   -0.2656490   -0.1461840  
C     6.0442550   -0.9477280   -1.1941310  
O     5.3419880   -1.4700350   -2.2048570  
C     7.5232650   -1.1895620   -1.3241310  
O     7.9121900   -1.8301930   -2.3000840  
C     8.4459600   -0.6514350   -0.3104270  
H     9.5281740    0.8904300    2.0704750  
H     6.0062020   -1.9068540   -2.7841720  
H     9.5056550   -0.8476070   -0.4412040  
H     7.4313780    2.1090200    3.2394030  
