58


C     1.9344470   -0.4699130   -0.0022430  
C     1.0342880    0.5559470   -0.0997530  
C     1.8129690    1.7922230   -0.0793990  
C     3.2368020    1.3858120    0.0068460  
N     3.2465800   -0.0132650    0.0692740  
C     4.2833990    2.2449470   -0.0139450  
C     4.0063870    3.6803010   -0.0574090  
O     4.8901310    4.5228920   -0.0822540  
C     2.5085800    4.1377550   -0.0560310  
O     2.2525220    5.3321810   -0.0439030  
C     1.4686290    3.1065240   -0.0827920  
H     5.3176530    1.9308140    0.0319490  
H     0.4414510    3.4403990   -0.1440430  
H     1.7362530   -1.5273360    0.0392160  
C    -1.4452110   -2.4760600    1.8227970  
C    -2.6966780   -2.1147870    1.4563320  
C    -2.5235540   -0.9287890    0.6255290  
C    -1.0455840   -0.7131400    0.5996400  
N    -0.4278340   -1.6201990    1.3027240  
C    -0.4174310    0.3776730   -0.1439590  
C    -1.2776960    1.1586590   -0.8641390  
O    -0.8807650    2.1722970   -1.6550250  
C    -2.7623850    0.9863780   -0.8358010  
O    -3.4373700    1.8206690   -1.4343390  
C    -3.3802410   -0.1394190   -0.0678790  
H    -3.6320300   -2.5943840    1.7056850  
H    -1.7107790    2.5643000   -2.0089880  
H    -1.1453580   -3.3156980    2.4384360  
C    -6.5642470   -0.1869490    3.0553340  
C    -5.3719110   -0.1419860    2.4030390  
C    -5.6469130   -0.2910630    0.9915070  
C    -7.1217300   -0.4224270    0.8736800  
N    -7.6131750   -0.3659720    2.1644260  
C    -7.8015980   -0.5486640   -0.2936930  
C    -7.0401280   -0.5607600   -1.5370980  
O    -7.5593920   -0.6417120   -2.6384040  
C    -5.4756240   -0.4775960   -1.4468290  
O    -4.8222740   -0.6226850   -2.4643160  
C    -4.8417990   -0.2878520   -0.1181370  
H    -4.4005760   -0.0199370    2.8570780  
H    -8.8831610   -0.6228240   -0.3512090  
H    -6.7663250   -0.1063180    4.1152870  
H    -8.5911700   -0.3781650    2.4082020  
C     4.1527660   -3.4903860   -2.3300740  
C     5.3687250   -3.8430310   -1.8558030  
C     5.6685350   -2.8731020   -0.8059180  
C     4.4707680   -1.9799860   -0.7917620  
N     3.5921860   -2.3421780   -1.6764490  
C     4.3726450   -0.8541560    0.1271430  
C     5.4019600   -0.6743660    1.0058300  
O     5.4278490    0.2874400    1.9420160  
C     6.6109070   -1.5543310    0.9956510  
O     7.4888260   -1.3195100    1.8265330  
C     6.6994350   -2.6738410    0.0361880  
H     6.0021100   -4.6586560   -2.1754460  
H     6.2876990    0.1711600    2.4063050  
H     7.5954510   -3.2858380    0.0719150  
H     3.5771980   -3.9604790   -3.1177690  
