64


C     0.1934750    2.0941240   -0.0520680  
C    -1.0797280    1.5777800   -0.2531660  
C    -0.9592640    0.1585140   -0.3714740  
C     0.4139350   -0.1546030   -0.2176100  
N     1.0801900    1.0295120   -0.0379100  
C     0.9368170   -1.4748340   -0.2732790  
C    -0.0193900   -2.4863230   -0.5011020  
O     0.3434490   -3.7893090   -0.5332170  
C    -1.3958160   -2.1792670   -0.6455830  
O    -2.1806450   -3.2977680   -0.8598950  
C    -1.9022860   -0.8829280   -0.5831810  
H    -2.0072230    2.1296420   -0.2138270  
H     2.0743680    1.1360760    0.0980410  
H    -0.4613650   -4.2994480   -0.7377230  
H    -3.0853060   -3.0144660   -1.0742360  
C    -1.6577340    5.8921400   -1.3163350  
C    -0.7368910    6.7424210   -0.7649100  
C     0.2651080    5.9282420   -0.1363010  
C    -0.1162020    4.5758430   -0.3293890  
N    -1.3023430    4.5851330   -1.0354900  
C     0.6433520    3.4725810    0.1306520  
C     1.8474900    3.8052790    0.7651920  
O     2.6893940    2.8164270    1.2180710  
C     2.2372860    5.1504650    0.9707040  
O     3.4459420    5.2765940    1.6333460  
C     1.4641380    6.2127240    0.5446840  
H    -0.7645580    7.8228010   -0.8007350  
H    -1.7026330    3.7639380   -1.4617220  
H     3.4524300    3.2620320    1.6270030  
H     3.6594020    6.2146630    1.7430350  
H     1.7865320    7.2376360    0.7152360  
H    -2.5548520    6.1055490   -1.8803840  
C     2.3500170   -1.7419390   -0.0989880  
C     3.2596730   -1.0342530    0.6558470  
C     4.5292070   -1.6776830    0.4556250  
C     4.2246110   -2.7938960   -0.5006450  
N     2.9646870   -2.8371990   -0.8127020  
C     5.2587800   -3.6781280   -0.9777000  
C     6.5134860   -3.4822200   -0.5113650  
O     7.5761690   -4.2257000   -0.8544760  
C     6.8467090   -2.3762560    0.4686270  
O     8.0260080   -2.2907220    0.8248580  
C     5.7883640   -1.4832800    0.9264850  
H     3.0622130   -0.2213430    1.3408910  
H     5.0164060   -4.4712240   -1.6762520  
H     8.3259600   -3.8324270   -0.3506500  
H     6.0648660   -0.6964380    1.6216280  
C    -3.9017720    0.3013530   -1.6126320  
C    -3.3409920   -0.6231360   -0.7547720  
C    -4.4528360   -1.2770910   -0.0890050  
C    -5.6454970   -0.7013730   -0.5971340  
N    -5.2752600    0.2556880   -1.5212230  
C    -6.9192940   -1.0821010   -0.1576410  
C    -6.9920920   -2.0624240    0.8192580  
O    -8.2068690   -2.4735780    1.2805310  
C    -5.8084790   -2.6416080    1.3523570  
O    -6.0459920   -3.5935690    2.3232190  
C    -4.5523590   -2.2628090    0.9178250  
H    -5.9128640    0.8179160   -2.0631720  
H    -7.8324300   -0.6409000   -0.5438710  
H    -8.0439290   -3.1465000    1.9641170  
H    -5.2032300   -3.9258600    2.6667450  
H    -3.6614840   -2.7125520    1.3487010  
H    -3.4137780    0.9680900   -2.3089020  
