62


C    -1.4003530    0.1162370    1.7530470  
C    -2.7455240    0.2146810    1.5511920  
C    -2.9941790   -0.0450850    0.1601130  
C    -1.7357020   -0.2989670   -0.4402640  
N    -0.7584590   -0.1909540    0.5513810  
C    -1.5923470   -0.6712550   -1.7795150  
C    -2.7517150   -0.7949860   -2.5271990  
O    -2.6838940   -1.1632490   -3.8361000  
C    -4.0271830   -0.5558710   -1.9556300  
O    -5.0721650   -0.6925560   -2.8455720  
C    -4.1790440   -0.1508830   -0.6213090  
H    -3.4741320    0.4791420    2.3020380  
H    -0.6311270   -0.8571150   -2.2418430  
H    -3.6080590   -1.1891220   -4.1484660  
H    -5.7593670   -1.2517780   -2.4258200  
H    -0.8120980    0.2822200    2.6434910  
C     2.0339980   -2.6257900    2.8853400  
C     0.9136030   -2.0552590    2.3661160  
C     1.3302770   -1.2173220    1.2636190  
C     2.7952280   -1.3532650    1.1706070  
N     3.1569640   -2.2464360    2.1668460  
C     3.6242600   -0.7294480    0.2709600  
C     2.9471760    0.1678240   -0.6783720  
O     3.5232400    0.7648340   -1.5740620  
C     1.3855800    0.3855050   -0.5715680  
O     0.8795590    1.2256880   -1.2947090  
C     0.6245940   -0.4018880    0.4128220  
H    -0.1008960   -2.2099670    2.7000740  
H     2.1315010   -3.3100980    3.7178610  
H     4.1168810   -2.3831460    2.4491690  
C     5.6806140   -2.1979740    0.3953630  
C     5.0686160   -0.9672320    0.2118490  
C     6.1421860   -0.0165700   -0.0103740  
C     7.3605310   -0.7358500    0.0636370  
N     7.0462950   -2.0594800    0.3106840  
C     8.6162650   -0.1325890   -0.0828360  
C     8.6415980    1.2327350   -0.3141840  
O     9.8319170    1.8768780   -0.4775700  
C     7.4307810    1.9729250   -0.3894310  
O     7.6175620    3.3215640   -0.6272820  
C     6.1967950    1.3732810   -0.2368030  
H     7.7090320   -2.8186380    0.3372700  
H     9.5468710   -0.6883560   -0.0304350  
H     9.6268370    2.8094690   -0.6659670  
H     6.7651550    3.7309220   -0.8390430  
H     5.2873900    1.9573980   -0.3297440  
H     5.2340830   -3.1761340    0.5085060  
C    -5.7068670    3.3340830    1.6343760  
C    -6.9974170    2.9963790    1.8480480  
C    -7.1566530    1.6885060    1.2170870  
C    -5.7966880    1.3748570    0.6704480  
N    -4.9646610    2.3419810    0.9114540  
C    -5.5165490    0.1357980   -0.0657220  
C    -6.6007500   -0.6729200   -0.2446690  
O    -6.5463770   -1.8527790   -0.9292490  
C    -7.9597250   -0.3884140    0.2852740  
O    -8.8472370   -1.2201220    0.0721600  
C    -8.1964660    0.8532240    1.0437630  
H    -7.7668870    3.5633510    2.3535130  
H    -7.4631470   -2.2116430   -0.8735920  
H    -9.2031760    1.0314710    1.4094940  
H    -5.1903120    4.2373830    1.9352940  
