60


C    -0.7237360    0.6031150    0.0326050  
C    -0.5228630    1.9210480    0.4503960  
C    -1.7737810    2.5849450    0.4135470  
C    -2.7407640    1.6337850   -0.0264310  
N    -2.0772200    0.4560370   -0.2500140  
C    -4.1119210    1.9389220   -0.1986960  
C    -4.4649330    3.2692950    0.0590960  
O    -5.7534450    3.6722780   -0.0982910  
C    -3.5088500    4.2281600    0.5058890  
O    -4.0560730    5.4757130    0.7270510  
C    -2.1833520    3.9085070    0.6927170  
H     0.4113690    2.3370140    0.7940950  
H    -2.4710610   -0.4259850   -0.5463990  
H    -5.8029050    4.6019320    0.1882410  
H    -3.3858250    6.0663510    1.1015280  
H    -1.4711930    4.6578290    1.0306500  
C     3.7685350    0.2175420   -0.0541790  
C     2.4970470    0.7555500   -0.0792690  
C     1.5939810   -0.3536240   -0.0767470  
C     2.4871720   -1.5426000   -0.0563830  
N     3.7487950   -1.2098170   -0.0307020  
C     1.9837590   -2.8927010   -0.0755600  
C     0.6465350   -3.0546200   -0.1563950  
O     0.0342250   -4.2474920   -0.2198720  
C    -0.2963680   -1.8779290   -0.2036110  
O    -1.4934140   -2.1633160   -0.3424990  
C     0.2151540   -0.4882800   -0.0841550  
H     2.2367880    1.8008120   -0.1484610  
H     2.6695340   -3.7319570   -0.0498850  
H    -0.9251000   -4.0485990   -0.2859760  
C     5.2404410    2.2506240   -0.0843110  
C     5.0406020    0.8896580   -0.0621340  
C     6.3805000    0.2848740   -0.0513870  
C     7.3452570    1.4100030   -0.0700120  
N     6.5810980    2.5653320   -0.0898070  
C     8.6955070    1.2843240   -0.0672210  
C     9.2609500   -0.0619940   -0.0436080  
O    10.4623360   -0.2808950   -0.0387870  
C     8.2608650   -1.2740180   -0.0234880  
O     8.7101640   -2.4078650   -0.0033990  
C     6.8153420   -0.9997570   -0.0294590  
H     9.3757560    2.1304530   -0.0815140  
H     6.1248230   -1.8340180   -0.0157250  
H     4.5025810    3.0416260   -0.0964280  
H     6.9564540    3.5015280   -0.1048830  
C    -6.1358650    1.0965600   -1.5024290  
C    -5.1072300    0.9481190   -0.6207840  
C    -5.2617230   -0.4374310   -0.1262920  
C    -6.4385170   -0.9673820   -0.8817490  
N    -6.9395080   -0.0655090   -1.6770320  
C    -6.9215930   -2.3097950   -0.6886060  
C    -6.2998700   -3.0821150    0.2338080  
O    -6.6468280   -4.3480260    0.5196940  
C    -5.1433860   -2.5640100    1.0419720  
O    -4.6349580   -3.3204100    1.8671560  
C    -4.6597940   -1.1838760    0.8203240  
H    -7.7682870   -2.6664240   -1.2646400  
H    -6.0267050   -4.6357250    1.2250950  
H    -3.8278110   -0.8548450    1.4339080  
H    -6.3892480    1.9884340   -2.0598270  
