58


C     0.2402680    1.6173700    0.0879580  
C    -1.0418520    1.1452850    0.1345980  
C    -0.9273730   -0.2960250    0.0985290  
C     0.5484500   -0.5474910    0.0150740  
N     1.2177030    0.5672060    0.0092700  
C     1.1038840   -1.8881770   -0.0537010  
C     0.1990050   -2.9079680    0.0342690  
O     0.5489200   -4.1972230    0.0537630  
C    -1.2846840   -2.6903260    0.1191200  
O    -2.0035270   -3.6857310    0.1135030  
C    -1.8325160   -1.3068270    0.1593740  
H    -1.9522010    1.7168630    0.2383030  
H    -0.2921920   -4.7053490    0.0603690  
C    -1.2496070    5.3942730   -1.7604550  
C    -1.1464430    4.0879410   -1.4063240  
C     0.0267920    4.0184490   -0.5502970  
C     0.5284500    5.4309580   -0.5144450  
N    -0.2230650    6.2270360   -1.2207930  
C     1.7128670    5.7970090    0.2130480  
C     2.3694740    4.8185050    0.8776510  
O     3.4766680    5.0199250    1.6082060  
C     1.8805570    3.3914770    0.8967640  
O     2.4867210    2.6115990    1.6242400  
C     0.6725110    3.0081530    0.1007270  
H    -1.7866280    3.2689180   -1.6988430  
H     2.0495070    6.8276920    0.2205490  
H     3.6900870    4.1457710    2.0029190  
H    -2.0004930    5.8506410   -2.3947720  
C    -4.9339940    0.7272020   -2.3510140  
C    -3.7354510    0.2753530   -1.9082000  
C    -4.0340360   -0.4348810   -0.6702090  
C    -5.5219710   -0.3064500   -0.5291880  
N    -6.0376260    0.3763900   -1.5105320  
C    -6.2338030   -0.9016850    0.5702700  
C    -5.5161980   -1.5936860    1.4856630  
O    -6.0478880   -2.1897570    2.5628130  
C    -4.0194840   -1.7264700    1.3903890  
O    -3.4416160   -2.2933940    2.3116370  
C    -3.2919380   -1.1283950    0.2299330  
H    -2.7655770    0.3886800   -2.3705160  
H    -7.3095990   -0.7891720    0.6447030  
H    -5.2921990   -2.5843270    3.0503570  
H    -5.1363390    1.2980370   -3.2496450  
C     4.8581360   -0.6246960    2.0375850  
C     3.5636940   -0.7789990    1.6595770  
C     3.5521040   -1.6367280    0.4955550  
C     4.9744940   -1.9768420    0.2251000  
N     5.7116310   -1.3331960    1.1970550  
C     5.4103050   -2.7841570   -0.7756610  
C     4.4197090   -3.3595560   -1.6707900  
O     4.7002100   -4.1156500   -2.5882930  
C     2.9109770   -2.9816280   -1.4468400  
O     2.0955370   -3.3609340   -2.2686300  
C     2.5389690   -2.1463240   -0.2744170  
H     2.7098360   -0.2981480    2.1075800  
H     6.4556200   -3.0329230   -0.9310380  
H     5.2673300   -0.0470270    2.8557130  
H     6.7143630   -1.3803700    1.2835530  
