60


C     0.3947920    1.0549000   -0.1644270  
C     1.4605980    0.2084200    0.0716660  
C     2.6063310    0.7426120   -0.5939040  
C     2.1842900    1.9470020   -1.2187080  
N     0.8457460    2.1250070   -0.9284400  
C     3.0419090    2.7746740   -1.9455250  
C     4.3717680    2.3893840   -2.0084070  
O     5.2731490    3.1516150   -2.6771170  
C     4.8373780    1.2035510   -1.3728300  
O     6.1829830    0.9891590   -1.5432050  
C     3.9743040    0.3411890   -0.6879580  
H     1.4191930   -0.6762770    0.6883570  
H     0.2447410    2.7902090   -1.3908410  
H     2.7176930    3.6944400   -2.4210990  
H     6.1332300    2.7039480   -2.5508340  
H     6.5555640    0.7406310   -0.6557670  
C    -1.6891720   -0.2139710    0.4195220  
C    -0.9890120    0.9428150    0.2586700  
C    -1.8930350    2.0371670    0.6330690  
C    -3.1833760    1.4198270    1.0139220  
N    -2.9842320    0.0447810    0.9056910  
C    -4.2911570    2.0972230    1.3960490  
C    -4.2142980    3.5567340    1.4674460  
O    -5.1561710    4.2571650    1.7994190  
C    -2.8445700    4.2388100    1.1120560  
O    -2.7474500    5.4520260    1.1831710  
C    -1.7225410    3.3818180    0.7010560  
H    -5.2253120    1.6130070    1.6600010  
H    -0.7793200    3.8691580    0.4766970  
H    -1.3908450   -1.2355260    0.2299680  
C    -4.2771770   -1.5551520    2.2418620  
C    -5.2782770   -2.4430580    2.0457100  
C    -5.6549160   -2.3851320    0.6438730  
C    -4.7806820   -1.3696540    0.0124160  
N    -3.9617060   -0.8965260    1.0400500  
C    -4.8089330   -1.0191000   -1.2941430  
C    -5.7787800   -1.6916470   -2.1619460  
O    -5.8800990   -1.4508430   -3.3531470  
C    -6.7238230   -2.7719790   -1.5188590  
O    -7.5374590   -3.3429730   -2.2255260  
C    -6.5851010   -3.0542140   -0.0845340  
H    -5.7224480   -3.0813600    2.7958070  
H    -4.1555280   -0.2706070   -1.7294860  
H    -7.2422640   -3.8027600    0.3475580  
H    -3.7262230   -1.2968810    3.1359860  
C     7.5336920   -0.6171120    1.7701250  
C     7.2845430   -1.8899300    2.1482900  
C     6.0442610   -2.2563610    1.4751130  
C     5.6433790   -1.0221400    0.7247470  
N     6.5357060   -0.0837400    0.8956920  
C     4.4334370   -0.9312060   -0.0810200  
C     3.7517790   -2.1138160   -0.2100200  
O     2.6550210   -2.2675400   -0.9685660  
C     4.1462990   -3.3777650    0.4990460  
O     3.4503010   -4.3765950    0.3114080  
C     5.3327270   -3.3934100    1.3722730  
H     7.8743990   -2.5227430    2.7962420  
H     2.4136890   -3.2174950   -0.8774670  
H     5.5832080   -4.3287200    1.8629530  
H     8.3696060    0.0153310    2.0417290  
