60


C    -1.7836860    2.7092240    0.6894850  
C    -2.9851920    2.0893420    0.5765290  
C    -2.7537010    0.7484160    0.0967500  
C    -1.3555380    0.5975690   -0.0539220  
N    -0.7559320    1.8339630    0.3051510  
C    -0.7697830   -0.6036890   -0.4512840  
C    -1.6278160   -1.6733780   -0.6777870  
O    -1.1181100   -2.8755030   -1.0483660  
C    -3.0308900   -1.5560240   -0.5245810  
O    -3.7164250   -2.7126490   -0.7879140  
C    -3.6287780   -0.3358170   -0.1727760  
H    -3.9386630    2.5378940    0.8088380  
H     0.2981800   -0.7254570   -0.5541250  
H    -1.8851040   -3.4781220   -1.1065690  
H    -4.3905480   -2.8283920   -0.0664600  
H    -1.5477490    3.7118020    1.0078490  
C     0.5642800    2.1895880    0.3072410  
C     1.1214970    3.3973350    0.6832970  
C     2.5227670    3.2428570    0.4898150  
C     2.6717480    1.8373930   -0.0274770  
N     1.5243810    1.2340680   -0.1320020  
C     3.9640910    1.2748460   -0.3578240  
C     5.0412780    2.0967510   -0.2030830  
O     6.2936860    1.7461530   -0.4862290  
C     4.9172900    3.5122600    0.3374510  
O     5.9818800    4.1323380    0.4332920  
C     3.6134400    4.0418050    0.6717320  
H     0.6229420    4.2794670    1.0542790  
H     6.8300440    2.5445230   -0.2521180  
H     3.5616490    5.0580470    1.0473790  
C     3.2807360   -0.6152100   -1.8279500  
C     3.5480140   -1.9318750   -1.9997060  
C     4.5512220   -2.3021580   -1.0263570  
C     4.8560420   -1.0701320   -0.2565760  
N     4.0607970   -0.0599900   -0.8017870  
C     5.7246120   -1.0205990    0.7833030  
C     6.4266360   -2.2455800    1.1626920  
O     7.2230930   -2.2915560    2.0880270  
C     6.1398470   -3.5540900    0.3411520  
O     6.7295520   -4.5818500    0.6383560  
C     5.1644720   -3.4824350   -0.7474740  
H     3.0897360   -2.5871640   -2.7261080  
H     5.9374820   -0.1200490    1.3455370  
H     4.9520230   -4.3949880   -1.2961640  
H     2.5842980    0.0204180   -2.3548000  
C    -6.7768960   -2.8547190    1.6671770  
C    -7.8722340   -2.0728170    1.5518250  
C    -7.4285030   -0.8916210    0.8207870  
C    -5.9633710   -1.1169500    0.5955600  
N    -5.6078330   -2.2766750    1.0777500  
C    -5.1010650   -0.1636310   -0.0877150  
C    -5.7623950    0.9022850   -0.6380480  
O    -5.1678990    1.8547890   -1.3699430  
C    -7.2400630    1.1378550   -0.4660820  
O    -7.7198780    2.1353710   -1.0019930  
C    -8.0520340    0.1868890    0.3131110  
H    -8.8751170   -2.2708490    1.9027130  
H    -5.8902740    2.4686250   -1.6350000  
H    -9.1131160    0.3938240    0.4101860  
H    -6.6890320   -3.8280110    2.1333350  
