60


C     2.7647530    1.0475040    0.0374280  
C     1.4047710    1.2694280   -0.1883050  
C     1.1329730    2.6264300    0.1119730  
C     2.3787040    3.2160910    0.5084490  
N     3.3303920    2.2379310    0.4664140  
C     2.5092100    4.5700920    0.8311830  
C     1.3706890    5.3488430    0.7189350  
O     1.4205300    6.6731150    0.9893060  
C     0.1129680    4.7963430    0.3157930  
O    -0.8927210    5.7258220    0.2811100  
C    -0.0495710    3.4379100    0.0503920  
H     0.7060170    0.5233480   -0.5363490  
H     4.3188440    2.3130660    0.6648150  
H     3.4512680    5.0190330    1.1264170  
H     0.5253180    7.0183000    0.8006320  
H    -1.4351350    5.5344030   -0.5221080  
C    -2.1821840   -0.0877490    1.6920190  
C    -1.3219990    0.9361280    1.4635490  
C    -1.8297560    1.6934010    0.3431580  
C    -3.0799180    1.0138120   -0.0723640  
N    -3.2473650   -0.0739870    0.7825360  
C    -3.8670680    1.3990750   -1.1085690  
C    -3.4813960    2.5981410   -1.8309610  
O    -4.0780330    3.0261390   -2.8058110  
C    -2.2480740    3.4160420   -1.2995680  
O    -2.1051930    4.5474330   -1.7610710  
C    -1.3595490    2.8309930   -0.2802960  
H    -0.4286790    1.1554840    2.0264500  
H    -4.7443310    0.8517750   -1.4342800  
H    -2.1543820   -0.8550100    2.4542430  
C    -5.6154660   -0.7845740    0.9459280  
C    -4.2876320   -1.0208250    0.7386440  
C    -4.1329940   -2.4379190    0.4455050  
C    -5.4992240   -3.0079100    0.5054120  
N    -6.3454960   -1.9500700    0.8026300  
C    -5.7909080   -4.3149700    0.2971240  
C    -4.6908740   -5.2304640   -0.0113890  
O    -4.8574130   -6.4224640   -0.2090780  
C    -3.2344290   -4.6413240   -0.0887700  
O    -2.3056700   -5.3870180   -0.3499480  
C    -3.0507710   -3.2060860    0.1601320  
H    -6.7970580   -4.7197310    0.3458000  
H    -2.0428760   -2.8070750    0.1014490  
H    -6.1072820    0.1488570    1.1848790  
H    -7.3485380   -2.0183180    0.8797060  
C     3.5863000   -0.1087610   -0.0961010  
C     3.2841420   -1.3905630   -0.4991900  
C     4.5146140   -2.1167330   -0.4347720  
C     5.5220600   -1.1054280    0.0444820  
N     4.9761050    0.0606730    0.2397940  
C     6.9033020   -1.4524280    0.2419030  
C     7.2657160   -2.7305080   -0.0210280  
O     8.5070490   -3.2066660    0.1131650  
C     6.2736140   -3.7760560   -0.5061900  
O     6.7328320   -4.9050660   -0.7090250  
C     4.8843270   -3.4023900   -0.6982430  
H     2.3224520   -1.7766000   -0.8066780  
H     7.6125090   -0.7085450    0.5873540  
H     8.4376120   -4.1546790   -0.1533630  
H     4.1997620   -4.1697740   -1.0453400  
