60


C     2.6645740    1.1346680    0.0258380  
C     1.2902790    0.9114370    0.0581940  
C     0.6643490    2.1280470    0.4294890  
C     1.6998500    3.0907900    0.6071840  
N     2.8935870    2.4623290    0.3614860  
C     1.4316400    4.4186780    0.9588870  
C     0.1032250    4.7724250    1.1380890  
O    -0.2117150    6.0485630    1.4948690  
C    -0.9456560    3.8232020    0.9742300  
O    -2.1972730    4.3507170    1.2283440  
C    -0.6976170    2.5026720    0.6159040  
H     0.8183720   -0.0228800   -0.1841850  
H     3.8321980    2.8522340    0.3749510  
H     2.2088100    5.1628820    1.0958330  
H    -1.1795920    6.0946360    1.5845360  
H    -2.8684710    3.6526910    1.1840390  
C    -1.7262870    0.2240770    0.9323740  
C    -1.7634720    1.4991580    0.4496870  
C    -2.9998940    1.5990900   -0.3257700  
C    -3.6622540    0.2731280   -0.2442260  
N    -2.8354320   -0.5334490    0.5368790  
C    -4.8345360   -0.0351590   -0.8520400  
C    -5.5047820    0.9935660   -1.6449110  
O    -6.5658310    0.8017820   -2.2178590  
C    -4.8187160    2.4007320   -1.7555790  
O    -5.3581050    3.2741460   -2.4147540  
C    -3.5456460    2.6102440   -1.0550770  
H    -5.2965780   -1.0146400   -0.7952180  
H    -3.0694150    3.5793130   -1.1631630  
H    -0.9725270   -0.2334140    1.5579790  
C    -4.1194970   -2.4875290    1.3544640  
C    -3.0101190   -1.8983400    0.8201860  
C    -2.0314390   -2.9492620    0.5726590  
C    -2.6793290   -4.2075580    1.0168730  
N    -3.9408690   -3.8566750    1.4639050  
C    -2.0925380   -5.4283930    0.9602710  
C    -0.7339020   -5.5225190    0.4277050  
O    -0.1281060   -6.5766770    0.3335450  
C    -0.0290740   -4.1963480   -0.0376720  
O     1.1193580   -4.2633560   -0.4552830  
C    -0.7729890   -2.9386530    0.0580070  
H    -2.5796770   -6.3424190    1.2850350  
H    -0.2787160   -2.0368090   -0.2853500  
H    -5.0455270   -2.0269670    1.6701260  
H    -4.6349860   -4.5053790    1.8011800  
C     6.9847930    1.8514790   -0.2078320  
C     7.4547140    0.6264430   -0.5317340  
C     6.2746580   -0.2287930   -0.6143240  
C     5.1349330    0.6815210   -0.3026580  
N     5.5619330    1.8917810   -0.0649140  
C     3.7474300    0.2221320   -0.2776540  
C     3.5581250   -1.1153070   -0.5468270  
O     2.3376320   -1.6808340   -0.5505430  
C     4.6741930   -2.0437270   -0.8535600  
O     4.4204960   -3.2282880   -1.0768470  
C     6.0654020   -1.5302210   -0.8785100  
H     8.4796380    0.3249080   -0.6966920  
H     2.4266440   -2.6495060   -0.7134140  
H     6.8481620   -2.2473420   -1.1075100  
H     7.5429840    2.7662780   -0.0513940  
