62


C     1.2104930   -1.2790320    1.1781730  
C     2.5610620   -1.1206880    1.0844050  
C     2.8108010   -0.1032760    0.1003770  
C     1.5471780    0.3233610   -0.3781440  
N     0.5654370   -0.4139390    0.2901690  
C     1.3937220    1.3697090   -1.2914810  
C     2.5471040    2.0010820   -1.7271350  
O     2.4672860    3.0340800   -2.6100470  
C     3.8265340    1.6026440   -1.2637550  
O     4.8684510    2.3133540   -1.8217060  
C     3.9927830    0.5335480   -0.3711570  
H     3.2978340   -1.6915030    1.6283310  
H     0.4306020    1.6913290   -1.6667450  
H     3.3881780    3.3169510   -2.7658030  
H     5.4653830    2.5992490   -1.0984290  
H     0.6256240   -1.9714290    1.7653640  
C    -2.5751800   -0.0267890    3.3179990  
C    -1.3759740   -0.0755330    2.6788370  
C    -1.6493810   -0.1848970    1.2613360  
C    -3.1201300   -0.1901340    1.1231580  
N    -3.6209600   -0.0921650    2.4089130  
C    -3.8275810   -0.2622360   -0.0461350  
C    -3.0266200   -0.3144090   -1.2781670  
O    -3.5024770   -0.2381730   -2.3970980  
C    -1.4582780   -0.4302000   -1.1653650  
O    -0.8208180   -0.6443690   -2.1799800  
C    -0.8278520   -0.2908400    0.1677500  
H    -0.4007610   -0.0292140    3.1384880  
H    -2.7849050    0.0606330    4.3758430  
H    -4.6049520   -0.0997930    2.6302160  
C    -6.7526230    2.7619000    1.3582730  
C    -7.8924520    2.1037740    0.9814380  
C    -7.4874610    0.8628460    0.3804100  
C    -6.0706840    0.8214250    0.4293980  
N    -5.6478360    1.9812730    1.0550230  
C    -5.3042490   -0.2403080   -0.0995690  
C    -6.0247780   -1.2814180   -0.6902690  
O    -5.3614740   -2.3615130   -1.1839240  
C    -7.4424040   -1.2554740   -0.7441720  
O    -7.9932800   -2.3713970   -1.3472480  
C    -8.1769420   -0.2102850   -0.2168410  
H    -8.9052100    2.4586480    1.1153240  
H    -4.6921320    2.3040180    1.0646100  
H    -6.0168510   -2.9230960   -1.6333590  
H    -8.9383290   -2.2229380   -1.4983290  
H    -9.2638050   -0.2189170   -0.2691590  
H    -6.6267330    3.7237920    1.8350700  
C     5.8978320   -3.4572060   -0.2904510  
C     7.1267660   -3.1808310    0.1978500  
C     7.1320660   -1.7364480    0.4168530  
C     5.7588740   -1.2966640    0.0075190  
N     5.0534690   -2.3034780   -0.4096600  
C     5.3401630    0.1096030    0.0589190  
C     6.3138640    0.9748900    0.4642590  
O     6.1253830    2.3243620    0.5476510  
C     7.6832520    0.5683520    0.8755030  
O     8.4600710    1.4537890    1.2457070  
C     8.0586160   -0.8566300    0.8367860  
H     7.9489300   -3.8601410    0.3756170  
H     6.9858180    2.6725360    0.8805680  
H     9.0693370   -1.1157890    1.1372190  
H     5.4949350   -4.4162570   -0.5923950  
