58


C    -2.3994920   -1.5123180    1.2070600  
C    -3.5259240   -0.7615080    1.0056790  
C    -3.0641050    0.5226780    0.4855140  
C    -1.5809780    0.4393560    0.4322300  
N    -1.2437270   -0.8070880    0.9214020  
C    -0.7502110    1.4488940    0.0152540  
C    -1.4391310    2.6123550   -0.6068830  
O    -0.8649560    3.4214670   -1.3123050  
C    -2.9817270    2.7856120   -0.3929780  
O    -3.4970280    3.8501510   -0.6948680  
C    -3.7333420    1.6549970    0.1417870  
H    -4.8066950    1.7655180    0.2545500  
H    -2.3359710   -2.5398580    1.5414940  
H    -0.3654300   -1.2305750    0.6099120  
C     2.3318640   -1.6634500   -0.8293130  
C     3.4883910   -0.9433140   -0.7872270  
C     3.0517360    0.4156050   -0.4052410  
C     1.5627030    0.3171020   -0.2820610  
N     1.1742590   -0.9111460   -0.5162620  
C     0.7236500    1.4551950    0.0539190  
C     1.4093380    2.6011250    0.3834140  
O     0.8197160    3.7006120    0.8554920  
C     2.8959170    2.7334820    0.2517680  
O     3.4062710    3.8140330    0.5405010  
C     3.6961710    1.5749970   -0.1922490  
H     1.5309840    4.3732540    0.9464340  
H     4.7672250    1.7176180   -0.2896960  
H     2.2258270   -2.7188170   -1.0486250  
C     5.1982750   -2.2448560   -2.1115720  
C     4.8263980   -1.4006480   -1.1036400  
C     6.0904300   -1.1275920   -0.3847680  
C     7.1161550   -1.9053190   -1.1435020  
N     6.5806370   -2.5541740   -2.1418460  
C     8.5003490   -1.9128860   -0.7553230  
C     8.8546040   -1.2119530    0.3495230  
O    10.1068110   -1.1354230    0.8238920  
C     7.8405960   -0.4512340    1.1573030  
O     8.2310620    0.1534890    2.1526860  
C     6.4221700   -0.4527560    0.7315160  
H     9.2212470   -2.4780780   -1.3354590  
H    10.0542170   -0.5726420    1.6270480  
H     5.7247820    0.0969500    1.3557840  
H     4.5546700   -2.6630310   -2.8766760  
C    -5.3389670   -1.8717080    2.3787100  
C    -4.8889500   -1.1823840    1.2925150  
C    -6.0855660   -1.0522960    0.4319750  
C    -7.1664950   -1.7334160    1.2050810  
N    -6.7190030   -2.2104630    2.3333280  
C    -8.5113990   -1.8269720    0.7008570  
C    -8.7694430   -1.3039820   -0.5219260  
O    -9.9743590   -1.3277110   -1.1150380  
C    -7.6946300   -0.6447520   -1.3391830  
O    -8.0007050   -0.2041360   -2.4451150  
C    -6.3221640   -0.5465270   -0.7928970  
H    -9.2775290   -2.3160140    1.2922620  
H    -9.8489920   -0.8827550   -1.9816860  
H    -5.5783110   -0.0605640   -1.4162520  
H    -4.7630150   -2.1599250    3.2505370  
