62


C    -0.3337010    1.9667620   -0.1435310  
C    -0.7206570    3.3114270   -0.1637740  
C    -2.1287320    3.3572890   -0.0559220  
C    -2.5877800    2.0110230    0.0416940  
N    -1.4903520    1.2047760   -0.0117860  
C    -3.9597830    1.6584200    0.1376920  
C    -4.8614080    2.7361740    0.1404290  
O    -6.1834030    2.5277330    0.2949840  
C    -4.4047560    4.0891410    0.0464760  
O    -5.4347020    5.0044140    0.0758940  
C    -3.0720670    4.4112060   -0.0454160  
H    -0.0568490    4.1605220   -0.2021470  
H    -1.4668180    0.1950490    0.0387530  
H    -6.6226740    3.3973440    0.2668310  
H    -5.0800050    5.9043480    0.0240410  
H    -2.7528400    5.4488700   -0.1104490  
C     3.7961880    3.4449000   -1.0418070  
C     2.4421390    3.3763810   -0.9876250  
C     2.1370140    2.0215320   -0.5552290  
C     3.4625460    1.3751480   -0.4320020  
N     4.4271510    2.2286690   -0.6863390  
C     3.6420610   -0.0301840   -0.0739270  
C     2.4930220   -0.6844020    0.2827160  
O     2.4708920   -1.9533740    0.7316370  
C     1.1473910   -0.0713520    0.1847120  
O     0.1842030   -0.8050530    0.4583870  
C     0.9779880    1.3719820   -0.2056650  
H     1.7408590    4.1502280   -1.2590350  
H     1.5219570   -2.1699400    0.8494030  
H     4.4129170    4.2886040   -1.3272510  
C     7.6770520    1.0794910    1.4998380  
C     8.2997670   -0.1138270    1.2454430  
C     7.3417410   -0.9476520    0.5760900  
C     6.1391010   -0.1994080    0.4761610  
N     6.3617550    1.0221570    1.0768030  
C     4.9516470   -0.7142310   -0.1032030  
C     5.0728860   -1.9838710   -0.6950560  
O     4.0393180   -2.5135900   -1.4035740  
C     6.2739090   -2.7319890   -0.6065100  
O     6.1994420   -3.9715980   -1.2212960  
C     7.3927330   -2.2476890    0.0392050  
H     9.3174160   -0.3745020    1.5028570  
H     5.8082970    1.8267610    0.7956120  
H     4.3215980   -3.3978060   -1.6965890  
H     7.0665190   -4.4007300   -1.1835890  
H     8.2981710   -2.8482660    0.1042910  
H     8.0607310    1.9790780    1.9610500  
C    -4.3869340    0.2692200    0.2233020  
C    -3.7310560   -0.7806120    0.8138430  
C    -4.5523100   -1.9441890    0.5749300  
C    -5.7092870   -1.4160090   -0.2194860  
N    -5.6164050   -0.1356730   -0.4172430  
C    -6.7646820   -2.2832830   -0.6803660  
C    -6.6868550   -3.5938410   -0.3532040  
O    -7.5941660   -4.5171390   -0.7030630  
C    -5.5387940   -4.1517900    0.4596190  
O    -5.5622900   -5.3591460    0.7030070  
C    -4.4697580   -3.2542380    0.9064470  
H    -2.8264720   -0.7554680    1.4055630  
H    -7.5866380   -1.8785400   -1.2601360  
H    -7.2597370   -5.3602000   -0.3209020  
H    -3.6575880   -3.6919990    1.4785910  
