64


C     1.9731110   -0.5671910    0.1243630  
C     3.2685030   -0.0764650    0.0796420  
C     3.1434920    1.3665680   -0.0545910  
C     1.7571280    1.6611500   -0.0634050  
N     1.0601760    0.4581920    0.0520680  
C     1.2471070    2.9620920   -0.1826910  
C     2.1620220    3.9964810   -0.3304100  
O     1.7236760    5.2817670   -0.4451800  
C     3.5505820    3.7202240   -0.3576210  
O     4.3404140    4.8420930   -0.5225880  
C     4.0453420    2.4349350   -0.2212920  
H     0.1872420    3.1852130   -0.1170980  
H     2.5117600    5.8484180   -0.5133850  
H     5.2731330    4.5924080   -0.4445090  
H     5.1151590    2.2606950   -0.2160690  
H     1.6361650   -1.5893060    0.1713200  
C    -1.7608850   -1.4478150    2.9000720  
C    -0.6314310   -0.9373910    2.3133630  
C    -1.0419060   -0.3449620    1.0735030  
C    -2.4478510   -0.5206130    0.9660830  
N    -2.8502180   -1.2122010    2.0882220  
C    -3.2230970   -0.0654330   -0.1261700  
C    -2.4902070    0.5629160   -1.1321570  
O    -3.1326840    1.0260110   -2.2638600  
C    -1.0871530    0.7352790   -1.0744950  
O    -0.5484060    1.3268910   -2.1976720  
C    -0.3529690    0.2946530    0.0209810  
H     0.3723370   -0.9810820    2.7103560  
H    -3.8147340   -1.3989130    2.3194020  
H    -2.4482530    1.4528170   -2.8139850  
H     0.3005140    1.7518340   -1.9814850  
H    -1.8808670   -1.9693480    3.8392000  
C    -6.5430970    0.7209960    2.8172570  
C    -5.3320060    0.6827790    2.1752300  
C    -5.5396830    0.0334040    0.9055300  
C    -6.9213730   -0.2892780    0.8369600  
N    -7.5015050    0.1279780    2.0181040  
C    -7.5127110   -0.8942140   -0.2782030  
C    -6.6854750   -1.1542860   -1.3574000  
O    -7.1886230   -1.7195170   -2.4892320  
C    -5.2972190   -0.8472530   -1.3182450  
O    -4.6189260   -1.2054850   -2.4650900  
C    -4.6903860   -0.2822740   -0.1946080  
H    -4.4074420    1.0981620    2.5493600  
H    -8.4825250    0.0572910    2.2376550  
H    -8.5696510   -1.1346910   -0.3309970  
H    -6.4325260   -1.7806420   -3.1044060  
H    -4.0265040   -0.4610080   -2.7069740  
H    -6.8078870    1.1315480    3.7814650  
C     3.8370450   -4.2153540   -1.2552000  
C     5.1365830   -4.4412120   -0.9638720  
C     5.6126860   -3.1972250   -0.3665690  
C     4.4173890   -2.2948040   -0.3808870  
N     3.3920420   -2.8986860   -0.9064540  
C     4.4610880   -0.9178660    0.1326150  
C     5.6716630   -0.5385520    0.6518460  
O     5.9008470    0.6664590    1.2278880  
C     6.8695020   -1.4161540    0.6735750  
O     7.9062660   -0.9713680    1.1792950  
C     6.7931950   -2.7843220    0.1247100  
H     5.7177320   -5.3375270   -1.1307800  
H     6.8396060    0.6188590    1.5197130  
H     7.6959570   -3.3868180    0.1595570  
H     3.1228610   -4.8925510   -1.7078730  
