58


C    -3.4484130   -1.7721370    0.2287100  
C    -2.1823120   -1.2921860    0.1496300  
C    -2.2568990    0.0981970   -0.2268490  
C    -3.6985860    0.4053660   -0.3574700  
N    -4.3859390   -0.7876450   -0.1077620  
C    -4.2058260    1.6393070   -0.6055550  
C    -3.2697740    2.7388340   -0.7791790  
O    -3.6209660    3.8913580   -0.9778450  
C    -1.7305670    2.4357560   -0.6972540  
O    -0.9597130    3.3656930   -0.8708880  
C    -1.2778490    1.0516270   -0.4149270  
H    -1.2847120   -1.8506740    0.3649690  
H    -5.2633970    1.8531240   -0.6800950  
H    -3.7968700   -2.7531450    0.5120240  
C     0.7340270   -0.4057960   -0.8717900  
C     0.1439200    0.7303340   -0.3932090  
C     1.2780260    1.5012180    0.1629940  
C     2.4749820    0.6356440   -0.0703930  
N     2.1303250   -0.4640670   -0.6849900  
C     3.8290210    1.0091570    0.3457360  
C     3.9238440    2.2259090    0.9933470  
O     5.0408160    2.7758620    1.4583530  
C     2.7183090    3.0974120    1.2494190  
O     2.9111420    4.1558560    1.8464430  
C     1.3835960    2.6822120    0.7950000  
H     4.7521590    3.6310950    1.8583930  
H     0.5615080    3.3646860    0.9692400  
H     0.2502630   -1.2209760   -1.3958350  
C     4.9592490    0.1355150    0.0867700  
C     4.9782290   -1.0605290   -0.5861140  
C     6.3499510   -1.5079410   -0.5554600  
C     7.0720990   -0.4373730    0.2032740  
N     6.2703720    0.5113660    0.5747390  
C     8.4902850   -0.5171500    0.4554700  
C     9.1516340   -1.5972910   -0.0202530  
O    10.4677310   -1.8092410    0.1347420  
C     8.4493370   -2.6929540   -0.7898080  
O     9.1408030   -3.6353280   -1.1795650  
C     7.0066180   -2.5913390   -1.0336730  
H     4.1374670   -1.5589820   -1.0392990  
H     8.9898070    0.2711760    1.0074700  
H    10.6419180   -2.6661260   -0.3163050  
H     6.5366300   -3.3972460   -1.5890300  
C    -6.8593610   -2.7551730    2.8465250  
C    -8.0958440   -2.5789820    2.3295890  
C    -7.8908750   -1.8554570    1.0776730  
C    -6.4090480   -1.6746650    1.0072670  
N    -5.8133680   -2.2017320    2.0339840  
C    -5.7792170   -0.9798570   -0.1075010  
C    -6.5966200   -0.5458230   -1.1111790  
O    -6.1557930    0.0625590   -2.2234300  
C    -8.0826660   -0.7102130   -1.0484360  
O    -8.7384510   -0.2854030   -1.9991170  
C    -8.7002370   -1.3916480    0.1074920  
H    -9.0450310   -2.8932580    2.7404430  
H    -6.9652660    0.2646410   -2.7455710  
H    -9.7812140   -1.4916860    0.1036370  
H    -6.5817460   -3.2487690    3.7695390  
