60


C    -1.3628290   -2.4205820    1.2587270  
C    -0.5232200   -1.3367700    1.1958040  
C    -1.2966020   -0.2238510    0.7081920  
C    -2.6158760   -0.7074560    0.5073220  
N    -2.6179010   -2.0482490    0.8287510  
C    -3.6784440    0.0986630    0.0451660  
C    -3.3716520    1.4475050   -0.1486910  
O    -4.3464160    2.3162140   -0.5069630  
C    -2.0637260    1.9615620    0.0574430  
O    -1.9605180    3.3024540   -0.2108850  
C    -0.9937550    1.1452480    0.4364820  
H     0.5106440   -1.3272440    1.5095860  
H    -3.4411160   -2.6314720    0.8495120  
H    -3.9148390    3.1915460   -0.5644610  
H    -1.3828560    3.6970680    0.4856200  
H    -1.1712530   -3.4317000    1.5885830  
C     2.7004770   -0.4896200   -1.2517040  
C     3.6111080    0.3962230   -0.7549810  
C     2.8784850    1.3820950    0.0244990  
C     1.4549850    0.9862560   -0.0639220  
N     1.4215560   -0.1443170   -0.8528430  
C     0.3980690    1.6450270    0.5222890  
C     0.7569620    2.8944960    1.2016270  
O    -0.0687780    3.7094290    1.6118440  
C     2.2718520    3.2682540    1.4132760  
O     2.5353750    4.2312020    2.1123680  
C     3.2857580    2.4625060    0.7395950  
H     4.3274420    2.7423330    0.8572350  
H     2.8667480   -1.3565120   -1.8766660  
H     0.5983830   -0.7209520   -0.9622510  
C     5.7564640    1.3964760   -1.5401270  
C     7.0774120    1.0978310   -1.5584410  
C     7.2369420   -0.2028630   -0.9414030  
C     5.8757420   -0.6442810   -0.5499600  
N     5.0041070    0.3722550   -0.9421470  
C     5.6008010   -1.8191670    0.0689930  
C     6.7097410   -2.7211860    0.3734860  
O     6.5552180   -3.7973590    0.9297090  
C     8.1600200   -2.2784310   -0.0412600  
O     9.0974260   -3.0231090    0.1957790  
C     8.3256100   -0.9791310   -0.7005360  
H     7.8673420    1.7134290   -1.9637470  
H     4.5997060   -2.1233230    0.3550070  
H     9.3320740   -0.6789740   -0.9759170  
H     5.2406040    2.2706000   -1.9148510  
C    -6.7322240   -2.2025350    2.3943540  
C    -5.6002400   -1.5296640    2.0695060  
C    -5.7832280   -1.1299170    0.6763490  
C    -7.1341370   -1.6639020    0.3263190  
N    -7.6799050   -2.2918420    1.3310340  
C    -7.7191100   -1.4614980   -0.9736410  
C    -6.9973490   -0.7705430   -1.8846320  
O    -7.4119620   -0.5114750   -3.1351300  
C    -5.6123940   -0.2570730   -1.5835160  
O    -4.9915680    0.2465890   -2.5125510  
C    -5.0296840   -0.4284760   -0.2111730  
H    -4.7573540   -1.2955330    2.7041290  
H    -8.7051260   -1.8553760   -1.1934050  
H    -6.6648850   -0.0409300   -3.5658780  
H    -6.9864670   -2.6506160    3.3479200  
