64


C    -1.1889960    2.9167680    0.0620880  
C    -2.0360690    3.3114780    1.0678110  
C    -2.9205160    2.2110930    1.3231740  
C    -2.5531480    1.1625980    0.4398920  
N    -1.4893320    1.6164730   -0.3166590  
C    -3.2129320   -0.0831630    0.3889040  
C    -4.2666680   -0.2530220    1.2887970  
O    -4.9406820   -1.4358930    1.3308760  
C    -4.6415940    0.7832290    2.1837840  
O    -5.7004800    0.4456200    3.0084410  
C    -3.9911250    2.0017540    2.2133830  
H    -2.0027930    4.2631040    1.5793150  
H    -1.0797550    1.1340480   -1.1027880  
H    -5.6421730   -1.3402970    1.9979580  
H    -5.9150500    1.1974420    3.5797940  
H    -4.3027200    2.7779700    2.9095060  
C    -0.3324510    4.8774650   -1.1848890  
C     0.8594400    5.3042210   -1.6992850  
C     1.8339350    4.2865230   -1.4174130  
C     1.1661680    3.2526510   -0.7136290  
N    -0.1720200    3.6288390   -0.5855330  
C     1.8225590    2.1086920   -0.2429150  
C     3.1789990    1.9999140   -0.5090730  
O     3.8754630    0.9033580   -0.0761550  
C     3.8626280    3.0151010   -1.2265550  
O     5.2090080    2.7584480   -1.4154530  
C     3.2115390    4.1492760   -1.6762510  
H     1.0251420    6.2338220   -2.2266360  
H     1.3204320    1.3340290    0.3253700  
H     4.8006810    1.0277500   -0.3493240  
H     5.6151230    3.5022470   -1.8841850  
H     3.7583380    4.9207470   -2.2153410  
H    -1.3117210    5.3335770   -1.1963000  
C     0.6289650   -2.2360050   -0.0512190  
C     0.2625710   -3.0276370   -1.1375970  
C    -1.0814440   -2.7118580   -1.4658690  
C    -1.5141740   -1.7092890   -0.5502900  
N    -0.4642240   -1.4381370    0.2878820  
C    -2.8068410   -1.1439430   -0.5670920  
C    -3.6677960   -1.6270960   -1.5536020  
O    -4.9207790   -1.1159780   -1.6723650  
C    -3.2532880   -2.6369720   -2.4714410  
O    -4.2375890   -2.9890370   -3.3769070  
C    -1.9871030   -3.1777250   -2.4449760  
H     0.9145290   -3.7376530   -1.6206280  
H    -0.4807240   -0.8187400    1.0855430  
H    -5.3604980   -1.5994970   -2.3934930  
H    -3.9058420   -3.6907850   -3.9561430  
H    -1.6937400   -3.9433270   -3.1601600  
C     4.4338380   -4.3665580   -0.6709770  
C     5.2173010   -3.8121160    0.2801060  
C     4.3602390   -2.8505830    0.9655210  
C     3.0423530   -2.9640880    0.2661180  
N     3.0986940   -3.8504030   -0.6838460  
C     1.8858690   -2.1452660    0.6566650  
C     2.1067790   -1.3025500    1.7180290  
O     1.1538110   -0.4653700    2.2135250  
C     3.3960090   -1.1738340    2.4207280  
O     3.4715940   -0.3792920    3.3662270  
C     4.5409230   -2.0013580    1.9919650  
H     6.2541730   -4.0220360    0.5035940  
H     1.6089810    0.0196170    2.9405640  
H     5.4728430   -1.8814770    2.5367120  
H     4.6943620   -5.1289990   -1.3951340  
