60


C     1.4223790    2.3002100   -2.9445950  
C     2.6166990    1.9551310   -2.3705460  
C     2.3241800    1.3939120   -1.0817850  
C     0.9107460    1.4226280   -0.9391610  
N     0.3879360    1.9737940   -2.0867880  
C     0.2591860    0.9160970    0.1995860  
C     1.0592090    0.3687990    1.2024590  
O     0.4786660   -0.1184920    2.3351320  
C     2.4639460    0.3198400    1.0593630  
O     3.1002850   -0.2462570    2.1510930  
C     3.1295860    0.8170520   -0.0625980  
H     3.5917800    2.0727300   -2.8193440  
H    -0.5874430    2.1748280   -2.2445370  
H     1.2044190   -0.3912440    2.9259660  
H     4.0106600    0.0866060    2.2001230  
H     1.2141690    2.7537320   -3.9029790  
C    -1.9401980   -0.1762050    0.6225330  
C    -3.2570670    0.1577060    0.7186130  
C    -3.3633030    1.5917520    0.5101600  
C    -1.9759030    2.0656880    0.2980620  
N    -1.1544970    0.9384330    0.3391840  
C    -1.6406190    3.3683950    0.1113900  
C    -2.7108510    4.3670760    0.0942120  
O    -2.4998320    5.5589680   -0.0624090  
C    -4.1915940    3.8747190    0.2814770  
O    -5.0977650    4.6906710    0.2485540  
C    -4.4215920    2.4418430    0.4965490  
H    -0.6181730    3.7100090   -0.0052030  
H    -5.4448630    2.1094460    0.6418480  
H    -1.4737700   -1.1448520    0.7289050  
C    -5.1991330   -0.6482040    2.0572990  
C    -6.1602250   -1.6010660    1.9963070  
C    -5.9372250   -2.3647070    0.7862840  
C    -4.7478550   -1.7647910    0.1326240  
N    -4.3320900   -0.7182200    0.9555660  
C    -4.2199090   -2.1965130   -1.0396760  
C    -4.8536840   -3.3280790   -1.7129060  
O    -4.4496680   -3.7803860   -2.7730970  
C    -6.1087930   -3.9868790   -1.0326150  
O    -6.6445330   -4.9401280   -1.5751960  
C    -6.5857610   -3.4232000    0.2337010  
H    -6.9458600   -1.7654030    2.7194840  
H    -3.3519540   -1.7429070   -1.5059660  
H    -7.4580080   -3.8799990    0.6913810  
H    -5.0231610    0.1086560    2.8101590  
C     5.4418550    1.7425170   -0.5999430  
C     4.5925220    0.7612010   -0.1769390  
C     5.4819520   -0.4011210    0.0451730  
C     6.8450960    0.1090100   -0.2967350  
N     6.8081870    1.3595080   -0.6656690  
C     8.0101660   -0.7309430   -0.2132660  
C     7.8369740   -2.0210910    0.1627730  
O     8.8317240   -2.9136640    0.2756540  
C     6.4752660   -2.5701190    0.4923170  
O     6.3966190   -3.7495640    0.8265740  
C     5.2926180   -1.6832470    0.4132070  
H     8.9859460   -0.3277400   -0.4602710  
H     8.4058570   -3.7527710    0.5572950  
H     4.3311960   -2.1166540    0.6683340  
H     5.1764510    2.7573010   -0.8716230  
