60


C     3.0998180    0.8371090   -0.0917860  
C     3.6972410    2.0535390   -0.4213100  
C     2.6753220    3.0314760   -0.4876280  
C     1.4417380    2.3798440   -0.2042540  
N     1.7331700    1.0670690    0.0334650  
C     0.1849550    3.0555550   -0.1823150  
C     0.2430070    4.4411070   -0.4537710  
O    -0.8752580    5.1857230   -0.5264510  
C     1.4845230    5.0935030   -0.7266860  
O     1.3381680    6.4421860   -0.9738030  
C     2.6813250    4.4182780   -0.7561940  
H     4.7426670    2.2065970   -0.6393600  
H     1.0879330    0.3250430    0.2613350  
H    -0.6029750    6.0980170   -0.7379520  
H     2.1953070    6.8340630   -1.1973710  
H     3.6091170    4.9398650   -0.9803330  
C    -1.0575360    2.3513550    0.0645670  
C    -1.3108640    1.0083430   -0.1145440  
C    -2.6762510    0.8069850    0.2689220  
C    -3.1510800    2.1688180    0.6766650  
N    -2.2100560    3.0585790    0.5716930  
C    -4.5039890    2.3855410    1.1169330  
C    -5.3421970    1.3216410    1.1094600  
O    -6.6293890    1.3782910    1.4737260  
C    -4.8946930   -0.0684930    0.7047440  
O    -5.7322270   -0.9668250    0.7811410  
C    -3.4982470   -0.2842190    0.2959830  
H    -0.6743980    0.2594940   -0.5598930  
H    -4.8290510    3.3743900    1.4200870  
H    -6.9660690    0.4584290    1.3761980  
C    -0.2895080   -2.8812070    1.8915870  
C    -1.2548720   -1.9375130    1.8195070  
C    -2.0032900   -2.2515390    0.6099500  
C    -1.3436200   -3.4795230    0.0740660  
N    -0.3136230   -3.8133640    0.8037510  
C    -1.8123240   -4.1326900   -1.1184150  
C    -2.8877220   -3.5957860   -1.7422240  
O    -3.4542230   -4.1130680   -2.8401990  
C    -3.5363880   -2.3149500   -1.2684960  
O    -4.4550690   -1.8671540   -1.9454520  
C    -3.0098560   -1.6299880   -0.0539050  
H    -1.4512400   -1.1261740    2.5049720  
H    -1.3235370   -5.0300020   -1.4813290  
H    -4.1790290   -3.4946060   -3.0815740  
H     0.4708930   -3.0043590    2.6531430  
C     7.2567530   -0.7402660    0.5139570  
C     6.2152460    0.1262210    0.4135630  
C     5.0327570   -0.7102220    0.2520560  
C     5.5719540   -2.0897500    0.2960180  
N     6.8729380   -2.1060690    0.4363340  
C     4.7237300   -3.2485970    0.2200610  
C     3.3835410   -3.0713360    0.1287700  
O     2.5310040   -4.1072410    0.0929530  
C     2.7990030   -1.6939520    0.0486600  
O     1.5731530   -1.5990410   -0.0367380  
C     3.6929090   -0.4731510    0.0797370  
H     6.2526610    1.2021140    0.4906840  
H     5.1608660   -4.2397870    0.2706820  
H     1.5873920   -3.8233550    0.1462980  
H     8.3048870   -0.5029800    0.6542440  
