58


C     1.1307720   -0.2975530   -1.6171890  
C     0.6468790    0.6743370   -0.7848930  
C     1.8111930    1.2236020   -0.0836360  
C     2.9894320    0.4898060   -0.5870710  
N     2.5092350   -0.3946440   -1.5316830  
C     4.2899590    0.6536500   -0.1647400  
C     4.4836050    1.6436000    0.9155030  
O     5.5685440    1.8765070    1.4236000  
C     3.2404600    2.4484940    1.4505750  
O     3.4222220    3.2587950    2.3438190  
C     1.9242490    2.1767430    0.8776950  
H     1.0824300    2.7533220    1.2418020  
H     0.5909070   -0.9137230   -2.3250260  
H     3.0780160   -1.1016480   -1.9741390  
C    -2.9119630   -1.7471840   -0.0507360  
C    -3.8989730   -0.7910920   -0.1041710  
C    -3.2144040    0.4866380   -0.3445510  
C    -1.7726870    0.1724630   -0.4387750  
N    -1.6702550   -1.2001920   -0.2713960  
C    -0.7597450    1.0689340   -0.6397440  
C    -1.1639780    2.4851430   -0.7594760  
O    -0.3633990    3.3877880   -0.9368140  
C    -2.6927610    2.8417430   -0.6666800  
O    -3.0183470    4.0129460   -0.7618840  
C    -3.6632220    1.7623230   -0.4627790  
H    -4.7163310    2.0054440   -0.3970050  
H    -3.0083820   -2.8096080    0.1293880  
H    -0.7904590   -1.6839030   -0.1639710  
C    -5.3108860   -1.0252460    0.0544060  
C    -5.9761660   -2.2112310    0.2586330  
C    -7.3668370   -1.8706460    0.3512610  
C    -7.3940900   -0.3764830    0.1747540  
N    -6.1980540    0.1056620    0.0024050  
C    -8.6248770    0.3668950    0.2031160  
C    -9.7689880   -0.3312230    0.3955830  
O   -10.9872550    0.2156420    0.4462310  
C    -9.7760400   -1.8399380    0.5765040  
O   -10.8765960   -2.3680030    0.7442010  
C    -8.5139600   -2.5718380    0.5439860  
H    -5.5579560   -3.2056670    0.3334250  
H    -8.6174070    1.4433690    0.0739770  
H   -11.6013160   -0.5404180    0.5954050  
H    -8.5565020   -3.6482810    0.6769130  
C     5.5459040   -0.4587700   -2.0641460  
C     5.4065740   -0.0733250   -0.7550780  
C     6.6213090   -0.6267780   -0.1014480  
C     7.3413340   -1.3229810   -1.2042260  
N     6.7084680   -1.2078910   -2.3429530  
C     8.5827180   -2.0165860   -0.9900760  
C     9.0886630   -2.0371350    0.2664000  
O    10.2302230   -2.6511590    0.6135110  
C     8.3824070   -1.3561530    1.4035220  
O     8.8919070   -1.4270580    2.5197570  
C     7.1146010   -0.6321180    1.1511590  
H     9.0781220   -2.5051450   -1.8217210  
H    10.3310050   -2.4911090    1.5776990  
H     6.6648960   -0.1159410    1.9900140  
H     4.8959400   -0.1994370   -2.8928300  
