60


C     0.0577520    1.8562170   -0.0655220  
C    -1.1328400    1.1242010   -0.0595050  
C    -0.7968630   -0.2489030   -0.1620400  
C     0.6217850   -0.3268200   -0.2194590  
N     1.1030820    0.9507700   -0.1689880  
C     1.3443140   -1.5456360   -0.2513480  
C     0.5633590   -2.7146430   -0.2340010  
O     1.1433170   -3.9276090   -0.3513330  
C    -0.8562060   -2.6592600   -0.1716220  
O    -1.4386920   -3.9030450   -0.2045760  
C    -1.5652640   -1.4525990   -0.1388560  
H    -2.1213270    1.5264650    0.0881740  
H     2.0683100    1.2427440   -0.0614780  
H     0.4297420   -4.5915720   -0.3475770  
H    -2.4066350   -3.8127880   -0.3010310  
C    -2.5537360    5.4575150   -0.5120960  
C    -2.0559920    4.1903860   -0.5381800  
C    -0.6768580    4.2506950   -0.1151110  
C    -0.4018710    5.6787730    0.1496490  
N    -1.5856150    6.3506430   -0.0827730  
C     0.7915140    6.2005150    0.5476710  
C     1.9054770    5.2913810    0.6942310  
O     3.0257050    5.6250700    1.0509070  
C     1.6681080    3.7706560    0.3599580  
O     2.6578740    3.0489880    0.3574230  
C     0.2981030    3.2796350    0.0513130  
H    -2.5947820    3.3174310   -0.8669460  
H     0.9444780    7.2542310    0.7568930  
H    -3.5413780    5.8121320   -0.7746720  
H    -1.6966800    7.3507340   -0.0231280  
C     2.7999340   -1.5713140   -0.2884310  
C     3.6427740   -0.6740750   -0.8908590  
C     4.9819680   -1.1301050   -0.5931080  
C     4.7711960   -2.3544360    0.2445770  
N     3.5095090   -2.6119560    0.4165730  
C     5.8825220   -3.1078730    0.7694260  
C     7.1298980   -2.6815330    0.4638360  
O     8.2563930   -3.2829910    0.8724610  
C     7.3720520   -1.4572410   -0.3905420  
O     8.5436930   -1.1524630   -0.6137820  
C     6.2255350   -0.6970960   -0.9030090  
H     3.3831440    0.1668640   -1.5184180  
H     5.7039690   -3.9864660    1.3790960  
H     8.9870980   -2.7442040    0.4932790  
H     6.4381170    0.1837010   -1.5009530  
C    -3.0164590   -1.4331150   -0.1250830  
C    -3.8973040   -0.5604790   -0.7043760  
C    -5.2395210   -0.9982070   -0.4262450  
C    -5.1064170   -2.2213570    0.3939040  
N    -3.7327900   -2.5053940    0.4892070  
C    -6.1449610   -2.9023030    0.9253870  
C    -7.5044300   -2.4248090    0.6458060  
O    -8.4981740   -2.9800030    1.0838940  
C    -7.6713900   -1.1590930   -0.2699080  
O    -8.7986670   -0.7595740   -0.5222040  
C    -6.4630650   -0.5044610   -0.7660210  
H    -3.6230670    0.2749950   -1.3319520  
H    -6.0314220   -3.7949450    1.5332690  
H    -6.5869750    0.3821780   -1.3803350  
H    -3.3821810   -2.8646220    1.3726930  
