58


C    -1.6033540   -1.0982420   -0.0212380  
C    -0.3811970   -1.7205710   -0.1924570  
C     0.6154750   -0.7036880   -0.0360870  
C    -0.1688480    0.5195250    0.2426760  
N    -1.4504610    0.2952730    0.2430120  
C     0.4702720    1.8070280    0.4912410  
C     1.8343690    1.8013140    0.5839610  
O     2.5583870    2.8849440    0.9238210  
C     2.6468380    0.5883040    0.3187810  
O     3.8708790    0.7118950    0.4409060  
C     1.9973140   -0.7016660   -0.0710820  
H    -0.2086520   -2.7742300   -0.3566500  
H     3.4947800    2.5862740    0.8907750  
C    -2.9107330   -1.6880510   -0.0571990  
C    -3.2422530   -2.9850510   -0.3831870  
C    -4.6723770   -3.0666210   -0.2596710  
C    -5.0824370   -1.6867070    0.1655060  
N    -4.0615770   -0.8909860    0.2808290  
C    -6.4643150   -1.3541890    0.4021330  
C    -7.3853400   -2.3303710    0.2247330  
O    -8.7023490   -2.1668420    0.4061480  
C    -7.0018630   -3.7294430   -0.2049720  
O    -7.9149220   -4.5451310   -0.3376320  
C    -5.5905500   -4.0485580   -0.4392610  
H    -2.5777690   -3.7827340   -0.6852160  
H    -6.7372920   -0.3505980    0.7083380  
H    -9.1021540   -3.0425330    0.2022610  
H    -5.3523970   -5.0626880   -0.7449610  
C     2.3792910   -2.7543140   -1.4466800  
C     2.7874770   -1.8235920   -0.5076090  
C     4.1398750   -2.2965370   -0.1220530  
C     4.3286410   -3.5355510   -0.9333640  
N     3.2928410   -3.7705110   -1.7094810  
C     5.5064460   -4.3438800   -0.8484740  
C     6.4729990   -3.9596640    0.0237320  
O     7.6214090   -4.6148290    0.2118640  
C     6.3125580   -2.7269990    0.8745960  
O     7.2229860   -2.4489790    1.6495940  
C     5.0867220   -1.9068710    0.7534260  
H     5.5987260   -5.2319880   -1.4633090  
H     8.1102050   -4.1086730    0.8989130  
H     5.0262950   -1.0157340    1.3639080  
H     1.4575790   -2.7222380   -2.0149010  
C    -1.5343010    3.0006420    1.3507690  
C    -2.0587600    4.2483420    1.3468130  
C    -1.1809270    5.0971740    0.5763430  
C    -0.0665330    4.2321840    0.1184620  
N    -0.3128000    2.9560840    0.6490530  
C     0.9161100    4.6513020   -0.7146210  
C     0.9190030    6.0529610   -1.1424980  
O     1.7724420    6.5071610   -1.8879630  
C    -0.2204710    6.9964600   -0.6206190  
O    -0.2174230    8.1715130   -0.9527580  
C    -1.2530840    6.4101930    0.2342490  
H    -2.9800670    4.5497020    1.8241480  
H     1.7147060    4.0172720   -1.0740730  
H    -2.0679150    7.0519230    0.5553170  
H    -1.9196240    2.0901860    1.7816360  
