60


C     1.7988520    0.7238930    2.9462320  
C     0.8125190    0.1013020    2.2310190  
C     1.3799490   -0.2883240    0.9713920  
C     2.7394590    0.1220420    0.9919190  
N     2.9603110    0.7516570    2.1960360  
C     3.6349900   -0.0856240   -0.0813790  
C     3.1199940   -0.7922740   -1.1715610  
O     3.9289620   -1.1180270   -2.2116090  
C     1.7762390   -1.2397440   -1.2035430  
O     1.4422770   -1.9027340   -2.3679100  
C     0.8732030   -0.9714300   -0.1688380  
H    -0.2059930   -0.0448390    2.5557280  
H     3.8569920    1.0850010    2.5147450  
H     3.3595500   -1.5968680   -2.8448480  
H     0.9973180   -2.7416780   -2.1235260  
H     1.7755790    1.1593980    3.9350230  
C    -2.8519500    1.2883600    0.3420310  
C    -3.8325440    0.3498140    0.1605030  
C    -3.0726960   -0.8989280   -0.1060490  
C    -1.6449940   -0.4827080   -0.0299690  
N    -1.5383670    0.7913450    0.2328870  
C    -0.5364100   -1.4073930   -0.2636340  
C    -0.9118830   -2.6643510   -0.6358270  
O    -0.0239260   -3.6518240   -0.9407180  
C    -2.3245970   -3.1080870   -0.7425950  
O    -2.5357300   -4.2767720   -1.0771160  
C    -3.4126370   -2.1556710   -0.4431690  
H    -0.5871480   -4.4340710   -1.1503390  
H    -4.4285040   -2.5255240   -0.5001280  
H    -2.9868910    2.3328870    0.5934180  
C    -6.3281380    3.7586980   -1.1936050  
C    -5.3020880    2.8971250   -0.9577580  
C    -5.8472620    1.7442460   -0.2777650  
C    -7.2989440    2.0043880   -0.1430380  
N    -7.5196720    3.2494930   -0.6970500  
C    -8.2033540    1.1559680    0.4149690  
C    -7.7208650   -0.1218470    0.9028790  
O    -8.4397390   -0.9722630    1.4049160  
C    -6.1833990   -0.4389880    0.7687030  
O    -5.7967990   -1.5240510    1.1694100  
C    -5.2690690    0.5768130    0.1815970  
H    -4.2750690    3.0423420   -1.2535500  
H    -9.2617210    1.3806260    0.5013630  
H    -6.3160570    4.7197280   -1.6901910  
H    -8.4243470    3.6850550   -0.7861870  
C     7.1495600   -0.4864260    2.6799760  
C     5.9108550   -0.6292450    2.1461800  
C     5.9343280    0.1570790    0.9150980  
C     7.3193160    0.7100920    0.8726900  
N     8.0227960    0.3339900    1.9059020  
C     7.7770570    1.5357740   -0.2151090  
C     6.9004850    1.8038240   -1.2084730  
O     7.1829890    2.5623810   -2.2809250  
C     5.4800920    1.2988850   -1.1793930  
O     4.7320970    1.7010580   -2.0629260  
C     5.0248280    0.3972010   -0.0678300  
H     5.0865290   -1.2204240    2.5188140  
H     8.7921090    1.9171510   -0.2186680  
H     6.3429290    2.6133200   -2.7883970  
H     7.5328190   -0.9264530    3.5934010  
