60


C     0.4614240    1.4612980   -0.0880310  
C     1.7255810    0.9235600   -0.0768900  
C     1.5511310   -0.5033840   -0.0249070  
C     0.0707250   -0.6929480   -0.0124010  
N    -0.5503490    0.4436810   -0.0572500  
C    -0.5474370   -2.0254850    0.0222110  
C     0.3464260   -3.0708670    0.0302140  
O    -0.0410240   -4.3746670    0.0838320  
C     1.8075790   -2.9172920    0.0181710  
O     2.4931490   -3.9476490    0.0941020  
C     2.4136430   -1.5573000   -0.0545220  
H     2.6682420    1.4493030   -0.0782660  
H     0.8083550   -4.8745600    0.1073380  
C     0.0855180    2.8474060   -0.1265780  
C     0.9138200    3.9464830   -0.1526540  
C     0.0466760    5.0919530   -0.1870770  
C    -1.3352410    4.5048250   -0.1771660  
N    -1.3112000    3.2067960   -0.1418010  
C    -2.5071940    5.3442680   -0.2047110  
C    -2.3199670    6.6838750   -0.2396080  
O    -3.3114230    7.5863240   -0.2680840  
C    -0.9394690    7.3035400   -0.2499000  
O    -0.8806930    8.5346410   -0.2823070  
C     0.2379840    6.4351820   -0.2216530  
H     1.9948710    3.9592380   -0.1463360  
H    -3.4952550    4.8979110   -0.1971880  
H    -2.8585450    8.4600400   -0.2893210  
H     1.2119320    6.9148090   -0.2298270  
C     5.3112960    0.5200510    2.5469530  
C     6.4940150    0.1666230    1.9956370  
C     6.1451200   -0.6645070    0.8479750  
C     4.6446270   -0.7036860    0.8684550  
N     4.1692470   -0.0109840    1.8597240  
C     3.8822420   -1.4582620   -0.1164510  
C     4.6088060   -2.0980920   -1.0787290  
O     4.0637950   -2.7745370   -2.0926340  
C     6.1165410   -2.0626850   -1.1214180  
O     6.6671410   -2.6741010   -2.0339970  
C     6.8566050   -1.3126040   -0.0938140  
H     7.4916010    0.4283180    2.3195890  
H     4.8203620   -3.1362260   -2.6071910  
H     7.9405930   -1.3200750   -0.1541140  
H     5.1385920    1.1362790    3.4210680  
C    -1.9785830   -2.1839040    0.0522230  
C    -2.9921540   -1.2206510    0.0524220  
C    -4.2300030   -1.9054110    0.0893070  
C    -3.9403080   -3.3043740    0.1127790  
N    -2.5786950   -3.4418970    0.0893670  
C    -4.9441200   -4.2794210    0.1522500  
C    -6.2581920   -3.8389280    0.1679720  
O    -7.2755930   -4.7402990    0.2062010  
C    -6.5677770   -2.4444000    0.1445880  
O    -7.9241360   -2.1848490    0.1647990  
C    -5.5814790   -1.4852650    0.1058610  
H    -2.8201260   -0.1558200    0.0255560  
H    -2.0523520   -4.3034830    0.1019540  
H    -4.7338820   -5.3435440    0.1705560  
H    -8.1087820   -4.2370010    0.2114680  
H    -8.0710630   -1.2274790    0.1476300  
H    -5.8342930   -0.4273620    0.0884660  
