60


C     2.2697320   -1.4551130   -0.3979140  
C     3.3608500   -0.6107930   -0.1934360  
C     2.7977010    0.6959340    0.1018970  
C     1.3925950    0.5703050    0.0244620  
N     1.1122280   -0.7512240   -0.2974300  
C     0.4959740    1.6483310    0.2113740  
C     1.0950340    2.8536250    0.6134450  
O     0.3271070    3.9234010    0.9468260  
C     2.5043500    2.9840430    0.7059930  
O     2.9143480    4.2455640    1.0908760  
C     3.3627050    1.9388180    0.4334830  
H     0.1976610   -1.1487720   -0.0976140  
H     0.9343830    4.6562030    1.1530550  
H     3.8818750    4.2685670    1.1362500  
H     4.4411420    2.0424500    0.4959180  
H     2.2542910   -2.5181060   -0.5930170  
C    -2.5922300   -1.3147600    1.3941580  
C    -3.7487480   -0.7045080    1.0203820  
C    -3.3039150    0.5396250    0.3647670  
C    -1.8101280    0.5130410    0.4754440  
N    -1.4182540   -0.5907760    1.0578330  
C    -0.9646550    1.5844520   -0.0277200  
C    -1.6242940    2.5528200   -0.7427160  
O    -1.0104820    3.5503190   -1.3866310  
C    -3.1174460    2.6048620   -0.8676460  
O    -3.6095380    3.5354190   -1.5043450  
C    -3.9433210    1.5465670   -0.2539130  
H    -1.7313280    4.0914620   -1.7799510  
H    -5.0194050    1.6189190   -0.3727430  
H    -2.4875080   -2.2723280    1.8907680  
C    -5.5929940   -1.6007570    2.4709280  
C    -5.1152330   -1.1441860    1.2739910  
C    -6.2279990   -1.2371110    0.3285790  
C    -7.3815600   -1.7763660    1.0919740  
N    -6.9203310   -1.9880430    2.3778720  
C    -8.6134710   -2.0025460    0.5712560  
C    -8.8329700   -1.7157710   -0.8443970  
O    -9.9080530   -1.8798840   -1.3988840  
C    -7.6164300   -1.1817790   -1.6839640  
O    -7.7681600   -0.9585930   -2.8737070  
C    -6.3348870   -0.9703510   -0.9990910  
H    -9.4432170   -2.3967360    1.1499530  
H    -5.5047210   -0.6079580   -1.5965710  
H    -5.0721440   -1.6694340    3.4169330  
H    -7.4912140   -2.2933510    3.1507920  
C     4.7369310   -0.9920950   -0.2581050  
C     5.2964440   -2.2115790   -0.5888170  
C     6.7074630   -2.0448840   -0.4839760  
C     6.8795860   -0.6069960   -0.0633150  
N     5.7355480   -0.0018420    0.0643550  
C     8.1821250   -0.0361440    0.1537210  
C     9.2521660   -0.8429170   -0.0368580  
O    10.5242540   -0.4651270    0.1229640  
C     9.1126970   -2.2986870   -0.4626080  
O    10.1723890   -2.9214940   -0.5997230  
C     7.7918270   -2.8520250   -0.6745670  
H     4.7786620   -3.1147650   -0.8808090  
H     8.2839950    1.0000320    0.4567460  
H    11.0466190   -1.2759490   -0.0907590  
H     7.7242630   -3.8921910   -0.9772250  
