58


C     1.2292380    2.3595570   -0.2190510  
C     2.4769320    1.8313530   -0.3026260  
C     2.3963700    0.4456570    0.0875450  
C     0.9783510    0.2095220    0.4436300  
N     0.2961310    1.3970370    0.1915110  
C     0.4964880   -0.9479550    0.9764210  
C     1.4201130   -2.0575380    1.1686590  
O     1.0922270   -3.1125710    1.6901140  
C     2.8871550   -1.8936910    0.6434830  
O     3.5769930   -2.8901650    0.5510340  
C     3.3461390   -0.5446140    0.2056030  
H     3.3701130    2.3653150   -0.5860290  
H    -0.5202530   -1.0616100    1.3348420  
H     0.8931280    3.3667220   -0.4120540  
C    -3.2219110   -0.8603740   -1.0593460  
C    -4.2005790   -0.0912680   -0.5000560  
C    -3.5154410    1.0379780    0.1412420  
C    -2.0679470    0.8272990   -0.0910570  
N    -1.9581510   -0.3155790   -0.8464590  
C    -1.0801080    1.6453150    0.3909740  
C    -1.4853710    2.8444760    1.1352020  
O    -0.6851100    3.6665400    1.5524810  
C    -3.0199400    3.0750900    1.3827330  
O    -3.3577880    4.0555270    2.0221590  
C    -3.9758300    2.1088370    0.8348610  
H    -5.0302620    2.3010710    0.9901430  
H    -3.3222680   -1.7610180   -1.6509280  
H    -1.0863510   -0.7776400   -1.0597970  
C    -6.4724480   -3.7254680    0.4669240  
C    -7.7247110   -3.3044600    0.1603030  
C    -7.6204270   -1.9327630   -0.2935220  
C    -6.1793890   -1.5862920   -0.2295200  
N    -5.5339110   -2.7274380    0.2044470  
C    -5.6438090   -0.3643690   -0.5389700  
C    -6.5935940    0.6754280   -0.9772080  
O    -6.2429920    1.8029300   -1.2869460  
C    -8.1248450    0.3203650   -1.0642850  
O    -8.9011130    1.1908540   -1.4224320  
C    -8.5504870   -1.0303040   -0.7041980  
H    -8.6344700   -3.8815560    0.2381900  
H    -9.6093680   -1.2615540   -0.7641780  
H    -6.1418960   -4.6826310    0.8480370  
H    -4.5734200   -2.7411170    0.5141260  
C     4.7500280   -0.3467100   -0.1126260  
C     5.3008790    0.4103770   -1.1125620  
C     6.7334090    0.2612990   -0.9744740  
C     6.8931850   -0.6372650    0.2138220  
N     5.7463350   -0.9935110    0.7082550  
C     8.1964750   -1.0166910    0.6996340  
C     9.2774070   -0.5503380    0.0319660  
O    10.5473420   -0.8265590    0.3633690  
C     9.1460260    0.3448760   -1.1773610  
O    10.1858500    0.7207740   -1.7180680  
C     7.8079120    0.7311460   -1.6477730  
H     4.7856040    0.9511200   -1.8936820  
H     8.2853740   -1.6634660    1.5652090  
H    11.0973430   -0.3514750   -0.2988990  
H     7.7550070    1.3847770   -2.5131610  
