60


C    -2.9662380   -1.8907590   -0.0541910  
C    -3.9347300   -0.8909970   -0.0932630  
C    -3.2188250    0.3482790   -0.3435260  
C    -1.8489640    0.0241760   -0.4538040  
N    -1.7370690   -1.3469540   -0.2742670  
C    -0.8240980    0.9731140   -0.6730320  
C    -1.2555290    2.3013520   -0.7749700  
O    -0.3520110    3.2973160   -1.0047580  
C    -2.6278260    2.6405590   -0.6701400  
O    -2.8689880    3.9924710   -0.8057170  
C    -3.6117630    1.6927170   -0.4619800  
H    -0.8594750   -1.8457660   -0.2449260  
H    -0.8564840    4.1267430   -1.0854110  
H    -3.8240100    4.1548600   -0.7832660  
H    -4.6610390    1.9569960   -0.3807790  
H    -3.0790820   -2.9522190    0.1136030  
C     1.0698110   -0.5143650   -1.4813240  
C     0.5772780    0.5656450   -0.8107950  
C     1.7772150    1.1699800   -0.1913170  
C     2.9048830    0.2962800   -0.6194550  
N     2.4748160   -0.6807130   -1.3666360  
C     4.2945060    0.5359140   -0.2096840  
C     4.4720610    1.6222150    0.6092510  
O     5.6751890    2.0361080    1.0626930  
C     3.3568240    2.4924530    1.0667380  
O     3.6348830    3.4501670    1.7949000  
C     1.9742940    2.2123270    0.6318910  
H     5.4744780    2.8373900    1.5991200  
H     1.1941840    2.8828730    0.9720490  
H     0.5202920   -1.2110330   -2.1042650  
C     5.3475840   -1.0763810   -1.8428120  
C     5.3575670   -0.3393780   -0.6851950  
C     6.6531100   -0.6912510   -0.0562960  
C     7.2763800   -1.6440680   -1.0248370  
N     6.5087270   -1.8495810   -2.0612630  
C     8.5606580   -2.2472530   -0.7929930  
C     9.1977970   -1.9545070    0.3655410  
O    10.3925910   -2.4495560    0.7223480  
C     8.5850300   -1.0291760    1.3792350  
O     9.2157120   -0.8196970    2.4141650  
C     7.2707430   -0.4099290    1.1077820  
H     8.9784050   -2.9230820   -1.5308810  
H    10.5817970   -2.0602260    1.6047940  
H     6.8840310    0.2673930    1.8576470  
H     4.5503770   -1.1172130   -2.5700410  
C    -5.3439330   -1.0800930    0.0858680  
C    -6.0520510   -2.2404460    0.3162540  
C    -7.4239880   -1.8564200    0.4170190  
C    -7.4052470   -0.3625500    0.2185970  
N    -6.1981010    0.0815070    0.0271670  
C    -8.6135260    0.4178410    0.2492650  
C    -9.7747510   -0.2436930    0.4639630  
O   -10.9773970    0.3365330    0.5202500  
C    -9.8276660   -1.7512130    0.6677240  
O   -10.9498310   -2.2319900    0.8545560  
C    -8.5955780   -2.5178840    0.6327760  
H    -5.6619830   -3.2451260    0.4032540  
H    -8.5770890    1.4918150    0.1042550  
H   -11.6033040   -0.4083240    0.6869700  
H    -8.6670520   -3.5906430    0.7816290  
