62


C     1.0786760    1.0482690   -0.2003510  
C    -0.3035570    1.1964170   -0.1673050  
C    -0.8838770   -0.0978210   -0.0738720  
C     0.1942530   -1.0187340   -0.0620490  
N     1.3686710   -0.3042460   -0.1019710  
C     0.0563240   -2.4248450   -0.0550830  
C    -1.2531130   -2.8949060   -0.0551370  
O    -1.5017130   -4.2224760   -0.0211040  
C    -2.3752130   -2.0089920   -0.0518980  
O    -3.5519770   -2.6646750   -0.0337600  
C    -2.2331060   -0.5979250   -0.0332580  
H    -0.8050980    2.1501450   -0.1972820  
H     2.2608100   -0.7225410   -0.3274790  
H    -2.4724710   -4.3236680   -0.0381940  
H    -4.2867240   -1.9689040   -0.0653410  
C     3.3692090   -2.7598260    2.8531950  
C     4.0956480   -3.7206960    2.2012400  
C     3.3787370   -4.0526130    1.0014940  
C     2.2139590   -3.2441040    0.9769210  
N     2.2419560   -2.4513940    2.1087920  
C     1.2424880   -3.3106200   -0.0477420  
C     1.4867260   -4.2324590   -1.0687790  
O     0.6237750   -4.3292900   -2.1145950  
C     2.6501450   -5.0473350   -1.0565000  
O     2.7384050   -5.8924860   -2.1458550  
C     3.5915540   -4.9672590   -0.0489390  
H     5.0317820   -4.1461860    2.5356830  
H     1.4758630   -1.8750240    2.4218250  
H     0.9538590   -5.0364750   -2.6961160  
H     3.5297850   -6.4452280   -2.0666840  
H     4.4749590   -5.6022120   -0.0680840  
H     3.5602170   -2.2557890    3.7901820  
C    -3.3904100    0.2533920    0.0311940  
C    -3.5228970    1.6196570    0.1844110  
C    -4.9218120    1.9001100    0.1846870  
C    -5.5811580    0.5609630    0.0195500  
N    -4.6852230   -0.3808190   -0.0625840  
C    -7.0047140    0.4084390   -0.0296210  
C    -7.7447660    1.5391820    0.0850600  
O    -9.0751460    1.5718210    0.0600870  
C    -7.1141140    2.9173080    0.2583250  
O    -7.9055780    3.8603430    0.3514380  
C    -5.6706790    3.0349200    0.3020650  
H    -2.7438200    2.3512430    0.3194810  
H    -7.4559140   -0.5696720   -0.1527400  
H    -9.3043570    2.5273060    0.1658830  
H    -5.2478990    4.0265040    0.4263350  
C     2.1163400    2.0365970   -0.2674070  
C     2.0687640    3.3427470   -0.6870710  
C     3.3817660    3.9078800   -0.5485600  
C     4.2374000    2.8280910    0.0002870  
N     3.4361540    1.6943050    0.0912010  
C     5.5410690    2.9790840    0.3334760  
C     6.1694360    4.2814430    0.1083810  
O     7.3394980    4.5051020    0.3775850  
C     5.2950230    5.4280060   -0.5179420  
O     5.8130550    6.5171310   -0.7224470  
C     3.8948170    5.1432660   -0.8163020  
H     1.2040710    3.8377400   -1.1055020  
H     6.1511920    2.1798210    0.7435860  
H     3.2946880    5.9474990   -1.2309770  
H     3.6280810    0.9709310    0.7717440  
