58


C     0.6251100    0.6841680   -0.4300910  
C     0.7243040    2.0614460   -0.4576980  
C     2.1183520    2.4056320   -0.3962210  
C     2.8514550    1.1202200   -0.3119440  
N     1.8957920    0.1248930   -0.3060720  
C     4.2110480    1.0078730   -0.2054260  
C     4.9841060    2.2673360   -0.3448280  
O     6.1874810    2.2835230   -0.5279790  
C     4.2162990    3.6356620   -0.3298040  
O     4.8637570    4.6711400   -0.2817760  
C     2.7603100    3.6080570   -0.3882350  
H    -0.0776800    2.7655210   -0.6254820  
H     2.2333390    4.5571720   -0.4124440  
H     2.0722590   -0.8344240   -0.5918640  
C    -3.5363280    1.5082500    0.6270600  
C    -4.1388890    0.3448580    0.2355440  
C    -3.0651490   -0.5154610   -0.2760190  
C    -1.8163410    0.2688680   -0.1612690  
N    -2.1754540    1.4823610    0.3762380  
C    -0.5549830   -0.1610850   -0.5126670  
C    -0.4604240   -1.5621150   -0.9630230  
O     0.5990530   -2.1414490   -1.1580310  
C    -1.7851650   -2.3638230   -1.2118980  
O    -1.7074530   -3.4675200   -1.7222870  
C    -3.0583830   -1.7644020   -0.8072720  
H    -3.9515980   -2.3650960   -0.9232320  
H    -3.9853970    2.3737980    1.0949000  
H    -1.5036710    2.1414970    0.7462470  
C    -7.7844130    2.7740150   -0.5999090  
C    -6.4901330    2.3749140   -0.5499650  
C    -6.5267730    1.0298640    0.0168010  
C    -7.9802140    0.7782150    0.2429310  
N    -8.7079970    1.8001790   -0.1104610  
C    -8.4633270   -0.4669420    0.7820110  
C    -7.5512440   -1.4215050    1.0735000  
O    -7.8609170   -2.6320340    1.5666410  
C    -6.0780140   -1.2014060    0.8691230  
O    -5.3249720   -2.1195740    1.1852420  
C    -5.5786080    0.1009900    0.3229610  
H    -5.6173930    2.9137930   -0.8895590  
H    -9.5264130   -0.6177400    0.9324120  
H    -7.0066040   -3.0980390    1.6928490  
H    -8.1761500    3.7143980   -0.9688980  
C     7.2909990   -0.0925590    2.7030160  
C     7.6482880   -1.3324670    2.3010860  
C     6.7758210   -1.6289990    1.1674620  
C     5.9571780   -0.3865490    1.0034710  
N     6.2403690    0.4897100    1.9168780  
C     4.9354690   -0.2606850   -0.0353410  
C     4.7051430   -1.3847790   -0.7707290  
O     3.7651770   -1.4587870   -1.7379040  
C     5.4909180   -2.6498250   -0.6082440  
O     5.2081980   -3.5931520   -1.3471970  
C     6.5588960   -2.7173220    0.4056300  
H     8.3965510   -1.9875010    2.7250750  
H     3.8268210   -2.3753880   -2.0915390  
H     7.0978480   -3.6553990    0.4977650  
H     7.6946760    0.4875840    3.5239160  
