62


C     1.8002090   -0.1978740   -0.6434630  
C     2.6387020    0.3828340    0.2941880  
C     1.9157220    1.5232640    0.8185970  
C     0.6572950    1.5645180    0.1689110  
N     0.6261060    0.5083350   -0.7214570  
C    -0.3131110    2.5687620    0.3968610  
C     0.0732250    3.5543710    1.3054180  
O    -0.7849790    4.6002240    1.5852990  
C     1.3306600    3.5435880    1.9532090  
O     1.5199140    4.6141410    2.8047470  
C     2.2541270    2.5416130    1.7278290  
H    -0.1767830    0.2548370   -1.2778490  
H    -0.3449540    5.1618240    2.2502150  
H     2.3762110    4.5340280    3.2505910  
H     3.2245320    2.5614560    2.2158790  
H     1.9399280   -1.0922510   -1.2330590  
C    -3.4328580   -0.6410090   -0.2429760  
C    -2.3322580    0.1113320    0.1860270  
C    -2.4242850    1.3994630   -0.3968250  
C    -3.6248030    1.4100470   -1.1737260  
N    -4.1974270    0.1733430   -1.0703090  
C    -4.0752890    2.5426430   -1.8601360  
C    -3.3097230    3.6882640   -1.7318640  
O    -3.6882560    4.8345710   -2.3422050  
C    -2.1008800    3.7080540   -0.9623960  
O    -1.4684390    4.9276300   -0.9808410  
C    -1.6166470    2.5789770   -0.3125690  
H    -1.5945250   -0.2167100    0.9006060  
H    -5.0959950   -0.1228080   -1.4280780  
H    -4.9880110    2.5565910   -2.4455840  
H    -3.0202060    5.5033310   -2.0930860  
H    -1.1588810    5.1227440   -0.0683550  
C    -1.3844270   -4.1759950    1.6386250  
C    -1.5720430   -2.9604430    1.0586100  
C    -2.9778120   -2.9260800    0.6772320  
C    -3.4860310   -4.2440420    1.1057840  
N    -2.5586970   -4.9709250    1.6784130  
C    -4.8513940   -4.6529100    0.8905040  
C    -5.6744200   -3.7983670    0.2437060  
O    -6.9622240   -4.0724030   -0.0550760  
C    -5.2005980   -2.4633190   -0.2231400  
O    -6.0147510   -1.7825880   -0.8595170  
C    -3.8002990   -1.9960770    0.0814900  
H    -0.8228320   -2.2042230    0.8780870  
H    -5.1826830   -5.6300910    1.2243840  
H    -7.2943510   -3.2866230   -0.5369370  
H    -0.4659030   -4.5828980    2.0446440  
C     4.6174440    0.0568090    1.8630170  
C     3.9582400   -0.0729980    0.6748790  
C     4.9249830   -0.7997160   -0.1863950  
C     6.1017410   -1.0330910    0.6927920  
N     5.9151720   -0.5219780    1.8791690  
C     7.2733410   -1.7196530    0.2168580  
C     7.2910430   -2.1301730   -1.0750630  
O     8.3182500   -2.7867340   -1.6456680  
C     6.1367170   -1.8767480   -1.9944680  
O     6.2209860   -2.2724360   -3.1572840  
C     4.9430380   -1.1674310   -1.4801500  
H     8.1110120   -1.8876070    0.8848850  
H     8.0433530   -2.9398380   -2.5757250  
H     4.1442840   -0.9742320   -2.1895150  
H     4.2480680    0.5101260    2.7743240  
