62


C    -0.6065700   -0.6679920    2.7686320  
C    -1.8582110   -0.9187470    2.2547550  
C    -2.0588910   -0.0198480    1.1594650  
C    -0.8792950    0.7596990    1.0582760  
N    -0.0199010    0.3424650    2.0520360  
C    -0.6977940    1.8240100    0.1389770  
C    -1.8060650    2.0873140   -0.6622080  
O    -1.7679770    3.1240510   -1.5726400  
C    -3.0037810    1.3368930   -0.6105160  
O    -3.9332660    1.7612930   -1.4955010  
C    -3.1601830    0.2375430    0.2751620  
H    -2.5544980   -1.6353250    2.6590880  
H     0.9136450    0.7013340    2.1853240  
H    -2.6342670    3.1112810   -2.0279090  
H    -4.7549170    1.1823550   -1.3661340  
H    -0.0900030   -1.1307190    3.5974050  
C     3.6472640    0.6058130   -0.0705460  
C     2.2509300    0.6210490   -0.0691710  
C     1.8358490    1.9719630    0.0507870  
C     3.0282120    2.7662980    0.1036980  
N     4.0929840    1.9139180    0.0426260  
C     3.0078730    4.1637230    0.1728310  
C     1.7641420    4.7686130    0.1555730  
O     1.6595920    6.1167460    0.1946510  
C     0.5529110    4.0050540    0.0990660  
O    -0.5750240    4.7839660    0.1207900  
C     0.5535910    2.6126020    0.0836440  
H     1.6189030   -0.2492800   -0.1702160  
H     5.0787130    2.1388400    0.0385290  
H     3.9086180    4.7664740    0.2105360  
H     0.7032610    6.3129890    0.1455390  
H    -1.2171110    4.4119800   -0.5273500  
C     4.5969950   -0.4516360   -0.1679790  
C     4.4232120   -1.8121530   -0.2930440  
C     5.7400540   -2.3666870   -0.3468140  
C     6.6540310   -1.1745820   -0.2373380  
N     5.9829870   -0.0632880   -0.1333050  
C     8.0845380   -1.3176650   -0.2524190  
C     8.5816120   -2.5719520   -0.3699030  
O     9.8841200   -2.8686390   -0.3991170  
C     7.6868740   -3.7966440   -0.4825000  
O     8.2665870   -4.8833100   -0.5836140  
C     6.2459260   -3.6274920   -0.4648700  
H     3.4902890   -2.3556000   -0.3460040  
H     8.7245610   -0.4460720   -0.1726410  
H     9.9113580   -3.8511650   -0.4910830  
H     5.6333310   -4.5195800   -0.5478220  
C    -4.3612260   -0.5501800    0.2492020  
C    -4.7067110   -1.7262320    0.8872820  
C    -6.0310470   -2.0472610    0.4691450  
C    -6.4143050   -0.9426000   -0.4737470  
N    -5.4384830   -0.0883580   -0.5961560  
C    -7.6920160   -0.8962430   -1.1198920  
C    -8.5520940   -1.9085350   -0.8460440  
O    -9.7744840   -2.0165320   -1.3621380  
C    -8.1996550   -3.0513230    0.1010810  
O    -9.0788040   -3.9055690    0.2571720  
C    -6.9008830   -3.0653390    0.7387700  
H    -4.0960900   -2.3269770    1.5405090  
H    -7.9461800   -0.0860590   -1.7940760  
H   -10.1360090   -2.8494160   -0.9708340  
H    -6.6743890   -3.8890650    1.4077860  
