60


C     1.9637480    3.8730130   -1.6839730  
C     3.0165700    3.0313140   -1.4144340  
C     2.5011250    1.9292290   -0.6585420  
C     1.1171430    2.1647540   -0.4991930  
N     0.8220680    3.3590380   -1.1179480  
C     0.2159040    1.2618390    0.1243680  
C     0.7816470    0.0598910    0.5696050  
O     0.0390970   -0.8777010    1.2176210  
C     2.1724930   -0.2059290    0.4459190  
O     2.5237660   -1.3999600    0.9746780  
C     3.0753910    0.7225190   -0.1329840  
H     4.0252680    3.1809410   -1.7638200  
H    -0.1150760    3.7088250   -1.2517370  
H     0.6723870   -1.5788020    1.4703370  
H     3.5152390   -1.5210380    0.8173200  
H     1.9385200    4.8020970   -2.2349950  
C    -1.1920710    1.5832680    0.2820380  
C    -1.7613910    2.8094220    0.5165060  
C    -3.1818660    2.5754580    0.6148790  
C    -3.3389430    1.1067460    0.3456680  
N    -2.1751850    0.5453720    0.1761050  
C    -4.6336780    0.4480000    0.3065030  
C    -5.6838320    1.2332220    0.7154530  
O    -6.9226410    0.7743500    0.8913180  
C    -5.5526610    2.7017910    1.0266030  
O    -6.5766760    3.3008220    1.3585770  
C    -4.2416000    3.3496420    0.9352880  
H    -1.2558520    3.7429440    0.7224290  
H    -7.4623980    1.5591140    1.1405450  
H    -4.1862370    4.4106060    1.1574040  
C    -2.4175810   -3.4081310    0.8308110  
C    -3.3082830   -4.2466460    0.2393670  
C    -4.3884060   -3.4287500   -0.2614680  
C    -4.0537980   -2.0285790    0.1234500  
N    -2.8609850   -2.0933190    0.8134310  
C    -4.8471410   -0.9386880   -0.1462150  
C    -5.9892060   -1.1978660   -1.0624040  
O    -6.5911270   -0.3058620   -1.6344960  
C    -6.4172590   -2.6776050   -1.3611900  
O    -7.4721420   -2.8706520   -1.9475080  
C    -5.5256200   -3.7465730   -0.9379230  
H    -3.2273330   -5.3199900    0.1474980  
H    -5.8011570   -4.7692770   -1.1768790  
H    -1.4672060   -3.6389120    1.2939920  
H    -2.2387380   -1.2812560    0.8491900  
C     4.4874080    0.4447520   -0.1576200  
C     5.5684840    1.2285420   -0.5057210  
C     6.7346630    0.4244670   -0.3209760  
C     6.2162520   -0.8960840    0.1699240  
N     4.9177950   -0.8682190    0.2656860  
C     7.0848630   -1.9934970    0.4777260  
C     8.4147650   -1.7876270    0.3102750  
O     9.3521710   -2.7019350    0.5515190  
C     8.9812060   -0.4604830   -0.1806440  
O    10.2092540   -0.4059070   -0.2879300  
C     8.0726340    0.6295130   -0.4849040  
H     5.5648630    2.2610350   -0.8129780  
H     6.6847410   -2.9385040    0.8274350  
H    10.2050040   -2.2522340    0.3373010  
H     8.5027480    1.5635670   -0.8313520  
