60


C    -2.4290400   -0.6481230   -0.4159060  
C    -3.7084130   -0.1446460   -0.3054380  
C    -3.5777390    1.2998770   -0.1700780  
C    -2.1987190    1.6040280   -0.1905690  
N    -1.5199630    0.3921530   -0.3499240  
C    -1.6811560    2.8937020   -0.0540510  
C    -2.5962390    3.9218750    0.1147630  
O    -2.1602810    5.2014020    0.2475580  
C    -3.9899980    3.6452440    0.1488940  
O    -4.7691670    4.7672940    0.3228990  
C    -4.4846000    2.3619980    0.0133670  
H    -0.6188410    3.1098360   -0.0700460  
H    -2.9436590    5.7690320    0.3553030  
H    -5.7069520    4.5242210    0.3031180  
H    -5.5544810    2.1843510    0.0190030  
H    -2.0874610   -1.6593170   -0.5792620  
C     0.5368960    0.4451720   -1.6786620  
C     1.8751250    0.3597320   -1.4532780  
C     2.0767760    0.1217140   -0.0440860  
C     0.7319770    0.0946060    0.5638670  
N    -0.1672720    0.2508650   -0.4914080  
C     0.4529430   -0.0603070    1.8808540  
C     1.5802730   -0.1860070    2.7923340  
O     1.4625200   -0.3565640    3.9937200  
C     3.0299480   -0.0841970    2.1956970  
O     3.9555330   -0.0223220    2.9933410  
C     3.2173250   -0.0495670    0.7226250  
H     2.6430830    0.4938140   -2.1977620  
H    -0.5552160   -0.0918680    2.2788110  
H    -0.0111520    0.6344780   -2.5915500  
C     4.5508890   -0.1744650    0.1610480  
C     4.9367190   -0.5554790   -1.1101890  
C     6.3712030   -0.5771780   -1.1520070  
C     6.8279250   -0.1825880    0.2038290  
N     5.6876480    0.0601950    0.9365880  
C     8.1307860   -0.0982720    0.5757830  
C     9.1582090   -0.4082850   -0.4141800  
O    10.3547010   -0.3587240   -0.1721770  
C     8.6961810   -0.8237220   -1.8596840  
O     9.5427530   -1.0841740   -2.7017660  
C     7.2609810   -0.8824770   -2.1392730  
H     4.2843360   -0.8608620   -1.9128930  
H     8.4480460    0.1896500    1.5730830  
H     6.9529050   -1.1738740   -3.1390010  
H     5.6223030    0.2032560    1.9364720  
C    -4.7105230   -4.1385370    1.4176160  
C    -4.0650510   -2.9744950    1.1628610  
C    -4.9632160   -2.2193450    0.2919960  
C    -6.1416360   -3.1147490    0.1385460  
N    -5.9882410   -4.2359410    0.7871880  
C    -7.2932300   -2.7349480   -0.6408180  
C    -7.2797690   -1.5164510   -1.2245070  
O    -8.2914040   -1.0215740   -1.9615020  
C    -6.1078880   -0.5849970   -1.0919150  
O    -6.1967670    0.5026450   -1.6598840  
C    -4.8952340   -0.9985530   -0.3127950  
H    -3.1099440   -2.6482160    1.5478830  
H    -8.1349950   -3.4121980   -0.7328350  
H    -7.9898450   -0.1367950   -2.2601730  
H    -4.3766450   -4.9636100    2.0353560  
