60


C     2.9080830   -1.9082110   -0.4229990  
C     1.6063740   -1.5659550   -0.2454140  
C     1.5720860   -0.2056240    0.2327940  
C     2.9097830    0.2454380    0.3201070  
N     3.7396940   -0.8290940   -0.0852860  
C     3.2341460    1.5419530    0.7237930  
C     2.1812790    2.3893010    1.0471570  
O     2.4515950    3.6601260    1.4560360  
C     0.8384650    1.9527270    0.9746160  
O    -0.0783250    2.9080440    1.3545350  
C     0.5043770    0.6578560    0.5689820  
H     0.7563590   -2.2030290   -0.4454910  
H     4.2563390    1.8848100    0.7882920  
H     1.6016430    4.0923610    1.6487100  
H    -0.9717050    2.5306890    1.3417160  
H     3.3406210   -2.8335580   -0.7680200  
C    -1.4292850   -0.8980880    1.1196000  
C    -0.9001100    0.2065380    0.5191450  
C    -2.0021650    0.8214670   -0.2167300  
C    -3.2079220   -0.0155310    0.0359480  
N    -2.7921710   -1.0169330    0.8828390  
C    -4.4777650    0.2296550   -0.4589830  
C    -4.5668310    1.4006720   -1.3469190  
O    -5.6114520    1.7876400   -1.8649930  
C    -3.2879690    2.2634950   -1.6676360  
O    -3.4131300    3.2052610   -2.4320430  
C    -2.0311450    1.9159210   -1.0218370  
H    -1.1559920    2.5217160   -1.2319440  
H    -0.9293270   -1.6296300    1.7410180  
H    -3.2882160   -1.9046770    0.8862410  
C    -8.7189970    1.2982870    0.3850580  
C    -9.2246820    0.0683380    0.6411140  
C    -8.1446970   -0.8772310    0.4646390  
C    -6.9418980   -0.0763390    0.0927950  
N    -7.3537310    1.2341640    0.1024310  
C    -5.6771250   -0.5907060   -0.1483630  
C    -5.5912430   -2.0558090   -0.0653980  
O    -4.5524930   -2.6912740   -0.2377840  
C    -6.8625040   -2.9165850    0.2909820  
O    -6.7350760   -4.1288360    0.3360510  
C    -8.1127860   -2.2294220    0.5714870  
H   -10.2391190   -0.1728740    0.9228480  
H    -8.9802090   -2.8244490    0.8387460  
H    -9.2130350    2.2609680    0.3891090  
H    -6.8700560    1.9134120   -0.4782030  
C     5.1079290   -0.8813470   -0.1629840  
C     5.8919680   -1.9442100   -0.5710840  
C     7.2324610   -1.4771500   -0.4628140  
C     7.0972670   -0.0612140    0.0429000  
N     5.8471200    0.2710610    0.2127840  
C     8.2391300    0.7697360    0.2887180  
C     9.4570710    0.2268700    0.0456770  
O    10.6146240    0.8623900    0.2216500  
C     9.6323020   -1.2013260   -0.4662410  
O    10.8002050   -1.5635960   -0.6429490  
C     8.4622250   -2.0174060   -0.7054130  
H     5.5789570   -2.9217840   -0.9043010  
H     8.1151890    1.7836960    0.6518640  
H    11.3011580    0.2013590   -0.0411060  
H     8.6164820   -3.0280690   -1.0690400  
