62


C     2.1972900   -1.3387730   -0.0249680  
C     0.9717830   -0.7804990   -0.3084770  
C     1.1971070    0.6387110   -0.5163590  
C     2.5730820    0.8792930   -0.3195600  
N     3.1777420   -0.3595040   -0.0085990  
C     3.1480120    2.1377000   -0.5226580  
C     2.3061010    3.1788730   -0.8965030  
O     2.8205790    4.4239990   -1.0869150  
C     0.9208110    2.9517220   -1.0892650  
O     0.2009450    4.0595750   -1.4700500  
C     0.3659930    1.6956230   -0.9203450  
H     4.2054940    2.3337470   -0.3969400  
H     2.0858500    5.0088210   -1.3418540  
H    -0.7417270    3.8275650   -1.5146130  
H    -0.6836900    1.5448440   -1.1537640  
H     2.4426170   -2.3586460    0.2216600  
C    -0.2869340   -1.4820950   -0.3492440  
C    -0.5791180   -2.8048290   -0.5781520  
C    -2.0023270   -2.9719590   -0.4838450  
C    -2.5578680   -1.6285100   -0.1804380  
N    -1.4831100   -0.7772820   -0.1431500  
C    -3.8810130   -1.3230190    0.0361820  
C    -4.7760870   -2.4792440    0.0539840  
O    -5.9421700   -2.4327430    0.4529710  
C    -4.2513270   -3.8820940   -0.4281610  
O    -5.0692340   -4.7776480   -0.5790530  
C    -2.8221110   -4.0515030   -0.6339010  
H     0.1347780   -3.5746820   -0.8332050  
H    -2.4587860   -5.0376330   -0.9044360  
H    -1.5382280    0.1626630    0.2197920  
C    -3.2126910    2.5285030   -2.2088620  
C    -3.2462930    1.2099250   -1.8247040  
C    -3.9532350    1.1408930   -0.5723740  
C    -4.3361730    2.4701240   -0.2526550  
N    -3.8397940    3.2997120   -1.2424540  
C    -5.1108130    2.7964890    0.8662220  
C    -5.5336470    1.7423130    1.6575390  
O    -6.3172610    1.9698790    2.7425530  
C    -5.1662070    0.3964580    1.3668050  
O    -5.6611490   -0.5118620    2.2668210  
C    -4.3440640    0.0664920    0.2868930  
H    -2.8406610    0.3821430   -2.3885080  
H    -4.1099970    4.2643350   -1.3617950  
H    -5.4111220    3.8116780    1.1042220  
H    -6.5218000    1.0862840    3.1070740  
H    -5.9560520   -1.3008070    1.7468520  
H    -2.8255430    2.9813970   -3.1118260  
C     6.2988000    1.5798350    2.5080300  
C     5.0889620    1.3218510    1.9533940  
C     5.3116010    0.1783000    1.0746290  
C     6.7615470   -0.1222830    1.2344530  
N     7.3329550    0.6986580    2.0708520  
C     7.4024720   -1.2212610    0.5567680  
C     6.6390820   -2.0157240   -0.2261290  
O     7.1030820   -3.0893670   -0.8909920  
C     5.1731640   -1.7678830   -0.4086000  
O     4.5464550   -2.5413060   -1.1274590  
C     4.5300290   -0.5913110    0.2710280  
H     4.1534960    1.8314860    2.1290280  
H     8.4622300   -1.3993590    0.7004330  
H     6.3356390   -3.4619360   -1.3740000  
H     6.5474130    2.3501070    3.2279730  
