60


C     1.2495000   -0.0118550    0.4204150  
C     2.0055120   -1.1402620    0.1447860  
C     3.2870360   -0.6540840   -0.3512280  
C     3.2266610    0.7598120   -0.3470770  
N     1.9590320    1.1299230    0.1336950  
C     4.2920200    1.5714020   -0.7374430  
C     5.4457650    0.9433730   -1.1879020  
O     6.5141630    1.6922400   -1.5866630  
C     5.5151720   -0.4672150   -1.2388560  
O     6.7152930   -0.9559830   -1.7192070  
C     4.4590460   -1.2651270   -0.8324700  
H     4.2452200    2.6520660   -0.7229800  
H     7.2121100    1.0719530   -1.8596330  
H     6.7039280   -1.9238850   -1.6827440  
H     4.5519420   -2.3444140   -0.8517840  
H     0.2387210    0.0521800    0.7827460  
C    -2.1132380   -2.6326230    0.0050790  
C    -1.9230090   -3.9743830    0.2197560  
C    -0.5012930   -4.1470670    0.3867450  
C     0.0661140   -2.7720850    0.2324910  
N    -0.8721550   -1.9063830    0.0012170  
C     1.5103650   -2.4991700    0.3241060  
C     2.2816080   -3.6007720    0.6028650  
O     3.6199910   -3.5532500    0.7987480  
C     1.7394570   -4.9722380    0.7583590  
O     2.5347700   -5.8855870    1.0200280  
C     0.2945970   -5.2106830    0.6250910  
H    -2.6717570   -4.7531060    0.2683310  
H     3.8644010   -4.4859540    1.0007370  
H    -0.0568490   -6.2319750    0.7376210  
C    -3.3553050   -1.9333550   -0.1973170  
C    -4.6125630   -2.4734050   -0.3287170  
C    -5.5035640   -1.3559480   -0.5044060  
C    -4.6013800   -0.1580550   -0.4530570  
N    -3.3592730   -0.4936180   -0.2757670  
C    -5.1217930    1.1797020   -0.5889180  
C    -6.4556200    1.3209070   -0.7681830  
O    -7.0788850    2.4996530   -0.9101100  
C    -7.3883110    0.1319480   -0.8255060  
O    -8.5862790    0.3662140   -0.9909770  
C    -6.8403670   -1.2206840   -0.6831150  
H    -4.8892190   -3.5185410   -0.3163820  
H    -4.4503640    2.0300340   -0.5488720  
H    -8.0302460    2.2750680   -1.0218150  
H    -7.5407200   -2.0491460   -0.7266980  
C     0.0669590    2.8200410    3.6409040  
C    -0.1518850    4.0948900    3.2484730  
C     0.3601380    4.1679080    1.8826120  
C     0.8653530    2.7860980    1.6136140  
N     0.6944020    2.0074280    2.6383760  
C     1.4718520    2.4346120    0.3358030  
C     1.5337920    3.4129930   -0.6135580  
O     2.0251450    3.2293020   -1.8497210  
C     1.0434850    4.8017790   -0.3523690  
O     1.1355100    5.6177510   -1.2703230  
C     0.4479870    5.1393840    0.9557940  
H    -0.6012800    4.9024770    3.8093150  
H     1.9358680    4.1031410   -2.2924690  
H     0.1032760    6.1595130    1.0944420  
H    -0.1712900    2.3613980    4.5927250  
