60


C     0.3939370   -0.0328480   -0.8670250  
C     0.3024090    1.2695120   -0.3733010  
C     1.6109270    1.5637410    0.1928620  
C     2.4143370    0.4159530   -0.0095420  
N     1.6480490   -0.5184440   -0.6881060  
C     3.7611330    0.3061680    0.4099410  
C     4.2294780    1.3772940    1.1862030  
O     5.4637620    1.3312160    1.7487850  
C     3.4269620    2.5230330    1.4190480  
O     4.0588310    3.4887460    2.1772890  
C     2.1476820    2.6429330    0.9187220  
H     1.9087540   -1.5039800   -0.6821620  
H     5.6039160    2.1819760    2.2014720  
H     3.4785310    4.2585650    2.2726240  
H     1.5753510    3.5492770    1.0790640  
H    -0.3547600   -0.6100350   -1.3892190  
C    -4.0685090    0.2988630   -0.2006820  
C    -2.7001320    0.1994140   -0.1008730  
C    -2.1825190    1.5141160   -0.4051810  
C    -3.3927890    2.3162900   -0.6725710  
N    -4.4893390    1.6159170   -0.5591540  
C    -3.3243780    3.7186260   -1.0041850  
C    -2.1049880    4.2996990   -1.0145660  
O    -1.8942660    5.6061930   -1.2674890  
C    -0.8525090    3.5272640   -0.7183790  
O     0.2010560    4.1643220   -0.7306430  
C    -0.9149170    2.0489910   -0.4592550  
H    -2.1372760   -0.6555010    0.2441870  
H    -4.2330030    4.2749790   -1.2055390  
H    -0.9220120    5.7265640   -1.2084690  
C    -4.2162710   -4.0898100   -1.0103040  
C    -3.7930360   -2.7997730   -0.9740880  
C    -4.8539840   -2.0677530   -0.2991330  
C    -5.8762910   -3.1131480   -0.0094460  
N    -5.4957890   -4.2934360   -0.4213280  
C    -7.1277470   -2.7982090    0.6269670  
C    -7.3566230   -1.5069190    0.9564420  
O    -8.4768860   -1.0688650    1.5547240  
C    -6.3364490   -0.4225780    0.7143300  
O    -6.6084190    0.6915040    1.1470680  
C    -5.0423720   -0.7541420    0.0297140  
H    -2.8813210   -2.3876000   -1.3803100  
H    -7.8506050   -3.5823670    0.8233210  
H    -8.3292480   -0.1080840    1.7025680  
H    -3.7036350   -4.9439830   -1.4377290  
C     3.2757570   -4.1331060    0.3930820  
C     4.5436450   -4.5440400    0.1748440  
C     5.3107860   -3.3223790   -0.0349960  
C     4.3112580   -2.2141440    0.1467860  
N     3.1234240   -2.7098100    0.3656360  
C     4.6734960   -0.8065390    0.0504690  
C     5.9441130   -0.5737720   -0.4097510  
O     6.4230380    0.6399690   -0.6939140  
C     6.9545010   -1.6672290   -0.6372230  
O     8.0720420   -1.3347820   -1.0280540  
C     6.5793250   -3.0715610   -0.4051140  
H     4.9239850   -5.5550760    0.1362870  
H     7.3544950    0.4945190   -0.9757410  
H     7.3351820   -3.8303850   -0.5817810  
H     2.3965840   -4.7385580    0.5771950  
