64


C     2.4455640   -2.0453020   -0.5088220  
C     3.4682370   -1.1460930   -0.7121110  
C     2.8868630    0.1635880   -0.5208320  
C     1.5167570   -0.0189750   -0.1973350  
N     1.2738270   -1.3757880   -0.2220280  
C     0.6154590    1.0502470    0.0246450  
C     1.1701670    2.3218210   -0.1241420  
O     0.3734680    3.4425490    0.0400530  
C     2.5293250    2.5264110   -0.4564040  
O     2.8809670    3.8623950   -0.5545730  
C     3.3953490    1.4693100   -0.6541340  
H     0.4102260   -1.8031420    0.0774410  
H     0.9448240    4.2182430   -0.1097230  
H     3.7963170    3.9338460   -0.8630600  
H     4.4355270    1.6393900   -0.9204950  
H     2.4703360   -3.1256960   -0.5368400  
C     5.2522420   -2.3014930   -2.0959550  
C     4.8500260   -1.4597880   -1.0832070  
C     6.0623280   -0.9731140   -0.4605840  
C     7.1568830   -1.5583320   -1.1476790  
N     6.6322990   -2.3686790   -2.1343460  
C     8.4902940   -1.3114590   -0.7963020  
C     8.7239030   -0.4626710    0.2744970  
O    10.0054840   -0.1880310    0.6602240  
C     7.6408060    0.1217010    0.9826100  
O     8.0325610    0.9401940    2.0288230  
C     6.3258930   -0.1231110    0.6325350  
H     7.1707070   -2.8975250   -2.8019410  
H     9.3300890   -1.7593910   -1.3180620  
H     9.9500720    0.3903710    1.4403430  
H     7.2529880    1.1955280    2.5437550  
H     5.5110460    0.3282850    1.1942480  
H     4.6518400   -2.8457020   -2.8113710  
C    -1.4210850   -1.6177220    3.0209110  
C    -0.4949160   -0.9027020    2.3061560  
C    -1.2175880   -0.1018180    1.3518780  
C    -2.5954920   -0.3657430    1.5598320  
N    -2.6864250   -1.2892340    2.5797270  
C    -3.6412140    0.2382250    0.8199760  
C    -3.2142300    1.1593910   -0.1425700  
O    -4.1224480    1.8406870   -0.8960010  
C    -1.8420330    1.4445930   -0.3664730  
O    -1.6329260    2.3675630   -1.3706150  
C    -0.8156130    0.8178440    0.3415020  
H     0.5738560   -0.9173260    2.4623470  
H    -3.5475920   -1.7230140    2.8753210  
H    -3.5883230    2.4466320   -1.4481930  
H    -0.9567350    3.0054850   -1.0509660  
H    -1.2866000   -2.3233660    3.8284880  
C    -5.6370460   -0.2705800    2.3096400  
C    -5.0476720   -0.0556790    1.0955990  
C    -6.1519350   -0.2789220    0.1289630  
C    -7.3246070   -0.6174900    0.9812600  
N    -7.0159840   -0.6036580    2.2493640  
C    -8.6143460   -0.9152820    0.4143300  
C    -8.7319400   -0.9038010   -0.9348840  
O    -9.8706170   -1.1698800   -1.6000910  
C    -7.5631520   -0.5872400   -1.8205300  
O    -7.7451820   -0.5996330   -3.0381630  
C    -6.2519270   -0.2711270   -1.2130800  
H    -9.4499830   -1.1486360    1.0649980  
H    -9.6383580   -1.0817570   -2.5506340  
H    -5.4408960   -0.0149600   -1.8841580  
H    -5.1776300   -0.1706320    3.2864820  
