62


C     1.4333910   -0.1326940   -1.0603920  
C     2.7995580   -0.0597770   -0.8782330  
C     3.0580980    1.2388900   -0.2884180  
C     1.8097720    1.8901790   -0.1420390  
N     0.8223490    1.0316940   -0.6243450  
C     1.6805340    3.1715380    0.4031950  
C     2.8417120    3.8200670    0.7925180  
O     2.7739180    5.0716210    1.3290660  
C     4.1072450    3.1969180    0.6283200  
O     5.1692320    3.9748010    1.0438810  
C     4.2272640    1.9273330    0.0936090  
H     0.7233190    3.6677980    0.5088400  
H     3.6855930    5.3581330    1.5111600  
H     6.0017460    3.5110660    0.8699810  
H     5.2093710    1.4799190   -0.0371330  
H     0.8391030   -0.9333020   -1.4782430  
C    -2.1962600   -1.1895440    1.5805430  
C    -3.2863700   -0.4683620    1.1492470  
C    -2.8074400    0.5592000    0.2600480  
C    -1.4038740    0.3989510    0.1990320  
N    -1.0593530   -0.6588720    1.0140890  
C    -0.5805980    1.2368380   -0.5765090  
C    -1.2014690    2.2522380   -1.2999840  
O    -0.4610380    3.0800990   -2.0800120  
C    -2.6119580    2.4270050   -1.2263120  
O    -3.0656000    3.4812460   -1.9885530  
C    -3.4171000    1.6017220   -0.4659560  
H    -0.1165930   -0.9863030    1.1627430  
H    -1.0765280    3.7011100   -2.5088460  
H    -4.0342410    3.4787690   -2.0139920  
H    -4.4924080    1.7545630   -0.4309620  
H    -2.1506350   -2.0414970    2.2432480  
C    -5.1115520   -0.5536590    2.8539400  
C    -6.4394080   -0.8223740    2.9246970  
C    -6.8833940   -1.1452300    1.5858330  
C    -5.6809720   -1.0486340    0.7200580  
N    -4.6239880   -0.6816480    1.5481730  
C    -5.6764510   -1.2913870   -0.6156470  
C    -6.9366560   -1.6559720   -1.2577940  
O    -7.0326600   -1.8805390   -2.4551420  
C    -8.2256100   -1.7570760   -0.3610910  
O    -9.2876340   -2.0580300   -0.8839570  
C    -8.0958990   -1.4831860    1.0718430  
H    -7.0536910   -0.7933910    3.8129650  
H    -4.7833080   -1.2257250   -1.2273300  
H    -8.9899980   -1.5629550    1.6829030  
H    -4.4221470   -0.2609160    3.6348200  
C     3.7316740   -1.8956690   -2.3631030  
C     3.7437480   -1.0984590   -1.2577470  
C     4.8984990   -1.5985770   -0.4738450  
C     5.4581600   -2.7026650   -1.3039820  
N     4.7680990   -2.8715780   -2.3972960  
C     6.6086620   -3.4569130   -0.8787510  
C     7.1577460   -3.1577570    0.3234840  
O     8.2299190   -3.7842540    0.8428380  
C     6.5951080   -2.0770080    1.1963850  
O     7.1454670   -1.8588720    2.2761460  
C     5.4163260   -1.3103720    0.7348680  
H     7.0017190   -4.2458350   -1.5106620  
H     8.3851050   -3.3543800    1.7118970  
H     5.0347360   -0.5418500    1.3998530  
H     3.0413660   -1.8443220   -3.1966380  
