60


C    -3.3144220   -1.6802980    0.0944540  
C    -2.0243570   -1.2520860    0.0836240  
C    -2.0398550    0.1849740   -0.0045210  
C    -3.3971540    0.5817680   -0.0554230  
N    -4.1828790   -0.5841440   -0.0115120  
C    -3.7932780    1.9208070   -0.0321710  
C    -2.7914080    2.8763940    0.0244460  
O    -3.1147890    4.1968300    0.0505020  
C    -1.4226870    2.5103310    0.0672430  
O    -0.5595550    3.5831720    0.0885210  
C    -1.0152270    1.1692400    0.0279660  
H    -1.1540700   -1.8896130    0.1001150  
H    -4.8272990    2.2374230   -0.0593980  
H    -2.2660410    4.6760010    0.1019270  
H     0.1026270    3.4334410    0.7956400  
H    -3.7233890   -2.6791370    0.1064250  
C     1.3049340   -1.5015590   -2.5976920  
C     2.5533780   -1.4078270   -2.0814820  
C     2.4311360   -0.5011860   -0.9483020  
C     0.9804410   -0.1327390   -0.9324270  
N     0.3363530   -0.7196910   -1.8977970  
C     0.4177280    0.8093620    0.0350080  
C     1.3335260    1.3605050    0.8803760  
O     1.0030590    2.2736710    1.8351300  
C     2.7803550    1.0044920    0.9164460  
O     3.4547500    1.5051810    1.8143650  
C     3.3294480    0.0308360   -0.0754260  
H     3.4615660   -1.8668350   -2.4431060  
H     1.8447650    2.4428880    2.3212730  
H     0.9782910   -2.0727060   -3.4582810  
C     4.7495000   -0.2963810   -0.0501820  
C     5.3175590   -1.5268960   -0.2237590  
C     6.7483510   -1.3134140   -0.1076220  
C     6.8790140    0.1592240    0.1305650  
N     5.7200190    0.7464060    0.1686310  
C     8.1680540    0.7848470    0.2844930  
C     9.2647650   -0.0067120    0.2233350  
O    10.5225370    0.4372070    0.3560020  
C     9.1625940   -1.4952720   -0.0038520  
O    10.2091690   -2.1381370   -0.0464570  
C     7.8337740   -2.1133770   -0.1692510  
H     4.8141870   -2.4735230   -0.3605470  
H     8.2358940    1.8539180    0.4514270  
H    11.0944030   -0.3570390    0.2674250  
H     7.8025750   -3.1853390   -0.3391590  
C    -6.9868990   -2.9704920    2.4299840  
C    -5.8309230   -2.4220300    1.9796990  
C    -6.2296500   -1.5497790    0.8790880  
C    -7.7026310   -1.7099880    0.8080850  
N    -8.1423790   -2.5389960    1.7165680  
C    -8.5109760   -0.9917620   -0.1465840  
C    -7.8849950   -0.1476560   -0.9957010  
O    -8.5139580    0.5916070   -1.9287410  
C    -6.3952910    0.0324750   -0.9799510  
O    -5.9018190    0.7539190   -1.8401890  
C    -5.5712850   -0.7002200    0.0426860  
H    -4.8309970   -2.5651570    2.3626220  
H    -9.5856230   -1.1348800   -0.1617500  
H    -7.8047610    1.0604760   -2.4184120  
H    -7.1161990   -3.6660250    3.2505930  
