60


C     1.9026340   -0.8757370   -1.4487070  
C     1.1414710    0.2472500   -1.2938090  
C     1.7445970    1.0415550   -0.2609110  
C     2.9104430    0.3469350    0.1591860  
N     2.9906880   -0.8358740   -0.5817940  
C     3.7527630    0.8241230    1.1605240  
C     3.4484100    2.0663590    1.7078950  
O     4.2484190    2.5873180    2.6736840  
C     2.3228320    2.8072480    1.2815930  
O     2.1599180    4.0014970    1.9473670  
C     1.4215240    2.3008140    0.3304590  
H     0.2452490    0.4725230   -1.8520480  
H     4.6353880    0.2955740    1.4948990  
H     3.8722170    3.4626420    2.8876660  
H     1.9551670    4.6828600    1.2727710  
H     1.7705860   -1.7218700   -2.1039550  
C    -2.8723380    1.0875910   -0.0670980  
C    -1.5354890    1.0831320    0.2337320  
C    -1.0517400    2.3934630   -0.1220890  
C    -2.2580110    3.1016140   -0.6361760  
N    -3.3151860    2.3409340   -0.6112820  
C    -2.2083370    4.4684680   -1.0875480  
C    -1.0257290    5.1119800   -0.9781610  
O    -0.8379100    6.3948460   -1.3233990  
C     0.1949170    4.4418710   -0.4026010  
O     1.1882360    5.1712490   -0.2678880  
C     0.1795520    3.0000870   -0.0415390  
H    -0.9549530    0.2780890    0.6582100  
H    -3.0974200    4.9531700   -1.4742980  
H     0.0969680    6.5985040   -1.1052300  
C    -3.8566690    0.0536300    0.0892800  
C    -3.7475000   -1.2366630    0.5616340  
C    -5.0496640   -1.8358710    0.4955920  
C    -5.9600960   -0.7969430   -0.0584580  
N    -5.1763550    0.3118000   -0.2788340  
C    -7.2876880   -0.9827740   -0.2747310  
C    -7.8722480   -2.2792470    0.0515510  
O    -9.0555540   -2.5380610   -0.1108630  
C    -6.9285700   -3.3933320    0.6375550  
O    -7.4015150   -4.4862260    0.9141860  
C    -5.5135270   -3.0754350    0.8279550  
H    -2.8421370   -1.7098580    0.9135270  
H    -7.9382860   -0.2139300   -0.6796440  
H    -4.8716280   -3.8514400    1.2339820  
H    -5.4633450    1.2054130   -0.6515610  
C     2.4741850   -5.1176690   -0.2074650  
C     3.7540690   -5.5431830   -0.1235720  
C     4.5675420   -4.3337060   -0.2185290  
C     3.5627630   -3.2345470   -0.3606470  
N     2.3484810   -3.6946470   -0.3542460  
C     3.9707940   -1.8402500   -0.4835670  
C     5.3112700   -1.5866620   -0.4994930  
O     5.8410410   -0.3616690   -0.6497800  
C     6.3270910   -2.6758550   -0.3434580  
O     7.5134270   -2.3503590   -0.3697530  
C     5.8884010   -4.0787970   -0.1991350  
H     4.1188690   -6.5540100   -0.0062670  
H     6.8149260   -0.4968890   -0.6162240  
H     6.6629920   -4.8322480   -0.0949710  
H     1.5676010   -5.7094400   -0.1777690  
