60


C    -0.3608110    1.6293250   -0.0142620  
C     1.0096080    1.3700730   -0.0179810  
C     1.1817880   -0.0348470   -0.0126860  
C    -0.1261360   -0.6066620   -0.0028850  
N    -1.0249680    0.4186000    0.0071410  
C    -0.3785180   -2.0037780   -0.0517550  
C     0.7595320   -2.8034740   -0.2024450  
O     0.6488290   -4.1555940   -0.3113230  
C     2.0806240   -2.2722880   -0.2104500  
O     3.0234250   -3.2297230   -0.3290710  
C     2.3367610   -0.8896340   -0.0693120  
H     1.7729180    2.1294490   -0.0680940  
H    -2.0305730    0.3646570   -0.0861050  
H     1.5614180   -4.5011610   -0.3831110  
H     3.9244200   -2.7640310   -0.3491430  
C    -1.7250550   -2.5513310    0.0397890  
C    -2.8545090   -1.9959440    0.6008860  
C    -3.9326650   -2.9378450    0.4587610  
C    -3.3595790   -4.1141520   -0.2404900  
N    -2.0376350   -3.8094600   -0.4819080  
C    -4.0583070   -5.2360200   -0.5502710  
C    -5.4689490   -5.2997750   -0.1800290  
O    -6.1771580   -6.2670620   -0.4162210  
C    -6.0994260   -4.0604660    0.5565790  
O    -7.2796650   -4.0964490    0.8710580  
C    -5.2409590   -2.9086520    0.8369970  
H    -2.9143510   -1.0606100    1.1367430  
H    -3.6221480   -6.0886610   -1.0614000  
H    -5.6860220   -2.0599020    1.3475060  
H    -1.3307950   -4.4572690   -0.7981480  
C    -1.1233130    2.8367120   -0.0436190  
C    -0.7279610    4.1515240   -0.0649400  
C    -1.9415190    4.9177180   -0.0961340  
C    -3.0372670    3.8859720   -0.0903140  
N    -2.5540650    2.6772440   -0.0590020  
C    -4.4254500    4.2584580   -0.1171480  
C    -4.7142140    5.5814990   -0.1468010  
O    -5.9522990    6.0816220   -0.1735810  
C    -3.6323320    6.6481470   -0.1526670  
O    -4.0168530    7.8190530   -0.1806510  
C    -2.2315940    6.2454710   -0.1259680  
H     0.2804940    4.5404640   -0.0588490  
H    -5.1981610    3.4979330   -0.1135520  
H    -5.8321270    7.0599140   -0.1910070  
H    -1.4834940    7.0317900   -0.1317400  
C     3.6898130   -0.4053470    0.0164900  
C     4.2026940    0.8387680    0.3168030  
C     5.6267470    0.7170710    0.2660630  
C     5.8771470   -0.7190540   -0.0903430  
N     4.7489670   -1.3569090   -0.2250630  
C     7.1979520   -1.2525270   -0.2411150  
C     8.2309700   -0.3965950   -0.0406740  
O     9.5144100   -0.7341150   -0.1413620  
C     8.0192320    1.0670170    0.3276850  
O     9.0420680    1.7380100    0.4831600  
C     6.6655950    1.5747380    0.4704440  
H     3.6624560    1.7297620    0.5911250  
H     7.3514240   -2.2934350   -0.5025470  
H    10.0128430    0.0941300    0.0600240  
H     6.5441640    2.6201080    0.7348110  
