62


C    -1.9041660   -0.4256880    0.3347300  
C    -3.2508370   -0.2865190    0.0337870  
C    -3.4876970    1.1454890   -0.0777930  
C    -2.2492130    1.7908630    0.1564260  
N    -1.2915220    0.8042760    0.3985270  
C    -2.0878220    3.1785490    0.1394740  
C    -3.2155310    3.9483630   -0.0978790  
O    -3.1214830    5.3099490   -0.1231970  
C    -4.4716250    3.3276140   -0.3091940  
O    -5.5077530    4.2183840   -0.5232940  
C    -4.6214100    1.9529460   -0.2974290  
H    -1.1331330    3.6561530    0.3243090  
H    -4.0155610    5.6543580   -0.2911670  
H    -6.3288740    3.7243690   -0.6643020  
H    -5.5917020    1.5075880   -0.4840220  
H    -1.3496610   -1.3235030    0.5547850  
C     2.0181220   -0.4475370   -2.1167120  
C     3.0474050    0.0348040   -1.3363110  
C     2.4283000    0.6506630   -0.1818690  
C     1.0297700    0.5004100   -0.3379800  
N     0.8070630   -0.1648060   -1.5232330  
C     0.1014950    0.9990760    0.5939000  
C     0.6047830    1.6675770    1.7072800  
O    -0.2421850    2.1532940    2.6515320  
C     2.0068450    1.8458570    1.8575040  
O     2.3463850    2.5442330    2.9985810  
C     2.9146590    1.3547270    0.9387440  
H    -0.1019840   -0.4263490   -1.8739540  
H     0.3052680    2.5644750    3.3437740  
H     3.3050880    2.5059670    3.1328530  
H     3.9801950    1.5147160    1.0808580  
H     2.0633060   -0.9982470   -3.0456210  
C     5.0550140    0.2591830   -2.8538090  
C     4.4721810   -0.0442220   -1.6583870  
C     5.5531640   -0.4999130   -0.7859450  
C     6.8036910   -0.4249620   -1.5838510  
N     6.4273310    0.0173990   -2.8344570  
C     8.0363790   -0.7482130   -1.1143550  
C     8.1548060   -1.2168070    0.2619440  
O     9.2203310   -1.5252560    0.7746260  
C     6.8396910   -1.3309700    1.1178390  
O     6.9168720   -1.7219860    2.2722010  
C     5.5670210   -0.9519440    0.4954030  
H     8.9391170   -0.6833870   -1.7142380  
H     4.6654460   -1.0415860    1.0925690  
H     4.5876470    0.6459890   -3.7498050  
H     7.0660470    0.2418490   -3.5810180  
C    -3.1549280   -4.2302640    1.9580110  
C    -4.2796100   -4.8117320    1.4870700  
C    -4.8750330   -3.8194300    0.5976140  
C    -3.9402080   -2.6508440    0.6617030  
N    -2.9445020   -2.9035330    1.4603830  
C    -4.1751780   -1.4095910   -0.0918230  
C    -5.2871320   -1.4300800   -0.8947200  
O    -5.6361060   -0.4163670   -1.7242210  
C    -6.2249670   -2.5769130   -0.9736870  
O    -7.1915890   -2.4870420   -1.7402190  
C    -5.9765550   -3.7907880   -0.1713040  
H    -4.6725750   -5.7943690    1.7084400  
H    -6.4535910   -0.7394350   -2.1668940  
H    -6.6929730   -4.6021430   -0.2592640  
H    -2.4249010   -4.6397070    2.6458060  
