60


C     0.2910980    1.6271260   -0.1462340  
C     1.4480840    0.8334290   -0.0444520  
C     2.5743250    1.6638790   -0.2336630  
C     2.0674500    2.9811190   -0.4394580  
N     0.7032950    2.9238600   -0.3892180  
C     2.8851200    4.1010920   -0.6300840  
C     4.2521210    3.8991420   -0.5995900  
O     5.0995900    4.9413610   -0.7655340  
C     4.8132860    2.5994160   -0.3952980  
O     6.1593270    2.6063830   -0.3985760  
C     4.0007730    1.4487490   -0.2283990  
H     1.4477100   -0.2057920    0.2332880  
H     0.0450830    3.6934300   -0.4193580  
H     2.4867460    5.0982550   -0.7841660  
H     6.0041260    4.5793660   -0.7056720  
H     6.4658070    1.6572010   -0.2206650  
C    -1.9383250   -2.2447460   -0.1946510  
C    -0.9927160   -1.2800300   -0.3448750  
C    -1.6041050   -0.0090220   -0.0312010  
C    -3.0045250   -0.3144740    0.2958770  
N    -3.1376420   -1.6808690    0.2301310  
C    -3.9725840    0.6166040    0.6076170  
C    -3.5711010    2.0084180    0.6442780  
O    -4.3067170    2.9267840    0.9810840  
C    -2.0969240    2.3649230    0.2305200  
O    -1.8447710    3.5554760    0.1078630  
C    -1.0990490    1.2842240    0.0105350  
H     0.0170810   -1.4398410   -0.6855170  
H    -1.8705070   -3.3119630   -0.3542040  
H    -4.0269740   -2.1600390    0.2432100  
C    -5.9902710    0.7500140    2.0664200  
C    -7.2507460    0.2603280    2.1247210  
C    -7.4483320   -0.5726740    0.9588790  
C    -6.1753240   -0.5194650    0.1946320  
N    -5.3047030    0.2756930    0.9315470  
C    -5.9831030   -1.1365800   -1.0041490  
C    -7.0741720   -1.9316920   -1.5644980  
O    -6.9852240   -2.5172930   -2.6329180  
C    -8.4111770   -2.0358120   -0.7470150  
O    -9.3207440   -2.7232000   -1.1829380  
C    -8.5104630   -1.2914340    0.5116840  
H    -7.9801350    0.4620340    2.8956750  
H    -5.0808120   -1.0285220   -1.5960040  
H    -9.4530340   -1.3361410    1.0489560  
H    -5.4772180    1.4203210    2.7392920  
C     4.6019150    0.1511570   -0.0830440  
C     4.0580380   -1.1180350   -0.0287370  
C     5.1465240   -2.0275650    0.1170630  
C     6.3713530   -1.1584740    0.1392330  
N     6.0420000    0.0958600    0.0176140  
C     7.6912640   -1.6980230    0.2743600  
C     7.7924860   -3.0465640    0.3789870  
O     8.9414180   -3.7054510    0.5096460  
C     6.5742100   -3.9643930    0.3569380  
O     6.8118870   -5.1718740    0.4607200  
C     5.2543830   -3.3845170    0.2204580  
H     3.0220260   -1.3986090   -0.1167190  
H     8.5593600   -1.0487130    0.2900820  
H     8.6798300   -4.6573040    0.5586040  
H     4.4050530   -4.0597160    0.2067700  
