64


C    -0.6362280   -1.4915300    0.1678700  
C    -1.7978890   -0.7358010    0.0689110  
C    -2.9167910   -1.6182150    0.1116290  
C    -2.3855450   -2.9263510    0.2337430  
N    -1.0094500   -2.8284200    0.2338620  
C    -3.1746120   -4.0793260    0.3037340  
C    -4.5470130   -3.9170970    0.2375920  
O    -5.3666780   -5.0002570    0.2977810  
C    -5.1341540   -2.6295570    0.1019270  
O    -6.4821790   -2.6684800    0.0456390  
C    -4.3453580   -1.4445850    0.0449460  
H    -1.7994170    0.3294580   -0.0877850  
H    -0.3746010   -3.5726830    0.4845030  
H    -2.7531700   -5.0749890    0.3994440  
H    -6.2776460   -4.6579200    0.2304880  
H    -6.8057550   -1.7170710   -0.0636800  
C     1.4208810    2.1496570    1.7884410  
C     0.4838870    1.2158660    1.4335970  
C     1.1704420    0.1779540    0.7161660  
C     2.5391590    0.5505310    0.6648900  
N     2.6558700    1.7658860    1.3048630  
C     3.5623130   -0.2428240    0.0942890  
C     3.1302430   -1.4873900   -0.3876430  
O     4.0315690   -2.3581000   -0.9463100  
C     1.7765010   -1.8756200   -0.3509840  
O     1.5418730   -3.1420160   -0.8959000  
C     0.7601110   -1.0711120    0.1750350  
H    -0.5659920    1.2466650    1.6825560  
H     3.5414140    2.1764510    1.5597770  
H     3.5093650   -3.1169350   -1.2674290  
H     0.7436110   -3.0989760   -1.4494160  
H     1.3116970    3.0693880    2.3455750  
C     4.9467380    0.2090730    0.0181100  
C     5.4698230    1.4968610    0.0191440  
C     6.8908530    1.3902820   -0.0773260  
C     7.1964390    0.0028710   -0.1341750  
N     6.0069470   -0.6833130   -0.0639250  
C     8.5079670   -0.4772550   -0.2418440  
C     9.5293100    0.4578530   -0.2943990  
O    10.8262860    0.0452770   -0.4008140  
C     9.2427190    1.8495660   -0.2383490  
O    10.3679810    2.6517110   -0.2992120  
C     7.9491150    2.3218880   -0.1306150  
H     4.8979390    2.4139780   -0.0061190  
H     5.8754680   -1.6743110   -0.2028160  
H     8.7457580   -1.5350400   -0.2863320  
H    11.3800760    0.8444280   -0.4290070  
H    10.1006700    3.5824910   -0.2902500  
H     7.7559130    3.3923090   -0.0897060  
C    -4.9759180   -0.1569340   -0.0523850  
C    -4.4625780    1.1279920   -0.0464880  
C    -5.5686650    2.0159750   -0.1689260  
C    -6.7721900    1.1207520   -0.2448530  
N    -6.4161870   -0.1296930   -0.1729910  
C    -8.1025710    1.6363730   -0.3758680  
C    -8.2320190    2.9853870   -0.4259450  
O    -9.3933530    3.6260920   -0.5450460  
C    -7.0355360    3.9292290   -0.3491930  
O    -7.3043550    5.1350220   -0.4063560  
C    -5.7072250    3.3750550   -0.2188540  
H    -3.4343070    1.4307250    0.0539810  
H    -8.9555700    0.9693180   -0.4305030  
H    -9.1455730    4.5836350   -0.5507400  
H    -4.8725450    4.0664480   -0.1665160  
