62


C     2.4278740   -1.2152200   -0.5788320  
C     3.4900530   -0.4829420   -0.0646530  
C     2.9506670    0.8331500    0.2419630  
C     1.5720840    0.8054470   -0.0914780  
N     1.2949300   -0.4571670   -0.5817110  
C     0.7018960    1.9138300    0.0112180  
C     1.3095770    3.0934930    0.4376880  
O     0.5638520    4.2532180    0.5400270  
C     2.6823750    3.1562530    0.7612060  
O     3.0985300    4.4125730    1.1643860  
C     3.5076590    2.0519060    0.6741270  
H     0.3848860   -0.7600900   -0.8956910  
H     1.1636130    4.9471420    0.8706780  
H     4.0277980    4.3737450    1.4348720  
H     4.5545660    2.1230840    0.9440380  
H     2.4259500   -2.2256850   -0.9531040  
C    -2.4909520   -0.9524820    1.2798160  
C    -1.3325880   -0.2504790    1.1452380  
C    -1.5503670    0.7653500    0.1429420  
C    -2.8850860    0.6237370   -0.3071690  
N    -3.4542580   -0.4575160    0.3894980  
C    -3.4782790    1.5260210   -1.1934750  
C    -2.6917430    2.5757700   -1.6415070  
O    -3.2106300    3.4956880   -2.4972050  
C    -1.3411190    2.7228370   -1.2289400  
O    -0.7004960    3.8023050   -1.7920220  
C    -0.7333490    1.8158720   -0.3570110  
H    -0.4215650   -0.4286220    1.6981780  
H    -4.5025890    1.4451670   -1.5327080  
H    -2.4963040    4.1431340   -2.6519040  
H    -0.1836000    4.2479530   -1.0855880  
H    -2.7291370   -1.8053310    1.8972670  
C    -6.4641230   -1.6073300    3.4129820  
C    -5.3213380   -1.1228260    2.8664630  
C    -5.5048150   -1.2591090    1.4247600  
C    -6.8528240   -1.8650250    1.2879250  
N    -7.4115020   -2.0651640    2.4509660  
C    -7.4423450   -2.1501670    0.0026540  
C    -6.7251500   -1.8491510   -1.1022180  
O    -7.1539480   -2.0539060   -2.3618540  
C    -5.3467980   -1.2620410   -1.0166130  
O    -4.7287220   -1.1066770   -2.0646380  
C    -4.7634820   -0.9362890    0.3298820  
H    -4.4674600   -0.6968770    3.3729450  
H    -8.4327500   -2.5878680   -0.0530000  
H    -6.4085540   -1.7898930   -2.9425030  
H    -6.7239070   -1.6685360    4.4630140  
C     5.5637710   -3.5766710   -2.3822220  
C     6.7860580   -3.6021060   -1.8081230  
C     6.7246980   -2.6066610   -0.7422250  
C     5.3351460   -2.0536660   -0.8266350  
N     4.6713890   -2.6255130   -1.7885780  
C     4.8472720   -1.0010000    0.0770560  
C     5.7511550   -0.5986020    1.0259970  
O     5.4754560    0.3126570    1.9909650  
C     7.1327280   -1.1326890    1.1268800  
O     7.8581170   -0.7013630    2.0301390  
C     7.5964030   -2.1669490    0.1806440  
H     7.6382560   -4.2152900   -2.0663930  
H     6.3044020    0.3617790    2.5192680  
H     8.6155760   -2.5246680    0.2923030  
H     5.1992880   -4.1711530   -3.2112970  
