64


C    -2.5729110   -1.3927940    0.8003420  
C    -3.6154270   -0.7364260    0.1803310  
C    -3.0245060    0.4131240   -0.4777670  
C    -1.6307670    0.3788210   -0.2224660  
N    -1.3870500   -0.7361890    0.5510400  
C    -0.7248760    1.3673560   -0.6712330  
C    -1.2899070    2.4190150   -1.3974290  
O    -0.4960450    3.4125390   -1.8955480  
C    -2.6851250    2.4737210   -1.6523570  
O    -3.0667080    3.5845270   -2.3822770  
C    -3.5543760    1.4958510   -1.2108850  
H    -0.4885930   -0.9640630    0.9494860  
H    -1.0732060    4.0035870   -2.4109200  
H    -4.0093730    3.5225630   -2.5967740  
H    -4.6195490    1.5655080   -1.4149110  
H    -2.5904470   -2.3010970    1.3854230  
C    -6.4068520   -1.8767260    3.5212170  
C    -5.3155450   -1.4796440    2.7935940  
C    -5.7067020   -1.4678900    1.4108220  
C    -7.0687090   -1.8672170    1.3651880  
N    -7.4665160   -2.1132720    2.6641530  
C    -7.7990300   -1.9520850    0.1734360  
C    -7.1330130   -1.6288290   -0.9975040  
O    -7.7843960   -1.7071200   -2.1969110  
C    -5.7732830   -1.2281700   -0.9752900  
O    -5.2532240   -0.9619380   -2.2313940  
C    -5.0355390   -1.1359500    0.2040360  
H    -4.3487630   -1.2118110    3.1949760  
H    -8.3872080   -2.4131800    2.9427630  
H    -8.8388020   -2.2606820    0.1358380  
H    -7.1283520   -1.5008090   -2.8852690  
H    -4.2894300   -0.8649150   -2.1541020  
H    -6.5235900   -2.0110020    4.5874430  
C     1.4640930    0.1272890   -0.5533580  
C     0.7164030    1.2622120   -0.3925810  
C     1.6121580    2.2713020    0.1497340  
C     2.8892020    1.6857710    0.2938080  
N     2.7892090    0.3447150   -0.1565520  
C     3.9760330    2.3880780    0.8208540  
C     3.7597270    3.7059970    1.2054650  
O     4.7920760    4.4312920    1.7202040  
C     2.4835830    4.3028660    1.0699150  
O     2.4237940    5.6133140    1.4946280  
C     1.4101220    3.5991220    0.5511200  
H     4.9512930    1.9365740    0.9288250  
H     4.4514560    5.3202890    1.9199780  
H     1.5329540    5.9627250    1.3433690  
H     0.4395520    4.0708030    0.4342250  
H     1.1785470   -0.8213100   -0.9800950  
C     3.7604120   -0.6179500   -0.2283610  
C     3.6252700   -1.9254980   -0.6649200  
C     4.9228720   -2.4925460   -0.5391520  
C     5.7711950   -1.3706430    0.0085990  
N     5.0741900   -0.2808600    0.1844240  
C     7.1674010   -1.5401430    0.2831560  
C     7.6992580   -2.7606280    0.0271820  
O     8.9764640   -3.0834610    0.2256400  
C     6.8723320   -3.9188770   -0.5272550  
O     7.4924180   -4.9733410   -0.7100010  
C     5.4672750   -3.7200150   -0.7942990  
H     2.7408860   -2.4235990   -1.0319150  
H     7.7559030   -0.7188460    0.6762570  
H     9.0351120   -4.0299010   -0.0560970  
H     4.9031460   -4.5590500   -1.1883700  
