62


C     2.0801680   -0.5446050    0.2724100  
C     3.3773230   -0.1393330    0.0051640  
C     3.3164680    1.3035870   -0.1710280  
C     1.9657770    1.6862980    0.0222940  
N     1.2268170    0.5347240    0.2965640  
C     1.5211460    3.0134330   -0.0675300  
C     2.4606230    3.9815490   -0.3979200  
O     2.0861290    5.2876980   -0.4943250  
C     3.8088230    3.6153250   -0.6299850  
O     4.6267690    4.6780130   -0.9613820  
C     4.2421510    2.3056320   -0.5192990  
H     0.5005410    3.3073830    0.1545530  
H     2.8850320    5.8009690   -0.7069940  
H     5.5443960    4.3726650   -1.0178710  
H     5.2873070    2.0629120   -0.6727050  
H     1.6967130   -1.5413430    0.4133550  
C    -1.2102410   -1.1129940    3.6162110  
C    -0.1616220   -0.6961260    2.8389010  
C    -0.7276830   -0.1126710    1.6564780  
C    -2.1379660   -0.1936730    1.7784100  
N    -2.4003280   -0.8004270    2.9879030  
C    -3.0466060    0.2752200    0.7990300  
C    -2.4563930    0.8380640   -0.3388570  
O    -3.2369750    1.3393240   -1.3396860  
C    -1.0499620    0.9188280   -0.4963620  
O    -0.6567870    1.4549460   -1.7029840  
C    -0.1797440    0.4578920    0.4870690  
H     0.8879470   -0.7862360    3.0783900  
H    -3.3213810   -1.0681900    3.2997910  
H    -2.6286260    1.7233050   -1.9982830  
H     0.2403030    1.8269820   -1.6331080  
H    -1.2119110   -1.5998420    4.5810710  
C    -5.1868360    0.4106540    2.1605460  
C    -4.4949170    0.1968630    1.0025920  
C    -5.5447090   -0.2138280    0.0394430  
C    -6.8058800   -0.1753780    0.8318940  
N    -6.5873990    0.1942670    2.0640940  
C    -8.0779130   -0.5196400    0.2513920  
C    -8.0981100   -0.9084160   -1.0457230  
O    -9.2091040   -1.2644300   -1.7137810  
C    -6.8406870   -0.9780610   -1.8634980  
O    -6.9374080   -1.3440650   -3.0343840  
C    -5.5479550   -0.6071300   -1.2474320  
H    -8.9779720   -0.4713210    0.8543400  
H    -8.9038740   -1.4905450   -2.6197960  
H    -4.6677610   -0.6426020   -1.8782200  
H    -4.7859430    0.7572840    3.1063830  
C     3.4886050   -4.3478320   -1.2271850  
C     4.8030740   -4.6449860   -1.1360090  
C     5.4384260   -3.4151220   -0.6730850  
C     4.3092440   -2.4403130   -0.5358550  
N     3.1802370   -2.9955530   -0.8665130  
C     4.5128840   -1.0533830   -0.0935460  
C     5.8098460   -0.7351810    0.2146040  
O     6.1962830    0.4698240    0.6976400  
C     6.9446020   -1.6860350    0.0838330  
O     8.0714870   -1.2908820    0.4020730  
C     6.7038540   -3.0628440   -0.3902280  
H     5.2983140   -5.5806410   -1.3556150  
H     7.1652600    0.3731330    0.8408320  
H     7.5643640   -3.7199940   -0.4728270  
H     2.6741340   -4.9931540   -1.5333800  
