62


C     0.9782540    1.4725710   -1.6557050  
C     2.3078800    1.5469970   -1.3479450  
C     2.5637720    0.6029170   -0.2929220  
C     1.3351390   -0.0366730    0.0043400  
N     0.3795330    0.5168400   -0.8398610  
C     1.1948620   -1.0408490    0.9635060  
C     2.3421650   -1.4075110    1.6529580  
O     2.2735460   -2.3636630    2.6209190  
C     3.5859900   -0.7892690    1.3754230  
O     4.6267860   -1.2607870    2.1611100  
C     3.7359560    0.2087700    0.4095130  
H     3.0285670    2.1949440   -1.8253770  
H     0.2447020   -1.5128280    1.1864180  
H     3.1589440   -2.4262540    3.0208580  
H     5.3116420   -0.5768700    2.2267010  
H     0.3794070    2.0076480   -2.3780100  
C    -1.4932220   -0.8238680   -1.6814540  
C    -2.8414680   -0.8627910   -1.4745560  
C    -3.1668280    0.1426740   -0.4973400  
C    -1.9552150    0.7846640   -0.1443940  
N    -0.9437730    0.1689180   -0.8722550  
C    -1.8675010    1.8513540    0.7520790  
C    -3.0598850    2.3030910    1.2938440  
O    -3.0645980    3.3489810    2.1630840  
C    -4.2992940    1.6985050    0.9535530  
O    -5.3831520    2.2512930    1.6041900  
C    -4.3820890    0.5997720    0.0874710  
H    -3.5271250   -1.5471420   -1.9498170  
H    -0.9276710    2.3256820    1.0111170  
H    -4.0017620    3.4913860    2.3965620  
H    -6.0803000    2.4305230    0.9386690  
H    -0.8486580   -1.4094900   -2.3203060  
C     5.3187200    2.1569080   -0.0399020  
C     5.0371320    0.8340640    0.1401730  
C     6.3352460    0.1631440   -0.1100020  
C     7.2759520    1.2818230   -0.4151690  
N     6.6744520    2.4377190   -0.3663530  
C     8.6618830    1.0420940   -0.7216840  
C     9.0916720   -0.2421590   -0.7554700  
O    10.3531190   -0.6103920   -1.0343790  
C     8.1633010   -1.3907670   -0.4766220  
O     8.6263870   -2.5287490   -0.5264500  
C     6.7463020   -1.1194440   -0.1468660  
H     9.3218400    1.8771470   -0.9292670  
H    10.3557820   -1.5915030   -0.9859590  
H     6.1123370   -1.9748330    0.0619900  
H     4.6272400    2.9860060    0.0497600  
C    -5.6382180   -3.6377700    0.2468690  
C    -6.9325310   -3.5700500   -0.1336890  
C    -7.1850180   -2.1507010   -0.3707710  
C    -5.8682530   -1.4910880   -0.0922060  
N    -4.9793470   -2.3628770    0.2753990  
C    -5.6822990   -0.0397430   -0.2020180  
C    -6.8110100    0.6536310   -0.5239810  
O    -6.8449650    2.0120690   -0.6376130  
C    -8.1324740    0.0266590   -0.8026170  
O    -9.0679070    0.7711240   -1.1067790  
C    -8.2728850   -1.4380400   -0.7140640  
H    -7.6488920   -4.3741840   -0.2292750  
H    -7.7747250    2.2165070   -0.8946980  
H    -9.2526490   -1.8596890   -0.9168390  
H    -5.0646720   -4.5137510    0.5242020  
