60


C    -1.5966440    0.0394780    0.7321420  
C    -2.6956670   -0.6611480    0.2931230  
C    -3.4934810    0.2848170   -0.4846950  
C    -2.8269800    1.5315820   -0.4457380  
N    -1.6475520    1.3614140    0.3109220  
C    -3.2879290    2.6577280   -1.1306720  
C    -4.4812520    2.5448050   -1.8284010  
O    -4.9742780    3.6207980   -2.5020420  
C    -5.1833900    1.3169120   -1.8460540  
O    -6.3516580    1.3474090   -2.5763610  
C    -4.7039900    0.1955990   -1.1911870  
H    -2.7759430    3.6101580   -1.1182580  
H    -5.8053000    3.3432200   -2.9248950  
H    -6.7602750    0.4689210   -2.5703170  
H    -5.2224340   -0.7520520   -1.2721900  
H    -0.7937870   -0.2828990    1.3731880  
C     2.7652260    1.1162430    0.1614330  
C     1.4387830    0.7827510    0.0373930  
C     0.7099450    1.9459740    0.4729910  
C     1.7604820    2.9268740    0.8435550  
N     2.9582340    2.4407920    0.6587480  
C     1.4484590    4.2518550    1.3159020  
C     0.1445920    4.5926090    1.4116720  
O    -0.2914360    5.7920620    1.8252800  
C    -0.9632380    3.6316980    1.0653880  
O    -2.1130340    4.0079370    1.2699500  
C    -0.6204900    2.2722760    0.5485500  
H     1.0237980   -0.1419840   -0.3356510  
H     2.2451700    4.9397170    1.5751580  
H    -1.2715110    5.7307630    1.8395880  
C     3.9399940    0.3453330   -0.1420620  
C     4.0861540   -0.9363310   -0.6252790  
C     5.4922290   -1.2013450   -0.7401720  
C     6.1875130    0.0329780   -0.2837700  
N     5.1940190    0.9196500    0.0607950  
C     7.5370600    0.1782580   -0.2440360  
C     8.3711510   -0.9396190   -0.6725240  
O     9.5927270   -0.9000260   -0.6707170  
C     7.6579170   -2.2549770   -1.1588640  
O     8.3424490   -3.2012000   -1.5208450  
C     6.1960510   -2.2931150   -1.1577320  
H     3.2854290   -1.6182650   -0.8726420  
H     8.0284850    1.0861280    0.0916050  
H     5.7148010   -3.2059890   -1.4956570  
H     5.3012100    1.8610820    0.4101580  
C    -4.6432450   -4.0335430   -1.8604860  
C    -4.5628530   -5.0270630   -0.9497700  
C    -3.8917100   -4.4329060    0.2024070  
C    -3.6421350   -3.0100340   -0.2036440  
N    -4.0841660   -2.7933350   -1.4075300  
C    -2.9626520   -2.0533100    0.6725340  
C    -2.5390100   -2.5737030    1.8695660  
O    -1.8579500   -1.8653180    2.7920430  
C    -2.8017110   -3.9789440    2.3041730  
O    -2.4158680   -4.3127420    3.4261160  
C    -3.5035980   -4.9059020    1.3991910  
H    -4.8989710   -6.0507110   -1.0385960  
H    -1.7493270   -2.4812150    3.5528200  
H    -3.6621880   -5.9223280    1.7462210  
H    -5.0639980   -4.0705220   -2.8580830  
