64


C     2.4282150   -1.1948160   -0.9605250  
C     3.3736710   -0.4596290   -0.2761760  
C     2.6349970    0.5462670    0.4629730  
C     1.2585530    0.3506230    0.1863600  
N     1.1660110   -0.7205220   -0.6770960  
C     0.2283470    1.1694410    0.7008290  
C     0.6468130    2.2238710    1.5155140  
O    -0.2744480    3.0622600    2.0785520  
C     2.0217480    2.4426680    1.7921760  
O     2.2508140    3.5326800    2.6124630  
C     3.0148370    1.6271630    1.2866070  
H     0.3059010   -1.0337070   -1.1010670  
H     0.2183410    3.6832590    2.6436490  
H     3.1937270    3.5808540    2.8293190  
H     4.0607810    1.8213950    1.5089020  
H     2.5671230   -2.0432830   -1.6150960  
C     6.3027550   -0.9596880   -3.6564150  
C     5.1663680   -0.7662370   -2.9153560  
C     5.5474400   -0.8134590   -1.5304790  
C     6.9496640   -1.0352100   -1.4970800  
N     7.3810990   -1.1240130   -2.8056020  
C     7.6803450   -1.1185650   -0.3053800  
C     6.9732540   -0.9779420    0.8775740  
O     7.6245150   -1.0654550    2.0765040  
C     5.5729090   -0.7567530    0.8675850  
O     5.0180330   -0.6613250    2.1331360  
C     4.8338020   -0.6680530   -0.3111780  
H     4.1743360   -0.5951170   -3.3079120  
H     8.3340330   -1.2791730   -3.0938110  
H     8.7513620   -1.2915230   -0.2772890  
H     6.9443520   -0.9995770    2.7691890  
H     4.0499330   -0.6745470    2.0492910  
H     6.4399690   -0.9929290   -4.7281280  
C    -1.7946620   -0.3254160    0.4805360  
C    -1.1880630    0.9008110    0.3948780  
C    -2.1907190    1.8156320   -0.1185560  
C    -3.3735670    1.0766370   -0.3460160  
N    -3.1163540   -0.2569280    0.0274020  
C    -4.5527140    1.6786740   -0.7957120  
C    -4.5196780    3.0398730   -1.0593980  
O    -5.6438540    3.6670390   -1.5078800  
C    -3.3303490    3.7865090   -0.8650710  
O    -3.4524630    5.1260780   -1.1707840  
C    -2.1724330    3.1916890   -0.3995440  
H    -5.4709540    1.1333930   -0.9675120  
H    -5.4225990    4.6065720   -1.6285010  
H    -2.6131450    5.5759840   -0.9928580  
H    -1.2790790    3.7804840   -0.2163030  
H    -1.4003860   -1.2702950    0.8238190  
C    -3.9732610   -3.3680400    3.0497610  
C    -3.4480490   -2.2605790    2.4680220  
C    -4.0656770   -2.1985370    1.1469740  
C    -4.9547850   -3.3852710    1.1088180  
N    -4.9000850   -4.0655190    2.2226540  
C    -5.7840350   -3.6905910   -0.0310980  
C    -5.7352080   -2.8536230   -1.0907700  
O    -6.4598320   -3.0125310   -2.2147700  
C    -4.8329950   -1.6558570   -1.1128260  
O    -4.7782860   -1.0048140   -2.1517390  
C    -4.0034730   -1.3320100    0.0972920  
H    -2.7516390   -1.5519310    2.8921850  
H    -6.4234290   -4.5661270   -0.0156870  
H    -6.1775110   -2.2912370   -2.8166830  
H    -3.7759410   -3.7525730    4.0432330  
