60


C    -0.8972670   -0.5632920    0.9134570  
C    -0.5592090    0.6853690    0.4082480  
C    -1.8070240    1.2702140   -0.0575620  
C    -2.8272610    0.3151550    0.1822460  
N    -2.2326550   -0.7910680    0.7624230  
C    -4.1780260    0.4896380   -0.1978480  
C    -4.4892110    1.7440260   -0.7466910  
O    -5.7783700    2.0723110   -1.0305880  
C    -3.4790120    2.7022890   -0.9992660  
O    -3.9544590    3.8673240   -1.5771350  
C    -2.1519000    2.4759150   -0.6964380  
H    -2.7791030   -1.4418440    1.3186800  
H    -5.7626820    2.9672330   -1.4136340  
H    -3.2376910    4.5171160   -1.6208570  
H    -1.4036990    3.2323830   -0.9019250  
H    -0.2564480   -1.3012370    1.3679730  
C     3.1961610   -1.4580900   -0.0166590  
C     4.1505210   -0.4797810    0.0843790  
C     3.3614120    0.7619650    0.2521540  
C     1.9406780    0.3036730    0.2518960  
N     1.8709360   -0.9910140    0.0920740  
C     0.7991920    1.2156780    0.3844030  
C     1.1351830    2.5425040    0.4864180  
O     0.2349980    3.5398340    0.6663390  
C     2.5288150    3.0295070    0.4375180  
O     2.7267770    4.2474690    0.5405680  
C     3.6480800    2.0741690    0.3017840  
H     0.7890100    4.3516780    0.7216520  
H     4.6483670    2.4860600    0.2863970  
H     3.3668350   -2.5119550   -0.1779450  
C     6.4374650   -3.6163290   -1.9487140  
C     7.7145580   -3.2662270   -1.6824580  
C     7.6151360   -2.0568830   -0.8718830  
C     6.1418930   -1.8125980   -0.7461610  
N     5.4685990   -2.7252000   -1.3811820  
C     5.5927240   -0.6678700   -0.0051100  
C     6.5334600    0.1384350    0.5832410  
O     6.2342520    1.2091100    1.3486890  
C     8.0028780   -0.0904310    0.4721180  
O     8.7519740    0.6978000    1.0557960  
C     8.5139440   -1.2368480   -0.3006900  
H     8.6259330   -3.7575770   -1.9935750  
H     7.1077640    1.5634910    1.6336210  
H     9.5911650   -1.3599050   -0.3589710  
H     6.0785290   -4.4615830   -2.5232250  
C    -5.3197680   -2.3188040    3.0667730  
C    -6.4636930   -2.8519380    2.5844560  
C    -6.6145840   -2.2851820    1.2498250  
C    -5.4405850   -1.3580300    1.1002210  
N    -4.6816790   -1.4129170    2.1610480  
C    -5.2223740   -0.5560170   -0.0963230  
C    -6.0657390   -0.8404670   -1.1396240  
O    -5.9509470   -0.3021680   -2.3586200  
C    -7.2257790   -1.7889990   -1.0284880  
O    -7.9281920   -1.9524430   -2.0263220  
C    -7.4764620   -2.4954520    0.2391080  
H    -7.1267330   -3.5612420    3.0596570  
H    -6.6977320   -0.6758650   -2.8782210  
H    -8.3234520   -3.1734830    0.2774810  
H    -4.8499710   -2.4975750    4.0265500  
