62


C    -0.5540190   -1.2380010   -0.6574410  
C    -0.8623420   -2.5264650   -1.0568120  
C    -2.2808780   -2.6760210   -0.9812620  
C    -2.8053290   -1.4375580   -0.5227790  
N    -1.7421290   -0.5884360   -0.3425180  
C    -4.1784500   -1.2091250   -0.2992390  
C    -5.0337460   -2.2758970   -0.5881690  
O    -6.3789110   -2.1187480   -0.4732930  
C    -4.5250800   -3.5173490   -1.0556760  
O    -5.5099870   -4.4568460   -1.2963350  
C    -3.1753680   -3.7312160   -1.2524060  
H    -0.1502640   -3.2601200   -1.4092400  
H    -1.8001090    0.3287440    0.0691490  
H    -6.7871900   -2.9788880   -0.6747960  
H    -5.1034670   -5.2836030   -1.5948370  
H    -2.8153900   -4.6930990   -1.6117020  
C     1.9262800   -1.1472560   -0.2915450  
C     0.7185450   -0.5570230   -0.5495520  
C     0.9728490    0.8717840   -0.6764110  
C     2.3546380    1.0804250   -0.4708150  
N     2.9416240   -0.1904760   -0.2397290  
C     2.9341040    2.3493300   -0.5363960  
C     2.0974760    3.4250130   -0.8116300  
O     2.6213900    4.6810520   -0.8731080  
C     0.7149270    3.2298800   -1.0378770  
O     0.0194720    4.3853940   -1.3207220  
C     0.1470640    1.9661920   -0.9820880  
H     3.9913810    2.5020100   -0.3759900  
H     1.8926050    5.2917060   -1.0784540  
H    -0.9246650    4.1893410   -1.4146310  
H    -0.9077140    1.8332320   -1.2106550  
H     2.1472520   -2.1833230   -0.0925010  
C     4.2546580   -0.4984700    0.0056440  
C     4.8112560   -1.7562190    0.1650870  
C     6.1923110   -1.5197810    0.4061100  
C     6.3297310   -0.0185330    0.3609260  
N     5.1845680    0.5638700    0.1244690  
C     7.5899880    0.6332940    0.5612360  
C     8.6629730   -0.1628120    0.7922250  
O     9.9024220    0.2822780    0.9972540  
C     8.5625880   -1.6850130    0.8429850  
O     9.6254950   -2.2796880    1.0632410  
C     7.2801770   -2.3149340    0.6391780  
H     4.3239870   -2.7176630    0.1099330  
H     7.6639220    1.7143730    0.5254340  
H    10.4355900   -0.5402630    1.1311960  
H     7.2355300   -3.3983420    0.6812040  
C    -6.5289740   -0.2488160    3.3007850  
C    -6.7239520    1.0825730    3.1768920  
C    -6.0250380    1.4540110    1.9487190  
C    -5.4720590    0.1589420    1.4364820  
N    -5.7517770   -0.8227130    2.2379000  
C    -4.6885450    0.0832540    0.2049050  
C    -4.4352200    1.2752970   -0.4058090  
O    -3.7038960    1.3981280   -1.5376310  
C    -4.9542700    2.5845610    0.1015970  
O    -4.6677150    3.5978320   -0.5412480  
C    -5.7806080    2.6194770    1.3212460  
H    -7.2590220    1.7489190    3.8391220  
H    -3.7738120    2.3508040   -1.7713490  
H    -6.1349220    3.5897690    1.6559110  
H    -6.8800110   -0.9058120    4.0874110  
