60


C     2.1859140   -0.7288830    0.3372500  
C     3.4689320   -0.2241110    0.2460740  
C     3.3267400    1.2251570    0.1788210  
C     1.9424240    1.5113630    0.2443630  
N     1.2576190    0.2919530    0.3371800  
C     1.4288420    2.8116800    0.2389600  
C     2.3312230    3.8574530    0.1079580  
O     1.8819940    5.1440050    0.0914320  
C     3.7172540    3.5917090   -0.0061650  
O     4.4946060    4.7241810   -0.1416140  
C     4.2196630    2.3024870    0.0284850  
H     0.3718980    3.0288550    0.3375010  
H     2.6612130    5.7206790    0.0084050  
H     5.4305330    4.4742490   -0.1513460  
H     5.2885420    2.1321800   -0.0245610  
H     1.8592620   -1.7552740    0.3485180  
C    -0.7658730   -0.7305080    1.3317150  
C    -0.1208060    0.0998610    0.4714510  
C    -1.1740670    0.6348370   -0.4152090  
C    -2.4203610    0.0133800    0.1144770  
N    -2.1692870   -0.7780580    1.1196880  
C    -3.7192620    0.2804160   -0.4780250  
C    -3.7314560    1.0934500   -1.5738460  
O    -4.8516610    1.4606780   -2.2104310  
C    -2.4817540    1.6853380   -2.1543100  
O    -2.5958660    2.4021810   -3.1468880  
C    -1.1789150    1.4095460   -1.5143770  
H    -4.5561900    2.0250390   -2.9591140  
H    -0.2977580    1.8662650   -1.9530330  
H    -0.3295960   -1.3310260    2.1199510  
C    -5.8678400    0.2413850    3.4592620  
C    -4.9356810    0.4869050    2.5104850  
C    -5.4010950   -0.2253070    1.3247640  
C    -6.6809550   -0.8650000    1.7697510  
N    -6.9499370   -0.5863160    3.0120970  
C    -7.4830880   -1.6615200    0.8778400  
C    -7.0409500   -1.8194260   -0.3898490  
O    -7.6757420   -2.5436770   -1.3265380  
C    -5.7543490   -1.2003030   -0.8695830  
O    -5.4049800   -1.4569200   -2.0179140  
C    -4.9497080   -0.3409890    0.0515570  
H    -4.0277870    1.0643580    2.5978550  
H    -8.4037990   -2.1123310    1.2309680  
H    -7.1062210   -2.4906970   -2.1252970  
H    -5.8823170    0.5922540    4.4843510  
C     3.9828720   -4.2920010   -1.3146000  
C     5.2987790   -4.5190970   -1.1118310  
C     5.8012140   -3.3015820   -0.4830960  
C     4.6014070   -2.4097260   -0.3844280  
N     3.5504150   -2.9977720   -0.8760960  
C     4.6672940   -1.0586110    0.1904800  
C     5.9014260   -0.6972990    0.6642760  
O     6.1568380    0.4755530    1.2877730  
C     7.1055420   -1.5683120    0.5758520  
O     8.1638190   -1.1387460    1.0459640  
C     7.0056410   -2.9063580   -0.0368250  
H     5.8748110   -5.4009470   -1.3554880  
H     7.1107770    0.4216750    1.5255010  
H     7.9110000   -3.5041280   -0.0816240  
H     3.2478580   -4.9534550   -1.7569910  
