58


C     2.6683700    1.4186310    0.1341030  
C     1.3457170    1.0983720   -0.0302880  
C     0.5555110    2.2103870    0.4259420  
C     1.5220910    3.2409060    0.8664580  
N     2.7878460    2.6788350    0.7406220  
C     1.1945580    4.4868580    1.2874850  
C    -0.2172550    4.8420680    1.3348210  
O    -0.6222070    5.9428130    1.6696290  
C    -1.2754270    3.7464010    0.9432850  
O    -2.4572830    4.0243940    1.0511590  
C    -0.8060880    2.4165940    0.4782940  
H     0.9738880    0.1602600   -0.4135870  
H     1.9255180    5.2300310    1.5898990  
H     3.6116740    3.2521570    0.6137070  
C     3.8448720    0.6456870   -0.1768510  
C     4.0060630   -0.3605240   -1.0909800  
C     5.3774870   -0.7990660   -1.0299900  
C     6.0292430    0.0302790    0.0114120  
N     5.0690620    0.9383070    0.4528560  
C     7.3136240   -0.1164900    0.4129620  
C     8.1336800   -1.1379390   -0.2423640  
O     9.2999030   -1.3392410    0.0529590  
C     7.4759510   -1.9976600   -1.3820710  
O     8.1476020   -2.8442110   -1.9491620  
C     6.0682260   -1.7534680   -1.7116510  
H     3.2525680   -0.7164320   -1.7791390  
H     7.7747600    0.4916040    1.1851510  
H     5.6175740   -2.3654340   -2.4869560  
H     5.1032580    1.3289690    1.3854830  
C    -1.7034790    0.0801760    0.5884020  
C    -1.7802320    1.3730330    0.1586050  
C    -2.9788280    1.4548300   -0.6826910  
C    -3.5660530    0.0951720   -0.7105370  
N    -2.7306900   -0.7164170    0.0829610  
C    -4.7197620   -0.2235740   -1.3398390  
C    -5.4094380    0.8183100   -2.1052880  
O    -6.4512030    0.6112610   -2.7049540  
C    -4.7653610    2.2444070   -2.1511870  
O    -5.2944510    3.1167280   -2.8187470  
C    -3.5413160    2.4767070   -1.3728030  
H    -5.1550530   -1.2148240   -1.3392300  
H    -3.1485180    3.4858380   -1.3525880  
H    -0.9717260   -0.3698830    1.2448430  
C    -2.6623830   -2.8844730    3.9332110  
C    -2.6446250   -1.8625630    3.0408780  
C    -2.8255240   -2.4971800    1.7408760  
C    -2.9293100   -3.9509240    2.0558550  
N    -2.8339430   -4.1696190    3.3377420  
C    -3.1339790   -4.9449170    1.0331760  
C    -3.2286180   -4.5259400   -0.2491150  
O    -3.4264850   -5.3444370   -1.2956240  
C    -3.0980840   -3.0769580   -0.6218050  
O    -3.0970990   -2.7877300   -1.8133130  
C    -2.9272990   -2.0536970    0.4603160  
H    -2.5603360   -0.8047330    3.2451630  
H    -3.2122740   -5.9915130    1.3049170  
H    -3.4062590   -4.7774540   -2.0956070  
H    -2.5751850   -2.8236180    5.0113630  
