62


C     1.7442450    3.3033510   -1.3679010  
C     2.9565690    2.8408340   -0.9282080  
C     2.7287550    1.5603510   -0.3203430  
C     1.3367020    1.2999460   -0.4352210  
N     0.7650170    2.3704550   -1.0854180  
C     0.7480260    0.1077850    0.0248620  
C     1.5980910   -0.8336620    0.6070170  
O     1.0819200   -1.9989590    1.0920460  
C     2.9860910   -0.5914020    0.7075580  
O     3.6751520   -1.6259070    1.3214780  
C     3.5881960    0.5843960    0.2544060  
H     3.9044170    3.3463730   -1.0383760  
H    -0.2267770    2.5055340   -1.2123560  
H     1.8217880   -2.4765500    1.5095370  
H     4.4794950   -1.2729440    1.7340230  
H     1.4901010    4.2273780   -1.8671840  
C    -1.1721550   -1.2904030   -0.7456900  
C    -2.5257500   -1.2614250   -0.7513410  
C    -2.9375900   -0.0499480   -0.0688590  
C    -1.6881210    0.6349560    0.3382480  
N    -0.6372340   -0.1592880   -0.1093260  
C    -1.6386550    1.8179060    1.0110040  
C    -2.8960730    2.4718420    1.3406000  
O    -2.9592230    3.5567650    1.9008110  
C    -4.2374860    1.7430130    0.9662800  
O    -5.2833040    2.2237080    1.3600650  
C    -4.1762720    0.4666220    0.1993730  
H    -3.1816540   -1.9949100   -1.1953690  
H    -0.7139350    2.2912910    1.3211110  
H    -0.4931380   -2.0261730   -1.1518280  
C    -5.7602860   -3.5296370    1.3057050  
C    -6.9591560   -3.4381460    0.6490900  
C    -6.9854990   -2.1605110   -0.0060250  
C    -5.7560670   -1.5159180    0.2903590  
N    -5.0304380   -2.3741800    1.0908000  
C    -5.4352110   -0.2160240   -0.1601950  
C    -6.3999220    0.4180640   -0.9466180  
O    -6.1403800    1.6496050   -1.4668600  
C    -7.6287820   -0.2172110   -1.2575510  
O    -8.4604100    0.5460910   -2.0581430  
C    -7.9324680   -1.4852560   -0.8004070  
H    -7.7362480   -4.1900150    0.6354110  
H    -4.1199270   -2.1749070    1.4741730  
H    -6.9605820    1.9622080   -1.8869030  
H    -9.3361510    0.1343410   -2.0959030  
H    -8.8836210   -1.9492640   -1.0539940  
H    -5.3552190   -4.3265820    1.9132320  
C     5.6765870    1.9470140    0.7753370  
C     5.0327740    0.8097470    0.3808440  
C     6.1365640   -0.1066270    0.0092160  
C     7.3758290    0.6848630    0.2722910  
N     7.0947090    1.8760650    0.7230810  
C     8.6862160    0.1414250    0.0307800  
C     8.7704360   -1.1124940   -0.4755060  
O     9.9249350   -1.7381020   -0.7552540  
C     7.5415290   -1.9250930   -0.7736540  
O     7.6963300   -3.0553560   -1.2316380  
C     6.2044660   -1.3515020   -0.5017570  
H     9.5661650    0.7390340    0.2415010  
H     9.6689540   -2.6188540   -1.1066460  
H     5.3444600   -1.9761420   -0.7192430  
H     5.2178410    2.8649220    1.1226630  
