58


C    -0.6751350    1.2277820    0.1572170  
C    -1.7643740    0.3807540    0.1099600  
C    -2.9503510    1.1819020    0.0698720  
C    -2.4923970    2.5914290    0.0716280  
N    -1.1177700    2.5500540    0.1494780  
C    -3.3126540    3.6700910   -0.0124300  
C    -4.7487290    3.4402520   -0.1066750  
O    -5.5650850    4.3398260   -0.2263630  
C    -5.2704450    1.9617050   -0.0373900  
O    -6.4704230    1.7657110    0.0400460  
C    -4.2843010    0.8528190   -0.0048500  
H    -1.7292920   -0.6946710    0.0610980  
H    -2.9516940    4.6934350   -0.0321330  
H    -0.4835120    3.3258570    0.0151930  
C     1.6839440   -2.4188490    1.2314420  
C     0.6482140   -1.5512560    1.1011870  
C     1.2320740   -0.3399990    0.5531320  
C     2.6921270   -0.6695430    0.4272120  
N     2.9388230   -1.8890940    0.8119760  
C     3.6733120    0.2878570   -0.0496260  
C     3.1934100    1.5257010   -0.3654420  
O     3.9678780    2.5086780   -0.8415380  
C     1.7530500    1.8981360   -0.2262640  
O     1.4596190    3.0720950   -0.4729120  
C     0.7359670    0.8805450    0.1829420  
H    -0.3783120   -1.7117040    1.3942900  
H     3.3952550    3.3011610   -0.9176870  
H     1.6551870   -3.4298250    1.6202550  
C     6.0976490   -2.8673100   -2.0783200  
C     5.0808760   -2.0880190   -1.6265270  
C     5.6581830   -1.0724460   -0.7763370  
C     7.1225140   -1.3251810   -0.7758420  
N     7.3190160   -2.4299170   -1.5802800  
C     8.0428370   -0.5767450   -0.1170590  
C     7.5722980    0.5631520    0.6569100  
O     8.3183040    1.3137310    1.2655350  
C     6.0255510    0.8362630    0.7129780  
O     5.6228230    1.7269090    1.4397650  
C     5.1139840   -0.0206280   -0.0873890  
H     4.0324300   -2.2201280   -1.8404990  
H     9.1098650   -0.7740680   -0.1499230  
H     6.0612880   -3.7293410   -2.7312500  
H     8.2165560   -2.8381220   -1.7883490  
C    -3.8052660   -2.7734220    2.6059900  
C    -3.6740960   -1.5122000    2.1234440  
C    -4.4794280   -1.4851600    0.9075310  
C    -5.0481940   -2.8666610    0.8252810  
N    -4.6453660   -3.6135480    1.8159630  
C    -5.9458580   -3.2586470   -0.2287220  
C    -6.2659510   -2.3307820   -1.1598660  
O    -7.0801920   -2.5594950   -2.2010240  
C    -5.6807160   -0.9430130   -1.1359940  
O    -5.9204820   -0.2183580   -2.0946750  
C    -4.7832050   -0.5269650   -0.0088570  
H    -3.1217300   -0.6886530    2.5522050  
H    -6.3435510   -4.2669780   -0.2564020  
H    -7.0894070   -1.7240930   -2.7179640  
H    -3.3648570   -3.1874770    3.5057260  
