62


C     0.4326090    1.7577210    0.4034940  
C     1.7056880    1.2792380    0.2331740  
C     1.5967620   -0.1362560    0.0304280  
C     0.2165490   -0.4543120    0.0506500  
N    -0.4744320    0.7171610    0.2760550  
C    -0.3051500   -1.7614900   -0.1087190  
C     0.6570850   -2.7626990   -0.3423340  
O     0.2884870   -4.0381600   -0.5813710  
C     2.0419570   -2.4581160   -0.4078530  
O     2.8372220   -3.5634710   -0.6377760  
C     2.5470230   -1.1701330   -0.1991170  
H     2.6052010    1.8735590    0.2495660  
H    -1.4476300    0.7645120    0.5419040  
H     1.1238360   -4.5255020   -0.7274880  
H     3.4418850   -3.3552950   -1.3808600  
C     0.5529500    3.8744430    1.6751280  
C    -0.1072850    5.0697080    1.7080110  
C    -1.1422180    5.0141380    0.7122160  
C    -1.0558180    3.7429760    0.0908470  
N    -0.0097110    3.0486800    0.7013510  
C    -1.8977790    3.3581520   -0.9605310  
C    -2.8625830    4.2651830   -1.3729920  
O    -3.7116890    3.9358030   -2.3903420  
C    -2.9757580    5.5354020   -0.7503460  
O    -3.9855190    6.3238030   -1.2692170  
C    -2.1297470    5.9177820    0.2747050  
H     0.1088080    5.8940980    2.3737830  
H    -1.8100370    2.4037130   -1.4672910  
H    -4.2959870    4.6997140   -2.5358400  
H    -3.9958830    7.1779080   -0.8126910  
H    -2.2263620    6.9016590    0.7298660  
H     1.3711110    3.4999430    2.2727910  
C    -1.7306230   -2.0306720   -0.0429330  
C    -2.7678290   -1.2104110   -0.4212640  
C    -3.9772090   -1.9308660   -0.1108600  
C    -3.4901130   -3.2128830    0.4960090  
N    -2.1928960   -3.2734190    0.5275310  
C    -4.4090620   -4.2174950    0.9700450  
C    -5.7321130   -3.9740270    0.8255900  
O    -6.7041550   -4.8146870    1.2093860  
C    -6.2517880   -2.6971350    0.2004400  
O    -7.4761260   -2.5765030    0.1182880  
C    -5.3017790   -1.6840180   -0.2598670  
H    -2.7105740   -0.2666130   -0.9456700  
H    -4.0324880   -5.1323640    1.4136600  
H    -7.5421090   -4.3562930    0.9705090  
H    -5.7101810   -0.7767340   -0.6943850  
C     5.2140640    0.8827980    2.6766160  
C     6.4169290    0.7900380    2.0691810  
C     6.1602380    0.0665160    0.8264140  
C     4.6830130   -0.1866800    0.8464330  
N     4.1442830    0.2842930    1.9297120  
C     4.0019290   -0.9130670   -0.2306320  
C     4.8249050   -1.3753110   -1.2141330  
O     4.3814030   -2.1000630   -2.2782210  
C     6.2961140   -1.1378920   -1.2601000  
O     6.9182680   -1.5923680   -2.2226860  
C     6.9407780   -0.3775890   -0.1752500  
H     7.3760860    1.1473060    2.4173620  
H     5.1882010   -2.2682040   -2.8201390  
H     8.0146980   -0.2304310   -0.2368700  
H     4.9771390    1.3389460    3.6300450  
