62


C    -0.0833840    0.7468100    1.4948250  
C    -1.2730620    0.1135840    1.2570540  
C    -1.8982510    0.7772110    0.1467580  
C    -1.0168230    1.8145740   -0.2561180  
N     0.0929320    1.7840230    0.5828800  
C    -1.2617050    2.6368210   -1.3567290  
C    -2.4173610    2.3889050   -2.0830810  
O    -2.7079810    3.1447940   -3.1732830  
C    -3.3124980    1.3497100   -1.7202000  
O    -4.4187330    1.2635370   -2.5370130  
C    -3.1025130    0.5524990   -0.5878540  
H    -1.6720530   -0.7079320    1.8337590  
H    -0.5956750    3.4380670   -1.6533890  
H    -3.5433480    2.7870250   -3.5300620  
H    -4.5480700    0.3151810   -2.7473840  
H     0.6548990    0.5847020    2.2674800  
C     4.2394150    0.7456870   -0.0631590  
C     4.7828530    1.9989090    0.0944100  
C     3.7215840    2.9279760    0.3605030  
C     2.4782970    2.1251120    0.3541960  
N     2.8497370    0.8122310    0.1507540  
C     1.2257320    2.6306540    0.5322400  
C     1.0938540    4.0788060    0.7692760  
O     0.0194360    4.6205100    0.9620610  
C     2.4103170    4.9442680    0.7823300  
O     2.2996480    6.1502360    0.9518470  
C     3.6877770    4.2748210    0.5822580  
H     5.8371560    2.2349520    0.0727600  
H     4.5840920    4.8868370    0.5962070  
H     2.2057930    0.1217090   -0.2090180  
C     6.0817410   -0.6584340   -1.0171000  
C     4.8565990   -0.5148040   -0.3838460  
C     4.3532790   -1.8568320   -0.1525680  
C     5.3203090   -2.7506600   -0.6729560  
N     6.3562180   -1.9856740   -1.1864490  
C     5.1826600   -4.1417130   -0.6228890  
C     4.0374210   -4.6482720   -0.0291180  
O     3.8487300   -5.9935190    0.0427210  
C     3.0605540   -3.7710550    0.5148650  
O     1.9904370   -4.4230720    1.0860820  
C     3.2063440   -2.3959890    0.4666190  
H     7.1740990   -2.3525370   -1.6495080  
H     5.9270050   -4.8226080   -1.0222770  
H     2.9997780   -6.1474000    0.4927230  
H     1.3467640   -3.7790890    1.4174610  
H     2.4535110   -1.7597810    0.9251280  
H     6.7556650    0.1023050   -1.3838120  
C    -4.9750370   -0.4789690    3.3387240  
C    -4.3004290    0.1852600    2.3724350  
C    -4.4857550   -0.6083840    1.1571030  
C    -5.3302750   -1.7486460    1.6048010  
N    -5.6053630   -1.6813830    2.8764070  
C    -5.7627830   -2.7812140    0.6961880  
C    -5.4106780   -2.6561790   -0.6022180  
O    -5.7736820   -3.5241130   -1.5665430  
C    -4.6102930   -1.4866400   -1.0890340  
O    -4.4331340   -1.4233240   -2.3138450  
C    -4.0643780   -0.4721860   -0.1338500  
H    -3.7549010    1.1135470    2.4532630  
H    -6.3679510   -3.6061530    1.0551400  
H    -5.4170140   -3.1582700   -2.4030630  
H    -5.0932510   -0.2051080    4.3800460  
