60


C     2.5944540   -1.6264080   -0.0334390  
C     1.4234380   -0.9151860   -0.0493440  
C     1.7599870    0.4725120   -0.1655520  
C     3.1694730    0.5412450   -0.2187520  
N     3.6701020   -0.7580240   -0.1195930  
C     3.8706950    1.7355700   -0.4271270  
C     3.1361050    2.8976620   -0.5745430  
O     3.7720430    4.0818550   -0.7861720  
C     1.7190360    2.8880120   -0.5088880  
O     1.1670360    4.1065580   -0.6650850  
C     0.9891980    1.6818700   -0.2761210  
H     0.4431030   -1.3626750   -0.0218600  
H     4.9513440    1.7791720   -0.4717580  
H     3.0764550    4.7603560   -0.8640770  
H     0.1642940    3.9890310   -0.6453040  
H     2.7626450   -2.6903030    0.0315050  
C    -0.4364780    1.7174960   -0.1457010  
C    -1.3549170    0.7407780    0.2241700  
C    -2.6341360    1.3462730    0.1720740  
C    -2.3795030    2.7599400   -0.2505720  
N    -1.1025200    2.9612550   -0.4247390  
C    -3.4321630    3.7120970   -0.4386570  
C    -4.6947510    3.2817500   -0.1988230  
O    -5.7825340    4.0358230   -0.3365250  
C    -5.0095030    1.8684580    0.2773670  
O    -6.1970910    1.6352500    0.5195410  
C    -3.9192250    0.9154130    0.4242440  
H    -1.1498050   -0.2746710    0.5162800  
H    -3.2164420    4.7233780   -0.7636340  
H    -6.5322560    3.4550090   -0.0596760  
C    -3.5884420   -0.9243890    2.0624040  
C    -4.0255590   -2.1838280    2.3051920  
C    -4.9789790   -2.5180670    1.2694560  
C    -5.0647850   -1.3280040    0.3872920  
N    -4.1973660   -0.3732500    0.9262360  
C    -5.8238830   -1.2689070   -0.7335780  
C    -6.6375860   -2.4317380   -1.0862900  
O    -7.3500750   -2.4639880   -2.0777800  
C    -6.5836450   -3.6909680   -0.1478290  
O    -7.2623530   -4.6675940   -0.4252660  
C    -5.7034110   -3.6406210    1.0211290  
H    -3.7264680   -2.8177370    3.1275110  
H    -5.8751850   -0.3997130   -1.3782890  
H    -5.6517510   -4.5222670    1.6528550  
H    -2.8818100   -0.3203590    2.6153700  
C     7.0388700    0.4827360    2.3525110  
C     8.0355790   -0.2794090    1.8505350  
C     7.4185420   -1.0649970    0.7846700  
C     5.9913020   -0.6107820    0.7842300  
N     5.7753830    0.2842480    1.6987160  
C     5.0212330   -1.1618220   -0.1521320  
C     5.4601730   -2.1363590   -0.9981810  
O     4.6760120   -2.7598220   -1.8906530  
C     6.8857930   -2.6064810   -1.0021340  
O     7.1891860   -3.4732100   -1.8197800  
C     7.8561710   -2.0170700   -0.0598060  
H     9.0694160   -0.3238200    2.1632260  
H     5.2700750   -3.3859640   -2.3629630  
H     8.8751630   -2.3893520   -0.0985510  
H     7.0857270    1.2006700    3.1619540  
