62


C    -1.2901140   -1.4956690   -0.1584610  
C     0.0341930   -1.8471020   -0.4309490  
C     0.8213020   -0.6805930   -0.2926340  
C    -0.0630290    0.3784250    0.0866570  
N    -1.3218060   -0.1474720    0.1548850  
C     0.3481190    1.7063210    0.3363870  
C     1.7171320    1.9320260    0.1684190  
O     2.2269080    3.1779260    0.3673510  
C     2.6161290    0.8948800   -0.2078700  
O     3.9206020    1.3384280   -0.3285670  
C     2.2202600   -0.4200340   -0.4307640  
H     0.3772810   -2.8390930   -0.6862780  
H    -2.1830030    0.3495800    0.3378120  
H     3.1844740    3.1252680    0.1961130  
H     4.4382730    0.6902940   -0.8316330  
C    -2.5008090   -2.2468280   -0.1544560  
C    -2.7364050   -3.5759290   -0.4267220  
C    -4.1448790   -3.7608720   -0.2625690  
C    -4.6588690   -2.3996320    0.1262640  
N    -3.6981750   -1.5230440    0.1881950  
C    -6.0543050   -2.1665680    0.3841570  
C    -6.8928480   -3.2230370    0.2644000  
O    -8.2121540   -3.1679790    0.4707070  
C    -6.4062230   -4.6099840   -0.1258110  
O    -7.2734420   -5.4871280   -0.1998530  
C    -4.9934950   -4.8212810   -0.3820710  
H    -2.0139800   -4.3293970   -0.7073600  
H    -6.4038670   -1.1782160    0.6610170  
H    -8.5262090   -4.0890160    0.3045580  
H    -4.6762730   -5.8216160   -0.6589370  
C     3.0079400   -2.4540920   -1.7476740  
C     3.1656650   -1.4702690   -0.8117580  
C     4.4797240   -1.7836030   -0.1955490  
C     4.9518450   -2.9924640   -0.9308700  
N     4.0871920   -3.3690430   -1.8339000  
C     6.2082860   -3.6211080   -0.6240100  
C     6.9489440   -3.1045730    0.3870890  
O     8.1348970   -3.5971340    0.7820370  
C     6.4871320   -1.9095940    1.1677180  
O     7.2106680   -1.4945080    2.0718960  
C     5.1978420   -1.2686520    0.8228770  
H     6.5280340   -4.4917920   -1.1858230  
H     8.4219570   -3.0245430    1.5265490  
H     4.9048170   -0.4042160    1.4100340  
H     2.1664830   -2.5831400   -2.4174420  
C    -1.5848440    2.5718280    1.7151640  
C    -0.6089680    2.7428430    0.7496560  
C    -0.7736840    4.0895660    0.2443070  
C    -1.8602020    4.6694320    0.9458030  
N    -2.3279990    3.7227310    1.8369650  
C    -2.3211370    5.9687070    0.6989560  
C    -1.6708540    6.6995760   -0.2817700  
O    -2.0735720    7.9720180   -0.5642480  
C    -0.5837650    6.1337030   -1.0003350  
O    -0.0398180    6.9843650   -1.9451480  
C    -0.1343170    4.8510290   -0.7541090  
H    -3.0876220    3.8571450    2.4858130  
H    -3.1538650    6.4106520    1.2364310  
H    -1.4954900    8.3053730   -1.2720790  
H     0.6989750    6.5416940   -2.3881130  
H     0.7100310    4.4472980   -1.3045780  
H    -1.7718050    1.7248880    2.3606690  
