60


C     0.7453530   -2.2227790   -0.1998790  
C     1.6912940   -1.1936230   -0.1354660  
C     2.9632410   -1.7885410    0.0290670  
C     2.7593960   -3.2017300    0.0557900  
N     1.4180870   -3.4328360   -0.0839690  
C     3.7989040   -4.1222900    0.2032340  
C     5.0851360   -3.6161780    0.3309790  
O     6.1274730   -4.4665890    0.5161410  
C     5.3302990   -2.2199740    0.2771910  
O     6.6531230   -1.8948670    0.4411240  
C     4.3020210   -1.2761560    0.1177040  
H     1.4689800   -0.1426320   -0.1877800  
H     0.9538800   -4.3298010   -0.0927530  
H     3.6369880   -5.1944690    0.2393820  
H     6.9277470   -3.9221530    0.6258390  
H     6.7169200   -0.9568410    0.7045790  
C    -1.9201640    1.2283180   -0.7323520  
C    -3.1417490    0.6350280   -0.7232270  
C    -2.8727180   -0.8074190   -0.5960140  
C    -1.3888530   -0.8817780   -0.5058450  
N    -0.8549270    0.3033900   -0.5975430  
C    -0.6896230   -2.1634530   -0.3469650  
C    -1.5020710   -3.2757070   -0.3715520  
O    -1.0273720   -4.5457470   -0.2571990  
C    -2.9635310   -3.2241150   -0.5163340  
O    -3.5942950   -4.2899390   -0.5284730  
C    -3.6373070   -1.9122190   -0.6259390  
H    -1.8308370   -5.1137120   -0.3038300  
H    -4.7195100   -1.9132260   -0.7102520  
H    -1.6940580    2.2829310   -0.8307550  
C    -4.6523560    2.1678650   -1.9560310  
C    -5.9189120    2.6426990   -1.8853050  
C    -6.5536460    2.0163290   -0.7453140  
C    -5.5316200    1.1257240   -0.1414000  
N    -4.3881610    1.2387760   -0.9377710  
C    -5.7252350    0.4024660    0.9893840  
C    -7.0358690    0.4629540    1.6386730  
O    -7.2970140   -0.1575750    2.6568030  
C    -8.1447630    1.3681330    0.9912030  
O    -9.2483220    1.4169190    1.5101730  
C    -7.7981360    2.1291790   -0.2123850  
H    -6.3765190    3.3487040   -2.5631020  
H    -4.9594870   -0.2144550    1.4460480  
H    -8.5597350    2.7768340   -0.6359700  
H    -3.8705590    2.3829700   -2.6720080  
C     4.6007680    0.1387130    0.0722060  
C     5.7759050    0.7765200   -0.2886140  
C     5.5277290    2.1838770   -0.1294840  
C     4.1155380    2.2523110    0.3699810  
N     3.5817810    1.0698160    0.4725460  
C     3.4825320    3.5077800    0.6755400  
C     4.2038580    4.6351610    0.4705040  
O     3.7519820    5.8734550    0.6993680  
C     5.6272900    4.6001310   -0.0527560  
O     6.1865050    5.6888860   -0.2020780  
C     6.2518600    3.3129010   -0.3411510  
H     6.6456300    0.3465340   -0.7668070  
H     2.4644450    3.5294030    1.0476750  
H     4.5014810    6.4653680    0.4563350  
H     7.2731190    3.3234220   -0.7089760  
