62


C     2.1122470    2.2462110   -0.9545420  
C     3.2126190    1.4487270   -0.9892390  
C     2.7834430    0.0995820   -0.7174200  
C     1.3801430    0.1346460   -0.5367640  
N     0.9734240    1.4816030   -0.6745610  
C     0.6262410   -1.0215840   -0.3169940  
C     1.3116290   -2.2280000   -0.2610720  
O     0.6199300   -3.3782080   -0.0196470  
C     2.7118110   -2.2863620   -0.4420520  
O     3.2365820   -3.5527820   -0.3513080  
C     3.4778780   -1.1350530   -0.6655790  
H     4.2199580    1.7804440   -1.1958510  
H    -0.4467180   -0.9944600   -0.1946070  
H     1.2650910   -4.1067130   -0.0146790  
H     4.2082070   -3.4882450   -0.3355850  
H     2.0245450    3.3123280   -1.0917350  
C    -0.2897090    2.0196440   -0.5679450  
C    -0.6864550    3.3118220   -0.8120000  
C    -2.0884970    3.3275150   -0.5221910  
C    -2.4095960    1.9170940   -0.0994750  
N    -1.3437490    1.1688180   -0.1374520  
C    -3.7500320    1.4856070    0.2855540  
C    -4.6902580    2.4797460    0.2542040  
O    -5.9749090    2.3076270    0.6157880  
C    -4.4032350    3.8943620   -0.1723230  
O    -5.3566060    4.6827170   -0.1468290  
C    -3.0548530    4.2776950   -0.5658920  
H    -0.0976620    4.1456720   -1.1629180  
H    -6.3773690    3.2012150    0.4963100  
H    -2.8877640    5.3073730   -0.8646080  
C    -3.0927320   -0.7153240    1.3239660  
C    -4.0040700    0.0949360    0.6667580  
C    -5.1787500   -0.7278560    0.4362970  
C    -4.9022940   -2.0073390    0.9820170  
N    -3.6326980   -1.9577310    1.5281060  
C    -5.7977140   -3.0805630    0.9173790  
C    -7.0080640   -2.8644560    0.2782050  
O    -7.9232000   -3.8734880    0.1853670  
C    -7.3022730   -1.5964320   -0.2846810  
O    -8.5431880   -1.5306610   -0.8934470  
C    -6.4127170   -0.5402190   -0.2187860  
H    -3.1446420   -2.7375310    1.9408730  
H    -5.5767920   -4.0563300    1.3379590  
H    -8.6940620   -3.5157160   -0.2879600  
H    -8.6928390   -0.6296420   -1.2156830  
H    -6.6746820    0.4216390   -0.6460680  
H    -2.0976970   -0.4801950    1.6659570  
C     5.6682260   -2.0897300   -1.5888870  
C     4.9352220   -1.2359460   -0.8136110  
C     5.9630190   -0.4609040   -0.0801350  
C     7.2604780   -0.9976110   -0.5813280  
N     7.0782450   -1.9461860   -1.4578190  
C     8.5209300   -0.4946720   -0.1009710  
C     8.4976210    0.4694090    0.8508610  
O     9.5950840    1.0241630    1.3896020  
C     7.2047200    1.0075050    1.3975160  
O     7.2632430    1.8801090    2.2611240  
C     5.9213260    0.4805070    0.8803720  
H     9.4489940   -0.8959100   -0.4927770  
H     9.2661210    1.6785210    2.0440030  
H     5.0082760    0.8931500    1.2978750  
H     5.2891520   -2.8146750   -2.3010740  
