58


C     0.2109600    0.5358500   -0.8939260  
C    -0.2030910    1.7554120   -0.4128510  
C     0.9837750    2.3469230    0.2241390  
C     2.0746070    1.3615850    0.0620510  
N     1.5417390    0.3110130   -0.6221640  
C     3.3823800    1.4960990    0.5190040  
C     3.6760170    2.7420310    1.2584360  
O     4.7705540    3.0190460    1.7192360  
C     2.5144940    3.7744690    1.4797110  
O     2.7451220    4.7774320    2.1324310  
C     1.1924580    3.5045810    0.9023330  
H     0.4297630    4.2623410    1.0269420  
H    -0.3563700   -0.1956140   -1.4520220  
H     2.1401160   -0.4834590   -0.8644860  
C    -4.1767190   -0.2303390   -0.1372560  
C    -2.8315060    0.0801980   -0.0902750  
C    -2.6785410    1.4631110   -0.4256180  
C    -4.0446350    1.9790560   -0.6692580  
N    -4.8945370    0.9128410   -0.5012130  
C    -4.3505890    3.2661260   -0.9847200  
C    -3.2636940    4.2201940   -1.0811360  
O    -3.4187310    5.4062110   -1.3312270  
C    -1.7938700    3.7050490   -0.8456850  
O    -0.8852300    4.5118030   -0.9576120  
C    -1.5607390    2.2742180   -0.5236610  
H    -2.0630090   -0.6203070    0.1881360  
H    -5.3643530    3.6138100   -1.1555090  
H    -5.9012870    0.9426420   -0.5657630  
C    -2.5197340   -4.1704530    0.9436030  
C    -3.6422060   -4.9104160    1.0789370  
C    -4.7394310   -3.9973390    0.7854130  
C    -4.0663410   -2.6940970    0.4844340  
N    -2.7751490   -2.8094410    0.5748160  
C    -4.8337530   -1.4910630    0.1359370  
C    -6.1972130   -1.6600660    0.0943000  
O    -7.0699200   -0.6766190   -0.2090780  
C    -6.8803510   -2.9534780    0.3864190  
O    -8.1129850   -2.9681720    0.3161740  
C    -6.0789290   -4.1325230    0.7398970  
H    -3.7304270   -5.9543970    1.3449870  
H    -7.9585050   -1.1038070   -0.1526720  
H    -6.6116140   -5.0561200    0.9448730  
H    -1.4905430   -4.4795480    1.0775730  
C     4.3917910    0.4983920    0.3068130  
C     5.7149650    0.4817890    0.6929960  
C     6.2546850   -0.7536860    0.2155800  
C     5.1061560   -1.4319050   -0.4766010  
N     4.0293730   -0.7044070   -0.4214830  
C     5.2471220   -2.7192680   -1.0990100  
C     6.4671840   -3.3046750   -1.0377270  
O     6.7592890   -4.4953350   -1.5645620  
C     7.6527160   -2.6472070   -0.3453060  
O     8.7085430   -3.2855790   -0.3591770  
C     7.4806700   -1.3444240    0.2753340  
H     6.2300670    1.2529250    1.2416210  
H     4.4052360   -3.1901680   -1.5943800  
H     7.7135660   -4.6348660   -1.3536920  
H     8.3424280   -0.8986350    0.7613770  
