58


C    -1.8314860    0.1822390    0.3774750  
C    -1.1061610    1.3234460    0.2325250  
C    -2.0420780    2.3580910   -0.2133180  
C    -3.3695910    1.7112540   -0.3229830  
N    -3.1844690    0.3591790    0.0668790  
C    -4.4890120    2.3523170   -0.7305050  
C    -4.3858620    3.7715030   -1.0957050  
O    -5.3492930    4.4178670   -1.4719260  
C    -2.9869290    4.4645790   -1.0063790  
O    -2.8739370    5.6342460   -1.3320470  
C    -1.8527430    3.6597670   -0.5358030  
H    -5.4491840    1.8617410   -0.8022270  
H    -0.8920800    4.1528410   -0.4467300  
H    -1.4901120   -0.7828240    0.7203090  
C     2.2932430   -1.1249070   -1.1433360  
C     1.0785590   -0.5671420   -0.9386990  
C     1.2474270    0.5500830   -0.0375190  
C     2.6945940    0.6168230    0.2713240  
N     3.2986540   -0.4573590   -0.4285190  
C     3.2562210    1.5587750    1.0649930  
C     2.3817790    2.5790210    1.6463900  
O     2.8036780    3.4789700    2.3521760  
C     0.8449290    2.5191580    1.3521920  
O     0.1169690    3.3475190    1.8700810  
C     0.3358270    1.4403240    0.4712850  
H     0.1535690   -0.8873720   -1.3943240  
H     4.3157250    1.5907540    1.2751250  
H     2.5564930   -1.9671300   -1.7651210  
C     4.6234070   -0.8383720   -0.4646960  
C     5.1748590   -1.8906610   -1.1645360  
C     6.5695290   -1.8410890   -0.8560580  
C     6.7077270   -0.6634610    0.0749770  
N     5.5547540   -0.0887440    0.2925390  
C     7.9707360   -0.2695910    0.6230090  
C     9.0520210   -1.0067670    0.2669400  
O    10.2923380   -0.7721190    0.6881110  
C     8.9509160   -2.2051760   -0.6726860  
O    10.0087390   -2.7894200   -0.9151560  
C     7.6556660   -2.5803760   -1.2124250  
H     4.6896070   -2.6078000   -1.8089170  
H     8.0415520    0.5819450    1.2901420  
H    10.8443060   -1.4695600    0.2594370  
H     7.6158400   -3.4366880   -1.8776540  
C    -4.1107300   -0.6537670    0.1669150  
C    -3.8911310   -1.9563090    0.5715800  
C    -5.1710680   -2.5824650    0.4929080  
C    -6.0932150   -1.4937590    0.0057270  
N    -5.4522550   -0.3702450   -0.1796410  
C    -7.4906170   -1.7204300   -0.2100380  
C    -7.9575380   -2.9677040    0.0464380  
O    -9.2267530   -3.3401110   -0.1024030  
C    -7.0548990   -4.0943420    0.5415800  
O    -7.6084140   -5.1800820    0.7340130  
C    -5.6435100   -3.8348350    0.7501410  
H    -2.9721250   -2.4218420    0.8937330  
H    -8.1317700   -0.9197710   -0.5608680  
H    -9.2437090   -4.2917600    0.1616240  
H    -5.0267400   -4.6546650    1.1035760  
