60


C     1.5670040   -0.2492080   -0.0997060  
C     2.9385750   -0.2010860   -0.1456290  
C     3.2955450    1.2173580   -0.1499510  
C     2.0919790    1.9581890   -0.1020490  
N     1.0224560    1.0269590   -0.0562690  
C     2.0610960    3.3538970   -0.1317620  
C     3.2767570    4.0206000   -0.2180110  
O     3.2966880    5.3828960   -0.2447800  
C     4.4888900    3.2973950   -0.2771880  
O     5.6174320    4.0861680   -0.3625230  
C     4.5098770    1.9130620   -0.2461610  
H     1.1326630    3.9042100   -0.0925190  
H     4.2278370    5.6578270   -0.3044040  
H     6.4051530    3.5222640   -0.3610230  
H     5.4515730    1.3776050   -0.2548100  
H     0.9237170   -1.1111900   -0.0907780  
C    -0.3291450    1.2617980    0.0137780  
C    -1.3471890    0.3233930    0.0246530  
C    -2.5488610    1.0815570    0.1068740  
C    -2.0839700    2.5128990    0.1348600  
N    -0.7812930    2.5992580    0.0826310  
C    -2.9961290    3.6153270    0.1907240  
C    -4.3168000    3.3157180    0.2156250  
O    -5.2917620    4.2221020    0.2731250  
C    -4.8317370    1.8828800    0.2154580  
O    -6.0499770    1.7596250    0.3470490  
C    -3.8875880    0.7629100    0.1241960  
H    -1.2679080   -0.7500380   -0.0388770  
H    -2.6284870    4.6350010    0.2054500  
H    -6.1245470    3.6922270    0.3073680  
C    -3.2365040   -2.9163860    2.5647410  
C    -3.1879110   -1.6558000    2.0614020  
C    -4.0771010   -1.6111270    0.9186460  
C    -4.6618130   -2.9690980    0.8027760  
N    -4.0956420   -3.7156570    1.8183800  
C    -5.5885510   -3.3465180   -0.1163400  
C    -6.0469670   -2.3525270   -1.0741420  
O    -6.9062440   -2.5730740   -1.9142260  
C    -5.3912720   -0.9255070   -1.0284650  
O    -5.6485520   -0.1408440   -1.9232060  
C    -4.4329330   -0.6003620    0.0636790  
H    -2.5928080   -0.8385080    2.4384100  
H    -6.0188770   -4.3424030   -0.1574470  
H    -2.7168950   -3.3350500    3.4165290  
H    -4.3469850   -4.6663740    2.0389310  
C     6.9846330   -1.1472310    1.4433890  
C     7.1706310   -2.4071620    0.9945770  
C     5.9517430   -2.7318660    0.2598190  
C     5.1124940   -1.4925960    0.3624010  
N     5.7267430   -0.5795130    1.0557190  
C     3.7794120   -1.3983660   -0.2375320  
C     3.3454970   -2.5458180   -0.8538710  
O     2.1293340   -2.6728790   -1.4226700  
C     4.1744980   -3.7787490   -0.9899720  
O     3.6939180   -4.7288280   -1.6129230  
C     5.5199580   -3.8259450   -0.3907090  
H     8.0200900   -3.0581730    1.1476300  
H     2.1378090   -3.5666880   -1.8355260  
H     6.0858860   -4.7459580   -0.5010420  
H     7.6545400   -0.5432050    2.0434650  
