62


C    -1.1712070   -0.3819860    1.4287810  
C    -2.5216410   -0.5716090    1.3079970  
C    -2.9546330    0.1579180    0.1493620  
C    -1.7966370    0.7650670   -0.4051700  
N    -0.7123610    0.4335130    0.3993320  
C    -1.8162520    1.5066360   -1.5870760  
C    -3.0358190    1.6202480   -2.2382450  
O    -3.1226840    2.3196290   -3.4004300  
C    -4.2104660    1.0150200   -1.7224720  
O    -5.3344010    1.2525920   -2.4846330  
C    -4.2116030    0.3099000   -0.5122580  
H    -3.1359350   -1.1462600    1.9852550  
H    -0.9296920    1.9694170   -2.0038380  
H    -4.0535180    2.2430760   -3.6853070  
H    -5.8013170    0.3962070   -2.5811470  
H    -0.4814950   -0.7262630    2.1867280  
C     2.6319910   -2.1932340   -0.4655970  
C     3.6248080   -1.2337810   -0.5287110  
C     2.9732130    0.0373770   -0.2804760  
C     1.6005510   -0.2381570   -0.0738140  
N     1.4214810   -1.5998660   -0.1931410  
C     0.6480880    0.7662980    0.1746130  
C     1.0987310    2.0845550    0.2016770  
O     0.2265570    3.0968530    0.4501530  
C     2.4679420    2.3743990   -0.0408610  
O     2.7515830    3.7240120   -0.0043050  
C     3.3999840    1.3810580   -0.2777330  
H     0.5381020   -2.0753490   -0.0850360  
H     0.7312490    3.9284110    0.4104810  
H     3.6991490    3.8653340   -0.1476320  
H     4.4369060    1.6405210   -0.4746880  
H     2.7143810   -3.2661030   -0.5649700  
C     5.5615970   -2.3698780   -1.7148860  
C     5.0262460   -1.4977370   -0.8157170  
C     6.2084860   -0.9324890   -0.1243680  
C     7.3720600   -1.5972160   -0.7780230  
N     6.9847010   -2.4369970   -1.6966530  
C     8.7257410   -1.3102810   -0.3792270  
C     8.9180120   -0.4345260    0.6366800  
O    10.1260940   -0.0783180    1.1101500  
C     7.7658190    0.2246070    1.3348290  
O     8.0159390    1.0133070    2.2462380  
C     6.3835280   -0.0824680    0.9044120  
H     9.5528750   -1.7999460   -0.8814480  
H     9.9434510    0.5571900    1.8360410  
H     5.5772860    0.4053150    1.4434340  
H     5.0240620   -2.9833720   -2.4281660  
C    -6.0419940    0.4119700    3.5662290  
C    -5.2436220    0.6862600    2.5092620  
C    -5.7855580   -0.1010760    1.4013660  
C    -6.9486620   -0.8063150    2.0050190  
N    -7.0926720   -0.5168560    3.2669870  
C    -7.7843230   -1.6957740    1.2375850  
C    -7.5025060   -1.8367480   -0.0762230  
O    -8.2181160   -2.6049870   -0.9201570  
C    -6.3747500   -1.0900430   -0.7213980  
O    -6.2745870   -1.2153010   -1.9500890  
C    -5.4375090   -0.2521200    0.0905630  
H    -4.3952070    1.3524890    2.4651530  
H    -8.6167070   -2.2058200    1.7093010  
H    -7.8126150   -2.4807160   -1.8038280  
H    -5.9798040    0.8097600    4.5718670  
