60


C    -1.4570180   -0.0993200    0.9686090  
C    -2.8286690   -0.0479670    0.8456150  
C    -3.1360890    1.2572250    0.2938730  
C    -1.9098890    1.9402590    0.1139070  
N    -0.8832630    1.0886050    0.5326220  
C    -1.8343190    3.2309120   -0.4191050  
C    -3.0257000    3.8558340   -0.7527580  
O    -3.0077160    5.1143210   -1.2720810  
C    -4.2688850    3.1996840   -0.5501180  
O    -5.3637430    3.9554900   -0.9137950  
C    -4.3362000    1.9197500   -0.0314910  
H    -0.8996110    3.7631760   -0.5432730  
H    -3.9318610    5.3928310   -1.3939000  
H    -6.1783880    3.4911170   -0.6704920  
H    -5.3002520    1.4435960    0.1277100  
H    -0.8346660   -0.8898550    1.3641750  
C     2.1667360   -1.2467590   -1.4454690  
C     3.2779470   -0.5426250   -1.0826370  
C     2.8066590    0.5855370   -0.2793840  
C     1.3347280    0.4582060   -0.2159050  
N     1.0097820   -0.6672710   -0.9409030  
C     0.5062880    1.3200050    0.4462050  
C     1.1226120    2.4618830    1.1435040  
O     0.4843840    3.2631060    1.8022770  
C     2.6829540    2.6433380    1.0210040  
O     3.1892870    3.6319640    1.5238000  
C     3.4558590    1.6290030    0.3014170  
H     4.5320250    1.7551960    0.2503500  
H     2.1046590   -2.1523270   -2.0343740  
H     0.0695940   -1.0112320   -1.0669080  
C     5.1215270   -1.0339340   -2.7347340  
C     4.6587850   -0.8377080   -1.4658550  
C     5.8051470   -1.0250540   -0.5772820  
C     6.9624400   -1.3427260   -1.4497470  
N     6.4729010   -1.3474330   -2.7430200  
C     8.2216410   -1.5780400   -1.0033760  
C     8.4668370   -1.5356960    0.4362850  
O     9.5654290   -1.7328210    0.9309270  
C     7.2489470   -1.2314230    1.3830910  
O     7.4256610   -1.2152520    2.5899340  
C     5.9365290   -0.9805270    0.7736350  
H     9.0559970   -1.8049580   -1.6599740  
H     5.1068450   -0.7658580    1.4393870  
H     4.5761620   -0.9654720   -3.6670680  
H     7.0352270   -1.4706250   -3.5705490  
C    -3.6681460   -1.9168000    2.3437310  
C    -3.7378150   -1.1097950    1.2476190  
C    -4.9101200   -1.6251380    0.5023880  
C    -5.4153040   -2.7496120    1.3414790  
N    -4.6817500   -2.9147610    2.4066100  
C    -6.5645190   -3.5244260    0.9514740  
C    -7.1646860   -3.2248400   -0.2259330  
O    -8.2411510   -3.8691070   -0.7116520  
C    -6.6579670   -2.1227900   -1.1079640  
O    -7.2520220   -1.9072780   -2.1643030  
C    -5.4793930   -1.3351420   -0.6825300  
H    -6.9168030   -4.3276300    1.5893480  
H    -8.4396670   -3.4343070   -1.5693650  
H    -5.1399640   -0.5516120   -1.3528590  
H    -2.9494980   -1.8572660    3.1524940  
