60


C     0.4888650   -0.4874060   -1.4550530  
C    -0.1985140    0.2387560   -0.5094980  
C     0.7680970    0.7896550    0.4034040  
C     2.0360560    0.3647650   -0.0528370  
N     1.8339470   -0.4072740   -1.1776000  
C     3.2489700    0.6646870    0.6199580  
C     3.1233550    1.4386130    1.7865300  
O     4.2184570    1.8417030    2.4656190  
C     1.8468670    1.8754850    2.2426000  
O     1.9113870    2.6296540    3.3948700  
C     0.6794260    1.5649670    1.5771520  
H     2.5668960   -0.9157540   -1.6500800  
H     3.9115150    2.3844710    3.2145580  
H     1.0531240    3.0439420    3.5694210  
H    -0.2808180    1.9155160    1.9463190  
H     0.1196750   -1.0358760   -2.3093810  
C    -2.4961900   -0.6883560   -0.2972110  
C    -3.8009790   -0.2793100   -0.3037200  
C    -3.7633540    1.1798660   -0.4489920  
C    -2.3303890    1.5527980   -0.5259230  
N    -1.6027620    0.3682280   -0.4319750  
C    -1.8639280    2.8195660   -0.6684520  
C    -2.8300410    3.9120900   -0.7121660  
O    -2.5069600    5.0855680   -0.8223590  
C    -4.3528230    3.5478820   -0.5940390  
O    -5.1783170    4.4468100   -0.5928430  
C    -4.7287110    2.1324790   -0.4815560  
H    -0.8082530    3.0560180   -0.7426380  
H    -5.7861840    1.8996010   -0.4501130  
H    -2.1032680   -1.6933970   -0.2223840  
C    -4.6334000   -3.6930230    2.4122070  
C    -4.0888850   -2.6086950    1.8009270  
C    -5.0018410   -2.1919510    0.7557060  
C    -6.1436070   -3.1345770    0.8166010  
N    -5.8467740   -4.0305210    1.8251830  
C    -7.2491140   -3.0810710    0.0272150  
C    -7.3308270   -2.0159940   -0.9554070  
O    -8.2884730   -1.8480150   -1.6953940  
C    -6.1178880   -1.0182380   -1.0742370  
O    -6.1639370   -0.1632580   -1.9419470  
C    -4.9583740   -1.1628060   -0.1554330  
H    -3.1584950   -2.1315730    2.0677810  
H    -8.0734310   -3.7832170    0.1028290  
H    -4.2563020   -4.2741610    3.2432120  
H    -6.4620200   -4.7652330    2.1375420  
C     4.5287750    0.1890240    0.1174860  
C     4.9110820    0.0260990   -1.1919700  
C     6.2492300   -0.5139350   -1.1483830  
C     6.5373510   -0.6492580    0.3178470  
N     5.5442150   -0.2362380    1.0476770  
C     7.7882110   -1.1837640    0.7930200  
C     8.7103830   -1.5384010   -0.1319100  
O     9.9180530   -2.0411340    0.1582200  
C     8.4546480   -1.3958550   -1.6171260  
O     9.3581860   -1.7498190   -2.3755630  
C     7.1694630   -0.8640830   -2.0782220  
H     4.3811320    0.3448710   -2.0795130  
H     7.9687520   -1.2796450    1.8577760  
H    10.3486210   -2.1932800   -0.7136260  
H     7.0200230   -0.7837540   -3.1506200  
