60


C    -0.6318990    1.2044050   -0.0509020  
C    -1.7302100    0.3470750    0.0054070  
C    -2.9050780    1.1415260   -0.0424280  
C    -2.4773360    2.5009930   -0.1453140  
N    -1.1091220    2.5087450   -0.1340450  
C    -3.3664080    3.5712750   -0.2609190  
C    -4.7173350    3.2613710   -0.3092960  
O    -5.6370650    4.2489050   -0.4394370  
C    -5.1796560    1.9163900   -0.2312580  
O    -6.5522970    1.8096870   -0.2768010  
C    -4.3065280    0.8405300   -0.0574740  
H    -1.6501340   -0.7245300    0.0789250  
H    -0.5064410    3.3153400   -0.2103560  
H    -3.0425650    4.6037900   -0.3379950  
H    -6.5035540    3.7991600   -0.4828510  
H    -6.7619640    1.0784900   -0.8966810  
C     1.4879840   -2.6392450    0.2162680  
C     2.7794900   -2.2482670    0.1646720  
C     2.7378310   -0.7944910    0.0509110  
C     1.2786440   -0.4696110    0.0485500  
N     0.5627910   -1.5491470    0.1519720  
C     0.7826480    0.9097910   -0.0348570  
C     1.7637860    1.8676030   -0.1029830  
O     1.4990360    3.1984090   -0.2058160  
C     3.2099950    1.5761210   -0.1048740  
O     3.9839150    2.5312230   -0.2327190  
C     3.6907850    0.1661970    0.0178060  
H     3.6672620   -2.8619320    0.1795460  
H     2.3880570    3.6191040   -0.2629160  
H     1.0911550   -3.6436110    0.2976370  
C     6.3268870   -2.2113480   -2.5977040  
C     7.5472040   -1.9761290   -2.0655750  
C     7.3022150   -1.0978810   -0.9256910  
C     5.8141510   -0.9045840   -0.9285670  
N     5.2552060   -1.5547260   -1.9047720  
C     5.1473030   -0.0675460    0.0574510  
C     5.9465110    0.5129820    0.9968670  
O     5.4851680    1.2646210    2.0013400  
C     7.4432290    0.3277990    1.0199670  
O     8.0661110    0.8972830    1.9130150  
C     8.0887300   -0.5109460   -0.0035180  
H     8.5075270   -2.3453470   -2.3973370  
H     6.2811400    1.5551130    2.5011170  
H     9.1686570   -0.6123800    0.0433950  
H     6.0793700   -2.8182010   -3.4602760  
C    -3.3808760   -2.4495180    2.8301040  
C    -3.4356380   -1.2311570    2.2462560  
C    -4.3101070   -1.3974520    1.0854530  
C    -4.6981070   -2.8342950    1.1390090  
N    -4.1515740   -3.4491460    2.1485000  
C    -5.5793150   -3.4238460    0.1624860  
C    -6.0874000   -2.6110250   -0.7894830  
O    -6.9488540   -3.0163990   -1.7425870  
C    -5.7667250   -1.1479640   -0.8240330  
O    -6.3784320   -0.4794430   -1.6701540  
C    -4.7680120   -0.5526270    0.1164550  
H    -2.9520250   -0.3178390    2.5575540  
H    -5.8305350   -4.4770140    0.2191340  
H    -7.1755830   -2.2132680   -2.2566520  
H    -2.8426930   -2.7379750    3.7247340  
