64


C    -2.4221490   -0.8269470   -0.6084090  
C    -1.5143600    0.2063450   -0.6113510  
C    -2.2728240    1.4063910   -0.3339780  
C    -3.6279790    1.0255750   -0.1718970  
N    -3.7045980   -0.3518380   -0.3517170  
C    -4.6409490    1.9461660    0.1205240  
C    -4.2805080    3.2798080    0.2309730  
O    -5.2302990    4.2223960    0.5082110  
C    -2.9315890    3.6829940    0.0493430  
O    -2.7286150    5.0468260    0.1820480  
C    -1.9321100    2.7697980   -0.2303800  
H    -5.6779600    1.6549490    0.2364840  
H    -4.7849840    5.0870380    0.4933700  
H    -1.8390120    5.2682920   -0.1304610  
H    -0.9050980    3.0989350   -0.3714870  
H    -2.2652940   -1.8818770   -0.7859160  
C    -4.4016570   -3.5330140    2.5358700  
C    -5.6576830   -3.8840680    2.1133520  
C    -5.9905130   -3.0239830    1.0122410  
C    -4.8788180   -2.1659490    0.8158880  
N    -3.9257480   -2.4962530    1.7536540  
C    -4.8478290   -1.1754300   -0.1834730  
C    -5.9702870   -1.0554200   -1.0003510  
O    -5.9944660   -0.1257280   -1.9955270  
C    -7.0946960   -1.8993720   -0.7988470  
O    -8.1289900   -1.6494610   -1.6821750  
C    -7.1185330   -2.8741510    0.1804080  
H    -6.2756060   -4.6638040    2.5369240  
H    -3.0344990   -2.0348160    1.8533100  
H    -6.8608140   -0.1994370   -2.4326810  
H    -8.8534310   -2.2701220   -1.5154870  
H    -7.9954340   -3.5058920    0.3063650  
H    -3.7962220   -3.9371630    3.3348030  
C     0.5154940   -0.5887860   -1.9124280  
C    -0.0781810    0.0945640   -0.8749020  
C     1.0052200    0.6469260   -0.0917250  
C     2.2204010    0.2681560   -0.7145540  
N     1.8895550   -0.4772460   -1.8254970  
C     3.5005460    0.5927820   -0.2011490  
C     3.5003390    1.3250990    0.9927520  
O     4.6832460    1.7128540    1.5593020  
C     2.2925930    1.7034630    1.6296060  
O     2.4864030    2.4229950    2.7962270  
C     1.0540990    1.3797590    1.1094740  
H     2.5578320   -0.9456930   -2.4176930  
H     4.4600470    2.2312610    2.3526840  
H     1.6278000    2.6805760    3.1629410  
H     0.1405940    1.6764380    1.6191560  
H     0.0555790   -1.1222730   -2.7322090  
C     4.9399000    0.1873650   -2.2533270  
C     4.7232440    0.1979740   -0.9050640  
C     5.9756690   -0.3672480   -0.3464300  
C     6.8193160   -0.6457280   -1.5424150  
N     6.2096500   -0.3143040   -2.6472750  
C     8.1367680   -1.2156510   -1.4259860  
C     8.5884230   -1.5207340   -0.1862600  
O     9.7919980   -2.0630720    0.0709830  
C     7.7525890   -1.2730840    1.0354280  
O     8.2285140   -1.5792240    2.1286840  
C     6.4079170   -0.6744790    0.8904040  
H     8.7281800   -1.3959800   -2.3169310  
H     9.8248930   -2.1640260    1.0476540  
H     5.8479220   -0.4838680    1.7980140  
H     4.2700600    0.5495260   -3.0250420  
