58


C     3.8965520    1.7096550    0.8579560  
C     2.5842610    1.9299520    0.5785830  
C     2.0858020    0.7775600   -0.1248100  
C     3.2247750   -0.1607340   -0.2229990  
N     4.3250330    0.4805330    0.3620410  
C     3.1454270   -1.4200920   -0.7151340  
C     1.8554950   -1.8820930   -1.2167900  
O     1.6712400   -3.0214770   -1.6132590  
C     0.6622620   -0.8658190   -1.2611450  
O    -0.3382540   -1.1943080   -1.8704020  
C     0.8314200    0.4626820   -0.6111450  
H     2.0189970    2.8030680    0.8630960  
H     3.9827280   -2.1057230   -0.7483500  
H     4.5988780    2.3380200    1.3864800  
C    -0.2972160    1.3694460   -0.5339810  
C    -0.3143480    2.7392530   -0.5942760  
C    -1.6961350    3.1234850   -0.4558200  
C    -2.4339230    1.8262340   -0.3036370  
N    -1.6165790    0.8206600   -0.3461540  
C    -3.8861630    1.7613890   -0.1165240  
C    -4.5264090    2.9826030   -0.1000740  
O    -5.8391450    3.1628550    0.0151990  
C    -3.7899550    4.2959660   -0.2544410  
O    -4.4743640    5.3218540   -0.2234310  
C    -2.3405940    4.3112700   -0.4311030  
H     0.5144610    3.4061160   -0.7833700  
H    -5.9589950    4.1427040   -0.0144250  
H    -1.8557750    5.2778320   -0.5268110  
C    -4.5568610    0.4816630    0.0136000  
C    -4.0563890   -0.7677990   -0.2508580  
C    -5.1325410   -1.6872360    0.0350430  
C    -6.2592640   -0.8116780    0.4914940  
N    -5.9291480    0.4421520    0.4785390  
C    -7.5319630   -1.3652820    0.8865520  
C    -7.6776660   -2.7085700    0.8224820  
O    -8.8001250   -3.3670630    1.1530190  
C    -6.5598930   -3.6160010    0.3603260  
O    -6.7949550   -4.8256060    0.3402940  
C    -5.2727650   -3.0324250   -0.0312020  
H    -3.0663510   -1.0109320   -0.6032790  
H    -8.3314360   -0.7108480    1.2157400  
H    -8.5894970   -4.3160450    0.9993790  
H    -4.4912500   -3.7133910   -0.3539980  
C     7.1524350   -1.0797330   -2.5638400  
C     8.2046840   -1.3951640   -1.7765600  
C     7.7941140   -1.0353280   -0.4216620  
C     6.4016120   -0.5142440   -0.5975840  
N     6.0351910   -0.5360170   -1.8415510  
C     5.6222200   -0.0442820    0.5391810  
C     6.2313810   -0.0535320    1.7578600  
O     5.6487630    0.3882770    2.8833510  
C     7.6315220   -0.5602410    1.9461360  
O     8.0822360   -0.5459660    3.0898680  
C     8.3915490   -1.0598970    0.7846170  
H     9.1589230   -1.8113110   -2.0676090  
H     6.3138490    0.2405620    3.5937890  
H     9.4001880   -1.4169330    0.9678020  
H     7.0600640   -1.1889960   -3.6371710  
