58


C     3.8509000    1.4677900   -0.2584510  
C     4.1038510    2.8190810   -0.3393260  
C     2.8573260    3.5027400   -0.1535260  
C     1.8262130    2.4418390    0.0150030  
N     2.4879210    1.2442270   -0.0864820  
C     0.4813700    2.6844650    0.1813820  
C     0.1240360    4.1078980    0.4291700  
O    -0.9436590    4.4479180    0.9064360  
C     1.1760270    5.2314620    0.1268720  
O     0.8054730    6.3962730    0.1325760  
C     2.5510210    4.8321600   -0.1321830  
H     5.0662230    3.2842070   -0.4972750  
H     3.2892050    5.6091900   -0.3055900  
H     2.0889840    0.3870480    0.3098010  
C     0.1700600   -1.4339090    1.8700310  
C    -1.1571320   -1.6716280    1.7347000  
C    -1.6950170   -0.5019270    1.0568190  
C    -0.5168270    0.3849440    0.8644840  
N     0.5650320   -0.1769050    1.3418900  
C    -0.5999710    1.6877190    0.2140080  
C    -1.8056710    1.9424170   -0.3893950  
O    -2.0202600    3.0002400   -1.1818360  
C    -3.0049950    1.0649190   -0.2386210  
O    -4.0332300    1.4249220   -0.8143370  
C    -2.9400930   -0.1817100    0.5879790  
H    -1.7007750   -2.5605520    2.0188890  
H    -2.9732100    2.9720010   -1.4165340  
H     0.9278320   -2.0746980    2.3031610  
C    -4.3780840   -1.6037750    2.0635400  
C    -4.1379680   -0.9399180    0.8821230  
C    -5.3459320   -1.2227000    0.0722770  
C    -6.1738290   -2.0947950    0.9591840  
N    -5.5965380   -2.2936170    2.1193840  
C    -7.4404410   -2.6290430    0.5486710  
C    -7.8760740   -2.3313030   -0.7000550  
O    -9.0322880   -2.7597240   -1.2192770  
C    -7.0609150   -1.4698800   -1.6286550  
O    -7.5148310   -1.2533830   -2.7488920  
C    -5.7636440   -0.9240380   -1.1726610  
H    -8.0094810   -3.2526700    1.2288580  
H    -9.0685790   -2.3893370   -2.1292240  
H    -5.2261660   -0.2884970   -1.8645010  
H    -3.7420010   -1.5980410    2.9405890  
C     4.7607740    0.3531460   -0.3180650  
C     6.1142730    0.3529020   -0.5241250  
C     6.5104390   -1.0343460   -0.4772500  
C     5.2306670   -1.7773140   -0.2216600  
N     4.2183560   -0.9666510   -0.1295940  
C     5.2022490   -3.2120650   -0.1037600  
C     6.3753620   -3.8754320   -0.2327200  
O     6.5023300   -5.2049490   -0.1480200  
C     7.6816480   -3.1544650   -0.4911550  
O     8.6931210   -3.8470050   -0.5924690  
C     7.6873400   -1.6909700   -0.6069200  
H     6.7614650    1.2023040   -0.6915040  
H     4.2653210   -3.7257650    0.0796970  
H     7.4602390   -5.3854530   -0.2817090  
H     8.6425240   -1.2090330   -0.7907660  
