62


C     1.7208080   -0.3434960    0.1350280  
C     3.0025470    0.1774620   -0.0034920  
C     2.8479940    1.6230610   -0.0127000  
C     1.4692870    1.8973120    0.1131870  
N     0.7957490    0.6659300    0.2062410  
C     0.9550820    3.1944270    0.1794270  
C     1.8618460    4.2407830    0.0956410  
O     1.4183410    5.5284300    0.1487310  
C     3.2499840    3.9828490   -0.0427290  
O     4.0264060    5.1212750   -0.1126020  
C     3.7522430    2.6951670   -0.0957060  
H    -0.1027330    3.4081010    0.2673220  
H     2.1958790    6.1049290    0.0510220  
H     4.9521250    4.8689700   -0.2479340  
H     4.8146520    2.4959880   -0.1922060  
H     1.3955170   -1.3732300    0.1562210  
C    -1.4342690   -1.6609080    3.1748460  
C    -0.4535900   -1.0260640    2.4728640  
C    -1.0939740   -0.3090260    1.3975380  
C    -2.5392850   -0.5638760    1.5315390  
N    -2.6805040   -1.3715130    2.6520350  
C    -3.5345090   -0.0877740    0.7154990  
C    -3.0700410    0.7499810   -0.4099760  
O    -3.8247790    1.2790650   -1.2078480  
C    -1.5252600    1.0074700   -0.6121260  
O    -1.1751670    1.6166930   -1.6088570  
C    -0.5928280    0.4727620    0.3836240  
H     0.6034550   -1.0432780    2.6907840  
H    -1.3469850   -2.3009020    4.0430460  
H    -3.5416390   -1.8514700    2.8710920  
C    -5.5520890   -0.3541860    2.2100000  
C    -4.9560900   -0.3311570    0.9559780  
C    -6.0153420   -0.6131670    0.0040460  
C    -7.2045850   -0.8048770    0.7491340  
N    -6.8891530   -0.6375720    2.0858820  
C    -8.4355310   -1.1221260    0.1616340  
C    -8.4671840   -1.2458040   -1.2175280  
O    -9.6364490   -1.5418000   -1.8499400  
C    -7.2845020   -1.0605080   -1.9841230  
O    -7.4753410   -1.2133920   -3.3429250  
C    -6.0729530   -0.7549230   -1.3969480  
H    -7.5542780   -0.6391140    2.8437930  
H    -9.3443360   -1.2640410    0.7372860  
H    -9.4516910   -1.5487990   -2.8055500  
H    -6.6802560   -0.9245450   -3.8156920  
H    -5.1934230   -0.5892420   -2.0097650  
H    -5.1288150   -0.1113240    3.1747600  
C     4.2015460   -0.5927340   -0.1203980  
C     4.3671640   -1.9652010   -0.1199790  
C     5.7654170   -2.1981730   -0.2631610  
C     6.3637470   -0.8168240   -0.3418910  
N     5.4535630    0.1086340   -0.2588630  
C     7.7807890   -0.6173380   -0.4902080  
C     8.5592600   -1.7226820   -0.5574670  
O     9.8890810   -1.7059250   -0.6946250  
C     7.9865040   -3.1312240   -0.4813440  
O     8.8100490   -4.0513500   -0.5544010  
C     6.5572650   -3.3082260   -0.3319140  
H     3.5982380   -2.7206960   -0.0347470  
H     8.1910690    0.3849010   -0.5452220  
H    10.1433060   -2.6602640   -0.7100140  
H     6.1784930   -4.3241920   -0.2812900  
