64


C    -2.0995830   -0.4330730    0.3804960  
C    -1.4256460    0.7614660    0.2506430  
C    -2.4102250    1.7303330   -0.1880960  
C    -3.6516540    1.0516560   -0.2883390  
N    -3.4381540   -0.2785540    0.0573050  
C    -4.8351820    1.6946310   -0.6844790  
C    -4.7553620    3.0431230   -1.0032440  
O    -5.8756510    3.7150010   -1.3876900  
C    -3.5151120    3.7321770   -0.9312670  
O    -3.5967710    5.0614220   -1.2905340  
C    -2.3538880    3.0987030   -0.5277390  
H    -5.7954960    1.1908580   -0.7140020  
H    -5.6163620    4.6361860   -1.5636490  
H    -2.7227840    5.4736820   -1.2202680  
H    -1.4158110    3.6462180   -0.4792950  
H    -1.7326640   -1.4010840    0.6893950  
C    -4.8760150   -3.0039540    3.2595390  
C    -4.2266800   -2.0079640    2.5775150  
C    -4.6877570   -2.0634610    1.2191460  
C    -5.6291440   -3.1234450    1.1371070  
N    -5.7200770   -3.6786260    2.3970010  
C    -6.3058190   -3.4535660   -0.0433730  
C    -6.0211780   -2.7026740   -1.1728380  
O    -6.6488320   -2.9786550   -2.3510580  
C    -5.0677490   -1.6508970   -1.1322350  
O    -4.8548560   -1.0364510   -2.3465990  
C    -4.4047020   -1.3261000    0.0478780  
H    -3.5087370   -1.3157220    2.9931210  
H    -6.3191530   -4.4483670    2.6505720  
H    -7.0356530   -4.2543800   -0.1012570  
H    -6.3310400   -2.3276690   -3.0015650  
H    -4.4385730   -0.1677620   -2.2159840  
H    -4.8092120   -3.2927680    4.2988800  
C     2.2418370   -1.3358050   -1.2119490  
C     0.9680360   -0.9300940   -0.9793150  
C     1.0199700    0.1810960   -0.0602500  
C     2.3822540    0.4233400    0.2333360  
N     3.1412090   -0.5348830   -0.4870600  
C     2.7913890    1.4569350    1.0776930  
C     1.7944660    2.2507400    1.6336770  
O     2.1409720    3.2650490    2.4772550  
C     0.4297500    2.0191490    1.3532830  
O    -0.4324550    2.8785380    2.0002040  
C     0.0092920    0.9886430    0.5068750  
H     0.0782470   -1.3612970   -1.4156970  
H     3.8319400    1.6396100    1.3020250  
H     1.3143930    3.6679180    2.7952330  
H    -1.3464400    2.5840060    1.8473760  
H     2.6144600   -2.1308700   -1.8374700  
C     4.4979480   -0.7097510   -0.5246430  
C     5.2104130   -1.6572330   -1.2408800  
C     6.5744190   -1.4066820   -0.9312860  
C     6.5343760   -0.2344310    0.0197680  
N     5.3116530    0.1607630    0.2466300  
C     7.7278220    0.3334030    0.5743830  
C     8.9039290   -0.2310310    0.2061360  
O    10.1005800    0.1744000    0.6287920  
C     8.9832730   -1.4174020   -0.7532630  
O    10.1252530   -1.8255010   -0.9970320  
C     7.7653570   -1.9694090   -1.2968650  
H     4.8323010   -2.4270850   -1.8958540  
H     7.6731110    1.1751770    1.2554360  
H    10.7362670   -0.4369180    0.1805700  
H     7.8498500   -2.8116080   -1.9758720  
