62


C     1.9424060   -1.2805230   -0.3391650  
C     3.0928400   -0.5144280   -0.1575780  
C     2.6357380    0.8538700    0.0165570  
C     1.2240310    0.8351710   -0.0630440  
N     0.8450680   -0.4809710   -0.2904280  
C     0.4063480    1.9835780    0.0294260  
C     1.1092840    3.1774600    0.1916040  
O     0.4211360    4.3731340    0.2602080  
C     2.5204420    3.2211470    0.2784320  
O     3.0228250    4.4964290    0.4466110  
C     3.2958240    2.0804950    0.2003380  
H    -0.1152920   -0.7914750   -0.3399620  
H     1.0853200    5.0764940    0.3828680  
H     3.9899830    4.4594770    0.4931250  
H     4.3786360    2.1090330    0.2620170  
H     1.8444140   -2.3448040   -0.4990860  
C    -2.6342900   -0.5990810    2.1014380  
C    -1.4832680    0.0391560    1.7308860  
C    -1.8216160    0.9606270    0.6750990  
C    -3.2176730    0.8403390    0.4608600  
N    -3.7008080   -0.1296340    1.3377400  
C    -3.9245440    1.6336810   -0.4490490  
C    -3.1932450    2.5798870   -1.1482880  
O    -3.8116260    3.4041190   -2.0345560  
C    -1.7893450    2.7175930   -0.9641680  
O    -1.2177340    3.6833520   -1.7627840  
C    -1.0723790    1.9057060   -0.0831130  
H    -0.5105060   -0.1082810    2.1779310  
H    -4.9946390    1.5495250   -0.6003610  
H    -3.1108180    3.9874380   -2.3841050  
H    -0.5926340    4.2000480   -1.2096300  
H    -2.8073710   -1.3642460    2.8447050  
C    -5.8359880   -0.3829810    2.5520370  
C    -5.0375420   -0.5477390    1.4603370  
C    -5.8036360   -1.2887350    0.4671620  
C    -7.1269880   -1.5393160    1.0865640  
N    -7.0723330   -0.9785700    2.3512140  
C    -8.1435810   -2.1991190    0.4773500  
C    -7.9247370   -2.7149260   -0.8727970  
O    -8.7789900   -3.3223780   -1.4985610  
C    -6.5189260   -2.4766830   -1.5386330  
O    -6.3120300   -2.9172700   -2.6572660  
C    -5.5061130   -1.7321500   -0.7807200  
H    -9.1101790   -2.3687980    0.9417500  
H    -4.5443220   -1.5559380   -1.2512580  
H    -5.6095350    0.1197670    3.4827070  
H    -7.8350990   -0.9680590    3.0099880  
C     4.4363960   -1.0082040   -0.1555370  
C     4.9001000   -2.2958260   -0.3332950  
C     6.3213520   -2.2252430   -0.2323410  
C     6.6020590   -0.7656360    0.0200350  
N     5.5070530   -0.0655870    0.0632280  
C     7.9438170   -0.2730880    0.1841480  
C     8.9499980   -1.1747290    0.1024980  
O    10.2464520   -0.8770270    0.2324620  
C     8.7002140   -2.6552530   -0.1514880  
O     9.7071230   -3.3699400   -0.2024280  
C     7.3396440   -3.1287410   -0.3137280  
H     4.3158790   -3.1870680   -0.5163240  
H     8.1234940    0.7808620    0.3650570  
H    10.7086040   -1.7427080    0.1218740  
H     7.1942230   -4.1891260   -0.4940180  
