60


C    -1.3807970    2.3257820    0.4872920  
C    -2.0404240    2.4410540    1.7109910  
C    -2.6615760    1.1985050    1.9913070  
C    -2.3762550    0.3298020    0.8997600  
N    -1.5693740    1.0192640    0.0242860  
C    -2.8812530   -0.9822420    0.8020500  
C    -3.6783440   -1.4064570    1.8695350  
O    -4.1608180   -2.6694540    1.8811310  
C    -3.9629000   -0.5520250    2.9767370  
O    -4.7533030   -1.1514540    3.9334690  
C    -3.4682900    0.7300660    3.0530480  
H    -2.0498540    3.3273100    2.3242340  
H    -1.4139110    0.7445170   -0.9346720  
H    -4.7467420   -2.7562490    2.6542120  
H    -5.0030450   -0.5023620    4.6079490  
H    -3.6971650    1.3669380    3.9042300  
C     0.8782230   -2.5136600   -0.9258080  
C     0.3568460   -3.2470120   -1.9659000  
C    -1.0734220   -3.1104460   -1.9219310  
C    -1.3721370   -2.2279170   -0.7649640  
N    -0.1525620   -1.8938250   -0.2191830  
C    -2.6245680   -1.8615000   -0.3587410  
C    -3.7559850   -2.3611290   -1.1703950  
O    -4.9112370   -2.0319150   -0.9678770  
C    -3.4579190   -3.3317810   -2.3719140  
O    -4.3991210   -3.7942310   -2.9986280  
C    -2.0666350   -3.6389290   -2.6922600  
H     0.9195260   -3.8245360   -2.6850840  
H    -1.8713460   -4.2982060   -3.5323890  
H     0.0134800   -1.3529270    0.6184240  
C     2.2369750   -2.3081000   -0.4965820  
C     3.4061910   -2.7855990   -1.0220940  
C     4.4504940   -2.2471210   -0.1812490  
C     3.7199740   -1.4338530    0.8483870  
N     2.4332010   -1.4753570    0.6593120  
C     4.4188890   -0.7245580    1.8864800  
C     5.7701770   -0.8136890    1.9055800  
O     6.5503860   -0.2105070    2.8080840  
C     6.5362740   -1.6257270    0.8818060  
O     7.7609130   -1.6463340    0.9843130  
C     5.8003630   -2.3418360   -0.1693010  
H     3.5372800   -3.4268060   -1.8823350  
H     3.8682300   -0.1426840    2.6168400  
H     7.4722910   -0.4552970    2.5673580  
H     6.3829330   -2.9129690   -0.8853550  
C     1.5946510    2.1111420   -2.8774170  
C     0.7732480    1.7251130   -1.8636680  
C     0.2698310    2.9648500   -1.2819500  
C     0.9219110    4.0158900   -2.0901680  
N     1.6848640    3.5153990   -3.0311460  
C     0.7248990    5.4200070   -1.8319620  
C    -0.0630870    5.7659480   -0.7908780  
O    -0.3041990    7.0382420   -0.4164650  
C    -0.7493610    4.7392030    0.0587620  
O    -1.4308200    5.1645680    0.9903200  
C    -0.5960570    3.2729500   -0.2575270  
H     0.6105370    0.7168450   -1.5111830  
H     1.2212160    6.1591940   -2.4510940  
H    -0.9029560    6.9708970    0.3580130  
H     2.1725880    1.4762630   -3.5389550  
