58


C     0.2013770    2.0540010   -0.1007630  
C    -1.0969670    1.6238630   -0.2330780  
C    -1.0340810    0.1882790   -0.3004430  
C     0.4135530   -0.1236240   -0.1700960  
N     1.1216530    0.9635750   -0.0640980  
C     0.9399960   -1.4922180   -0.1410300  
C    -0.0192770   -2.4800900   -0.2030650  
O     0.2289320   -3.7896310   -0.1988670  
C    -1.4887840   -2.1844990   -0.3245480  
O    -2.2379750   -3.1638660   -0.3690470  
C    -1.9942950   -0.7878480   -0.4202270  
H    -1.9827240    2.2371930   -0.2917300  
H    -0.6561780   -4.2174690   -0.2635590  
C    -1.4093350    5.7970380    1.7235080  
C    -1.2824480    4.4969160    1.3467400  
C    -0.0206360    4.4281390    0.6320660  
C     0.4993360    5.8309450    0.6946990  
N    -0.3213540    6.6246220    1.3265560  
C     1.7654300    6.1979500    0.1248140  
C     2.4925780    5.2231180   -0.4681380  
O     3.6897400    5.4238620   -1.0380990  
C     2.0019220    3.7990690   -0.5714240  
O     2.7196530    3.0213770   -1.1910940  
C     0.6772490    3.4202840    0.0231140  
H    -1.9549050    3.6798090    1.5605030  
H     2.1115770    7.2239240    0.1821080  
H     3.9526910    4.5514790   -1.4071560  
H    -2.2205700    6.2459970    2.2848500  
C     2.3650400   -1.7401540   -0.0576300  
C     3.3898300   -0.8386180   -0.2101550  
C     4.6063580   -1.5997390   -0.0468410  
C     4.1387130   -2.9969300    0.2181020  
N     2.8443860   -3.0795590    0.2108760  
C     5.0712820   -4.0730510    0.4478580  
C     6.3915370   -3.7784870    0.4091800  
O     7.3726710   -4.6736010    0.6003370  
C     6.8927270   -2.3788260    0.1394650  
O     8.1127800   -2.2116840    0.1246690  
C     5.9251290   -1.2976320   -0.0867470  
H     3.3001090    0.2175500   -0.4089090  
H     4.7077590   -5.0764050    0.6397010  
H     8.2075530   -4.1610510    0.5114630  
H     6.3211710   -0.3040810   -0.2730300  
C    -3.8762710    0.5165400   -1.4417390  
C    -3.3922500   -0.5277490   -0.6837210  
C    -4.6187390   -1.2331630   -0.2425740  
C    -5.7273970   -0.4262210   -0.8350430  
N    -5.2698080    0.5800660   -1.5421990  
C    -7.1093120   -0.7469090   -0.6292800  
C    -7.3988310   -1.8195160    0.1486030  
O    -8.6379970   -2.2348240    0.4301430  
C    -6.3085050   -2.6475050    0.7772850  
O    -6.6472390   -3.5970460    1.4777750  
C    -4.8912060   -2.2969800    0.5368920  
H    -7.8797640   -0.1346280   -1.0840830  
H    -8.5314770   -3.0203030    1.0117820  
H    -4.1436680   -2.9366860    0.9880020  
H    -3.2825810    1.2387470   -1.9891370  
