60


C    -2.0687610    2.3824190    2.0005240  
C    -0.9607850    1.7827860    1.4597240  
C    -1.4275580    0.7602030    0.5662780  
C    -2.8469950    0.7920960    0.6240690  
N    -3.2095840    1.7606010    1.5375650  
C    -3.6792350   -0.0565880   -0.1403540  
C    -3.0047170   -0.8421820   -1.0901360  
O    -3.7008220   -1.5973480   -1.9750010  
C    -1.5901840   -0.8748280   -1.1845080  
O    -1.1317500   -1.7510310   -2.1395590  
C    -0.7658790   -0.1387860   -0.3253990  
H     0.0657070    2.0446380    1.6692270  
H    -4.1205530    2.2074430    1.4600190  
H    -3.0226550   -2.0281370   -2.5329840  
H    -0.3820390   -1.3063200   -2.6011760  
H    -2.1398490    3.2113060    2.6910680  
C     2.1515890   -0.6884480    2.9548800  
C     1.0289860   -0.6162910    2.1946250  
C     1.4436570   -0.3950300    0.8282690  
C     2.9222190   -0.3485260    0.8540980  
N     3.2869050   -0.5088770    2.1697100  
C     3.7325760   -0.1162980   -0.2323050  
C     3.0530170   -0.0472390   -1.5311080  
O     3.6399250    0.0374470   -2.5951150  
C     1.4856520   -0.1903840   -1.5789560  
O     0.9897820   -0.2648420   -2.7007490  
C     0.7049700   -0.2498390   -0.3308620  
H     0.0115400   -0.7074480    2.5393210  
H     2.2553880   -0.8583230    4.0180800  
H     4.2407110   -0.6136910    2.4837000  
C     7.1802550   -2.3783270    1.5709150  
C     5.9192490   -2.0510580    1.1837630  
C     6.0573170   -0.7833570    0.4746360  
C     7.5218090   -0.5030090    0.5310350  
N     8.1691950   -1.4352040    1.1789380  
C     8.1010140    0.6577340   -0.0920440  
C     7.2680430    1.5067140   -0.7359670  
O     7.6675490    2.6274280   -1.3568000  
C     5.7774720    1.2906000   -0.7653220  
O     5.0935060    2.1919680   -1.2354640  
C     5.1853090    0.0501380   -0.1593000  
H     5.0157630   -2.6307810    1.3117100  
H     9.1709550    0.8253470   -0.0391860  
H     6.8451710    3.0580610   -1.6781640  
H     7.4965540   -3.2620440    2.1132500  
C    -6.9293250    2.9824140    0.2011550  
C    -8.0341640    2.2113290    0.1029570  
C    -7.5388990    0.8416450    0.0427050  
C    -6.0422110    0.9806240    0.0794890  
N    -5.7079600    2.2368380    0.1978740  
C    -5.1478300   -0.1672450    0.0067920  
C    -5.7713840   -1.3870130    0.0775320  
O    -5.1198270   -2.5510070    0.1525980  
C    -7.2658890   -1.5528940    0.0774280  
O    -7.7123370   -2.6986870    0.1249340  
C    -8.1339490   -0.3645370    0.0369440  
H    -9.0698230    2.5205910    0.0886620  
H    -5.8199490   -3.2419290    0.1623620  
H    -9.2074920   -0.5258040    0.0370500  
H    -6.8697430    4.0612210    0.2803510  
