62


C     0.7984060    1.5469520   -0.1288130  
C     0.8707850    2.9370980   -0.0833710  
C     2.2425200    3.2818580    0.0189810  
C     2.9847220    2.0587460    0.0323250  
N     2.0859690    1.0423230   -0.0581020  
C     4.4085470    2.0121270    0.1265490  
C     5.0426780    3.2686610    0.2068590  
O     6.3943870    3.3501170    0.3005610  
C     4.3079550    4.4835740    0.1938160  
O     5.1102780    5.6053000    0.2810910  
C     2.9326510    4.5091440    0.1019040  
H     0.0304660    3.6164600   -0.1189170  
H     2.3465750    0.0603850   -0.0673520  
H     6.6223310    4.2967430    0.3463200  
H     4.5611430    6.4029620    0.2784360  
H     2.3956450    5.4552760    0.0943280  
C    -0.3133550    0.6502800   -0.2276830  
C    -1.6615870    0.9087640   -0.3015470  
C    -2.3061810   -0.3736520   -0.3696850  
C    -1.1795590   -1.3474710   -0.3156080  
N    -0.0213890   -0.7538160   -0.2417710  
C    -1.3957250   -2.7728560   -0.3301330  
C    -2.6750610   -3.1999250   -0.3724670  
O    -3.0428510   -4.4913140   -0.3666440  
C    -3.8466950   -2.2420490   -0.4279560  
O    -4.9616820   -2.7699830   -0.4635920  
C    -3.6211110   -0.7787200   -0.4561700  
H    -2.1447860    1.8740930   -0.2718580  
H    -0.5544630   -3.4556980   -0.2920800  
H    -4.0254780   -4.4708020   -0.4194750  
C    -4.6524580    1.2800520   -1.4319550  
C    -4.7400600    0.1367130   -0.6500610  
C    -6.0941370    0.1191710   -0.1197830  
C    -6.7463030    1.2777160   -0.6103630  
N    -5.8417840    1.9562820   -1.4102330  
C    -8.0635810    1.6174700   -0.2824850  
C    -8.7467010    0.7658280    0.5706120  
O   -10.0353830    1.0394410    0.9223240  
C    -8.1111830   -0.3955770    1.0824010  
O    -8.9151660   -1.1459960    1.9193640  
C    -6.8096410   -0.7232360    0.7540700  
H    -6.0467960    2.7873550   -1.9432340  
H    -8.5550030    2.5063010   -0.6647690  
H   -10.3305650    0.3211820    1.5085620  
H    -8.4471590   -1.9550700    2.1739330  
H    -6.3608510   -1.6319340    1.1404150  
H    -3.8270400    1.6250980   -2.0371270  
C     5.1431360    0.7660710    0.1391850  
C     6.4931470    0.5162690    0.2221220  
C     6.6387430   -0.9109590    0.1901840  
C     5.2341930   -1.4321590    0.0810240  
N     4.3737940   -0.4610210    0.0518240  
C     4.9478400   -2.8414130    0.0206720  
C     6.0014940   -3.6895780    0.0662650  
O     5.9026140   -5.0227670    0.0206340  
C     7.4345040   -3.1964000    0.1764970  
O     8.3106210   -4.0638320    0.2096030  
C     7.6959690   -1.7635620    0.2359220  
H     7.2863350    1.2407120    0.2963100  
H     3.9240450   -3.1899300   -0.0578840  
H     6.8325250   -5.3455550    0.0733950  
H     8.7307070   -1.4452920    0.3143890  
