58


C     0.8105760    1.5561760   -0.2634350  
C    -0.5243500    1.2151660   -0.2544780  
C    -0.5644800   -0.2161920   -0.1638780  
C     0.8771620   -0.6124370   -0.1007070  
N     1.6691820    0.4148030   -0.1681280  
C     1.3017040   -1.9960060   -0.0100450  
C     0.3199910   -2.9317050   -0.1073430  
O     0.5547920   -4.2509000   -0.0869320  
C    -1.1303160   -2.5741380   -0.2314830  
O    -1.9136650   -3.5213190   -0.3682900  
C    -1.5728140   -1.1540350   -0.1675130  
H    -1.3571400    1.8818360   -0.4145500  
H    -0.3207200   -4.6816960   -0.1937630  
C    -0.3586400    5.5838340    1.2599070  
C    -0.3646410    4.2452420    1.0102540  
C     0.8093200    4.0045030    0.1989630  
C     1.4379020    5.3636670    0.0697610  
N     0.7418020    6.2780730    0.6876470  
C     2.6655870    5.5660610   -0.6423080  
C     3.2567730    4.4802030   -1.1957150  
O     4.3986960    4.5256930   -1.8921430  
C     2.6505430    3.0977610   -1.1148550  
O     3.2271330    2.2138840   -1.7358410  
C     1.3767800    2.8872090   -0.3545200  
H    -1.0718480    3.5108540    1.3648900  
H     3.0911970    6.5600540   -0.7232780  
H     4.5564670    3.6041480   -2.1982610  
H    -1.0789750    6.1487540    1.8404470  
C     4.1429790   -1.1082420    3.2066930  
C     5.2963710   -1.6319560    2.7335310  
C     4.9456550   -2.2162030    1.4425130  
C     3.4847140   -1.9164870    1.2941330  
N     3.0203100   -1.2853500    2.3298120  
C     2.7301440   -2.3411480    0.1267640  
C     3.4061550   -3.0642160   -0.8064740  
O     2.8555310   -3.5271100   -1.9357900  
C     4.8728120   -3.3863790   -0.6720980  
O     5.3915930   -4.0337790   -1.5792430  
C     5.6164230   -2.9208500    0.5111740  
H     6.2718320   -1.6393720    3.1994060  
H     3.5830310   -3.9922370   -2.4071050  
H     6.6686820   -3.1815330    0.5713510  
H     3.9810490   -0.5910390    4.1448650  
C    -2.9893670   -0.8472610   -0.1083190  
C    -3.6026310    0.3193230    0.3071420  
C    -5.0222040    0.1297250    0.2258820  
C    -5.2257670   -1.2545000   -0.2676640  
N    -3.9676850   -1.7797440   -0.4617850  
C    -6.4424300   -1.8235280   -0.4641360  
C    -7.6355220   -1.0310750   -0.1807090  
O    -8.7707480   -1.4572660   -0.3273900  
C    -7.4428860    0.4414360    0.3376120  
O    -8.4283580    1.1215320    0.5790410  
C    -6.0778040    0.9435370    0.5141210  
H    -3.1064290    1.1978960    0.6873900  
H    -6.5743640   -2.8392240   -0.8234650  
H    -5.9558990    1.9603800    0.8750540  
H    -3.7383640   -2.7440920   -0.6597370  
