64


C    -1.2629220   -2.4997490    0.0319230  
C    -1.8560810   -3.7458130   -0.0540890  
C    -3.2731290   -3.5486230   -0.0316980  
C    -3.4967020   -2.1476070    0.0639290  
N    -2.2691060   -1.5477060    0.0975900  
C    -4.7924650   -1.5544750    0.1023460  
C    -5.8710360   -2.4692130    0.0426620  
O    -7.1552960   -2.0205860    0.0752710  
C    -5.6546270   -3.8603990   -0.0547200  
O    -6.8246710   -4.5990560   -0.1062440  
C    -4.3831610   -4.4089620   -0.0946860  
H    -1.3347300   -4.6867340   -0.1635750  
H    -2.1835260   -0.5482590    0.2463540  
H    -7.7304750   -2.8054860    0.0228810  
H    -6.6124450   -5.5418360   -0.1654710  
H    -4.2538660   -5.4869880   -0.1707830  
C     1.1848780   -2.8550050    0.5397520  
C     0.1340400   -2.1026380    0.0606340  
C     0.7049990   -0.8488420   -0.3886540  
C     2.1006760   -0.9206280   -0.1616580  
N     2.3646050   -2.1630830    0.3814320  
C     3.0014970    0.1327660   -0.4495360  
C     2.4081040    1.3020580   -0.9418730  
O     3.1791710    2.4063740   -1.2123690  
C     1.0180520    1.3825410   -1.1931370  
O     0.6198190    2.6038360   -1.7058710  
C     0.1625420    0.3261130   -0.9458090  
H     3.2465920   -2.4070380    0.8068630  
H     2.5841800    3.0853480   -1.5771410  
H    -0.3220170    2.5719270   -1.9304620  
H    -0.8952920    0.4160010   -1.1773150  
H     1.1746430   -3.8342830    0.9965320  
C     4.4412750   -0.0048790   -0.2375750  
C     5.2368960   -1.1426370   -0.2130480  
C     6.5826640   -0.7278790    0.0330970  
C     6.5605290    0.6880450    0.1551950  
N     5.2554570    1.0935490   -0.0008250  
C     7.7162380    1.4433520    0.3924130  
C     8.9158080    0.7590920    0.5077670  
O    10.0737400    1.4463260    0.7380820  
C     8.9570100   -0.6565870    0.3892590  
O    10.2258810   -1.1909620    0.5302210  
C     7.8161600   -1.4006720    0.1566940  
H     4.9124950   -2.1485530   -0.4406430  
H     4.9279680    2.0437400   -0.0937760  
H     7.7037490    2.5244140    0.4855050  
H    10.7915770    0.7913640    0.7788830  
H    10.1847970   -2.1509280    0.4095360  
H     7.8748190   -2.4841760    0.0694330  
C    -4.9852990   -0.1272000    0.1847090  
C    -6.1366150    0.6302130    0.2224320  
C    -5.7209410    1.9960960    0.2944120  
C    -4.2191970    1.9354930    0.2975530  
N    -3.7969340    0.7094530    0.2329310  
C    -3.4097400    3.1236490    0.3617090  
C    -4.0588870    4.3105750    0.4140530  
O    -3.4561050    5.5010070    0.4730590  
C    -5.5787230    4.4085930    0.4107540  
O    -6.0442080    5.5514130    0.4615780  
C    -6.3698390    3.1933090    0.3497490  
H    -7.1499630    0.2665640    0.2002080  
H    -2.3269330    3.0548480    0.3756140  
H    -4.1980630    6.1520000    0.5027870  
H    -7.4503340    3.2952440    0.3495060  
