60


C     0.1152660    2.0046940   -0.5394800  
C    -1.2216390    1.7360440   -0.6326590  
C    -1.3780830    0.3109880   -0.4866350  
C    -0.0325980   -0.2394890   -0.2819530  
N     0.8357270    0.8374100   -0.2910640  
C     0.2992230   -1.5686560   -0.1456230  
C    -0.8432530   -2.5051410   -0.0965010  
O    -0.7518120   -3.6707950    0.2335120  
C    -2.2858170   -1.9621340   -0.4096720  
O    -3.1803740   -2.7697290   -0.5742440  
C    -2.4918710   -0.4983170   -0.5205240  
H    -2.0164510    2.4597630   -0.7255710  
H     1.8279530    0.7213310   -0.4606730  
C     0.3097080    4.2627360   -1.5003090  
C     1.1384880    5.3280840   -1.4570430  
C     2.2207870    5.0094510   -0.5471150  
C     1.9489080    3.6432730   -0.0384430  
N     0.7719770    3.2177340   -0.6736420  
C     2.7100940    3.0170990    0.8924020  
C     3.9094590    3.6996670    1.3882670  
O     4.6530790    3.1965870    2.2136550  
C     4.2364830    5.1277720    0.8290280  
O     5.2377050    5.7047660    1.2172940  
C     3.3047350    5.7167040   -0.1403730  
H     1.0240170    6.2476790   -2.0125780  
H     2.4746120    2.0486680    1.3170500  
H     3.5155720    6.7205200   -0.4961390  
H    -0.5908500    4.1061390   -2.0769890  
C     1.6646630   -2.0365710   -0.0298890  
C     2.7483270   -1.4090830    0.5435360  
C     3.8676590   -2.2987230    0.3431380  
C     3.2852580   -3.4485700   -0.4213830  
N     2.0105740   -3.2976530   -0.6303070  
C     4.0990510   -4.5580670   -0.8477270  
C     5.4094810   -4.5404820   -0.5089420  
O     6.2850110   -5.5037970   -0.8263280  
C     6.0207530   -3.4026140    0.2793070  
O     7.2230030   -3.4815890    0.5343450  
C     5.1773840   -2.2749910    0.6877200  
H     2.7556090   -0.5144780    1.1515510  
H     3.6550950   -5.3743690   -1.4062500  
H     7.1418890   -5.2083820   -0.4429070  
H     5.6521150   -1.4717030    1.2429300  
C    -4.0386400    0.9020130   -1.8562510  
C    -5.3683680    1.1993640   -1.8731840  
C    -5.9853300    0.4741870   -0.7944000  
C    -4.9689840   -0.2760130   -0.1557340  
N    -3.7634270   -0.0019620   -0.8200340  
C    -5.2170750   -1.0581830    0.9765500  
C    -6.5199120   -1.1063370    1.4502590  
O    -6.8115740   -1.8635930    2.5453390  
C    -7.5532730   -0.3744450    0.8100590  
O    -8.7925000   -0.5227690    1.3984810  
C    -7.2998160    0.4131950   -0.2987300  
H    -5.8634210    1.8439230   -2.5870850  
H    -4.4529950   -1.6420020    1.4734950  
H    -7.7685940   -1.7912930    2.7029450  
H    -9.4583030   -0.0478910    0.8794280  
H    -8.1006560    0.9810640   -0.7679460  
H    -3.2462390    1.1949410   -2.5285390  
