60


C     2.1994710   -1.5813990   -0.5751290  
C     0.9756910   -1.0255440   -0.3812930  
C     1.1751750    0.3017110    0.1462820  
C     2.5706250    0.5103110    0.2449600  
N     3.2031790   -0.6757590   -0.2013930  
C     3.1137890    1.7159840    0.6927280  
C     2.2236660    2.7219060    1.0478290  
O     2.7101030    3.9108080    1.4976910  
C     0.8244610    2.5297400    0.9657340  
O     0.0943940    3.6152910    1.3934590  
C     0.2724770    1.3259190    0.5173310  
H     0.0299180   -1.4998440   -0.6023560  
H     4.1798140    1.8743330    0.7640610  
H     1.9488000    4.4846840    1.6921110  
H    -0.8548890    3.4528240    1.2786600  
H     2.4663900   -2.5546560   -0.9545550  
C    -1.8816580    0.0837930    1.0099970  
C    -1.1876890    1.1240460    0.4649290  
C    -2.1797920    1.9645990   -0.2025730  
C    -3.4983620    1.3263420    0.0252290  
N    -3.2533190    0.1582860    0.7502540  
C    -4.6794490    1.8451780   -0.3919150  
C    -4.6625680    3.0916510   -1.1601290  
O    -5.6789910    3.6291050   -1.5682810  
C    -3.2720180    3.7516160   -1.4675390  
O    -3.2322350    4.7703910   -2.1366540  
C    -2.0667840    3.1137830   -0.9229260  
H    -5.6403750    1.3876830   -0.1847160  
H    -1.1112530    3.5858100   -1.1296900  
H    -1.5048480   -0.7539440    1.5814280  
C    -4.3197970   -1.2130680    2.5211710  
C    -4.2086460   -0.7397400    1.2512920  
C    -5.2078070   -1.4879510    0.4682590  
C    -5.8532800   -2.3670860    1.4888630  
N    -5.3259460   -2.2020210    2.6719590  
C    -6.9182740   -3.2667080    1.1371960  
C    -7.2920760   -3.3312130   -0.1641920  
O    -8.2590920   -4.1346980   -0.6289930  
C    -6.6292200   -2.4885080   -1.2200030  
O    -7.0147510   -2.6068670   -2.3793920  
C    -5.5538600   -1.5465050   -0.8304780  
H    -7.3830150   -3.8790770    1.9018160  
H    -8.3067450   -3.9676110   -1.5955970  
H    -5.1165160   -0.9415020   -1.6184140  
H    -3.7342510   -0.9213100    3.3851440  
C     4.5431860   -0.9609280   -0.2855750  
C     5.1324860   -2.1272870   -0.7339250  
C     6.5340750   -1.9023380   -0.6135220  
C     6.6436110   -0.5035630   -0.0571360  
N     5.4687020    0.0324830    0.1287250  
C     7.9107340    0.1090480    0.2142950  
C     9.0179410   -0.6260980   -0.0521310  
O    10.2667340   -0.2053350    0.1426770  
C     8.9456970   -2.0436560   -0.6152230  
O    10.0328950   -2.5963280   -0.8093500  
C     7.6521800   -2.6373270   -0.8794480  
H     4.6568900   -3.0238580   -1.1008870  
H     7.9622220    1.1155290    0.6138770  
H    10.8317670   -0.9633520   -0.1452750  
H     7.6314410   -3.6458290   -1.2794200  
