60


C    -2.0970720    3.2364890   -1.4942950  
C    -3.2690940    2.5801020   -1.2039470  
C    -2.9244840    1.3018550   -0.6536470  
C    -1.5122630    1.2429440   -0.6382820  
N    -1.0342790    2.4400680   -1.1332450  
C    -0.7659800    0.1097380   -0.2335280  
C    -1.5094970   -1.0010920    0.1581000  
O    -0.8797170   -2.1119310    0.6087600  
C    -2.9324220   -0.9870810    0.1639270  
O    -3.4642000   -2.1497200    0.5946680  
C    -3.6799450    0.1627100   -0.2096220  
H    -4.2534140    2.9703150   -1.4061340  
H    -0.0662930    2.6218280   -1.3508140  
H    -1.5734360   -2.7760440    0.7807420  
H    -4.4677040   -2.0674980    0.5246870  
H    -1.9350010    4.2130020   -1.9276090  
C     2.0783950    2.5550300    1.9937500  
C     3.2530810    2.0153600    1.5651710  
C     2.9349010    0.9941390    0.5957640  
C     1.4614590    0.9734210    0.5009370  
N     1.0038230    1.9717740    1.3435740  
C     0.7082460    0.0943350   -0.2295840  
C     1.4580400   -0.8912150   -1.0347610  
O     0.9164700   -1.7081050   -1.7552010  
C     3.0306440   -0.8371420   -1.0261200  
O     3.6181160   -1.5327040   -1.8309730  
C     3.7243020    0.1111380   -0.1138970  
H     4.2389080    2.2841440    1.9097790  
H     1.9088040    3.3321860    2.7272330  
H     0.0315640    2.0984450    1.5831330  
C     5.1717810    0.0946850   -0.0300130  
C     6.0305420    1.1550900    0.1170260  
C     7.3574520    0.5863310    0.1522310  
C     7.1240230   -0.8894240    0.0323880  
N     5.8617430   -1.1730630   -0.0794080  
C     8.2190160   -1.8273160    0.0520730  
C     9.4724480   -1.3284130    0.1585680  
O    10.5853660   -2.0771660    0.1808200  
C     9.7384500    0.1551200    0.2646160  
O    10.9138600    0.5109840    0.3611390  
C     8.6089690    1.0918060    0.2579780  
H     5.7850170    2.2075680    0.1234740  
H     8.0236740   -2.8906280   -0.0298120  
H    11.3253030   -1.4345000    0.2638750  
H     8.8393900    2.1490680    0.3475850  
C    -5.1152550    0.1589320   -0.1182520  
C    -6.0479640    1.1674370   -0.2668440  
C    -7.3290290    0.5775790   -0.0553740  
C    -7.0419420   -0.8684030    0.2326560  
N    -5.7601070   -1.0947110    0.1997560  
C    -8.0820320   -1.8163130    0.5034080  
C    -9.3542940   -1.3471930    0.4943500  
O   -10.4324240   -2.0935510    0.7267190  
C    -9.6871840    0.1140810    0.2119720  
O   -10.8876170    0.4043620    0.2373680  
C    -8.6116740    1.0448860   -0.0602770  
H    -5.8675560    2.2115410   -0.4607100  
H    -7.8487410   -2.8559020    0.7041830  
H   -11.1915560   -1.4656500    0.6485660  
H    -8.8757620    2.0786100   -0.2581260  
