60


C     1.9647060   -0.7260320    0.3148060  
C     1.1712910    0.3863180    0.4315500  
C     2.0608380    1.5298060    0.4515420  
C     3.3826430    1.0349970    0.3518140  
N     3.3062870   -0.3631130    0.2798570  
C     4.4953780    1.8796380    0.2928180  
C     4.2706020    3.2467270    0.3696700  
O     5.3267340    4.1079550    0.3169250  
C     2.9556150    3.7576660    0.5039120  
O     2.8933960    5.1337320    0.5839770  
C     1.8558080    2.9182000    0.5479420  
H     5.5095100    1.5144090    0.2038240  
H     4.9670440    5.0102730    0.3696900  
H     1.9678550    5.4197590    0.5825730  
H     0.8547230    3.3305470    0.6468060  
H     1.6844880   -1.7622650    0.2141390  
C    -1.0325510   -0.4121980    1.3694100  
C    -0.2873860    0.3682610    0.5379570  
C    -1.2411080    1.1462060   -0.2525090  
C    -2.5924680    0.7362340    0.2005300  
N    -2.4018800   -0.1891620    1.1950540  
C    -3.7592710    1.2255950   -0.3267360  
C    -3.6631190    2.2655740   -1.3595020  
O    -4.6430360    2.8122870   -1.8415520  
C    -2.2313050    2.7039070   -1.8424810  
O    -2.1546980    3.5705660   -2.6976490  
C    -1.0638820    2.0706060   -1.2329750  
H    -0.0815230    2.3663900   -1.5844850  
H    -0.6950440   -1.1159680    2.1180470  
H    -3.1347980   -0.7612630    1.5885020  
C    -6.0995180    1.6596130    0.4156670  
C    -7.2033510    0.9704480    0.7875920  
C    -6.8939320   -0.4383710    0.6837900  
C    -5.4902890   -0.5171210    0.2032630  
N    -5.0387400    0.7939500    0.0852420  
C    -4.8486340   -1.6848920   -0.0760210  
C    -5.5600360   -2.9434490    0.1434100  
O    -5.0572920   -4.0341390   -0.0796680  
C    -7.0288850   -2.8792630    0.6952610  
O    -7.6253170   -3.9211960    0.9159150  
C    -7.6250560   -1.5591560    0.9166410  
H    -8.1475110    1.3950220    1.0964670  
H    -3.8527060   -1.7358600   -0.5014820  
H    -8.6553050   -1.5234860    1.2577890  
H    -5.9419570    2.7248260    0.3436730  
C     3.7307600   -3.6993110   -2.4562540  
C     4.9680800   -4.1478470   -2.1494930  
C     5.4362580   -3.2772110   -1.0742470  
C     4.3017650   -2.3257370   -0.8610400  
N     3.3129260   -2.5772470   -1.6645560  
C     4.3721320   -1.2692320    0.1426270  
C     5.5002050   -1.2208060    0.9104670  
O     5.6892380   -0.3420590    1.9098890  
C     6.6449090   -2.1586380    0.7003850  
O     7.6206460   -2.0388270    1.4420750  
C     6.5625580   -3.2013400   -0.3426110  
H     5.5138870   -4.9683120   -2.5939970  
H     6.5840600   -0.5466830    2.2636370  
H     7.4176490   -3.8611380   -0.4526380  
H     3.0455680   -4.0789600   -3.2041250  
