60


C     1.5668450   -0.3512350   -1.5585570  
C     0.4746110    0.4457320   -1.3829590  
C     0.7666470    1.3756640   -0.3177530  
C     2.0791760    1.0887200    0.1216400  
N     2.5622140    0.0026340   -0.6380830  
C     2.7523760    1.8848560    1.0523780  
C     2.0662800    2.9831660    1.5490760  
O     2.6660880    3.8057780    2.4456220  
C     0.7350710    3.2788650    1.1501220  
O     0.2125060    4.3770070    1.7726770  
C     0.0391520    2.4685470    0.2417330  
H    -0.4239580    0.4101020   -1.9810450  
H     3.7697710    1.6998060    1.3727920  
H     2.0236470    4.5215190    2.6190690  
H    -0.3350480    4.8609200    1.1024720  
H     1.7493110   -1.1353920   -2.2745880  
C    -3.3677740   -0.3544360   -0.0523350  
C    -2.1702190    0.2847850    0.2209660  
C    -2.2934980    1.6530760   -0.1569690  
C    -3.6857000    1.8123960   -0.6452870  
N    -4.2686350    0.5654760   -0.5769550  
C    -4.2141830    2.9811530   -1.0856820  
C    -3.3590630    4.1575820   -1.0532200  
O    -3.7085040    5.2558990   -1.4539000  
C    -1.9112990    4.0186450   -0.4502430  
O    -1.2960850    5.0731760   -0.2686130  
C    -1.3799690    2.6953250   -0.1228260  
H    -1.3133500   -0.1409820    0.7148620  
H    -5.2211000    3.0795080   -1.4772000  
H    -5.2464140    0.3325280   -0.7029380  
C    -0.8604610   -3.9599910    0.2365400  
C    -1.8228880   -4.8792150    0.4878080  
C    -3.0918220   -4.1805290    0.4819210  
C    -2.7792120   -2.7545320    0.2265140  
N    -1.4181470   -2.6834830    0.1034190  
C    -3.7213090   -1.7446670    0.1258750  
C    -5.1311300   -2.1704220    0.1526470  
O    -6.0666430   -1.4219270   -0.1031210  
C    -5.4713100   -3.6583420    0.5189530  
O    -6.6410740   -3.9663580    0.6673490  
C    -4.3703610   -4.6121340    0.6476080  
H    -1.6800520   -5.9372730    0.6507770  
H    -4.6200520   -5.6468770    0.8602060  
H     0.2100640   -4.0835390    0.1448160  
H    -0.9143560   -1.8737960   -0.2405010  
C     5.0505710   -1.4506410    2.7609080  
C     4.0125930   -0.8954400    2.0878690  
C     4.3903720   -0.9671430    0.6790250  
C     5.7283500   -1.6119030    0.7005040  
N     6.1086510   -1.8962230    1.9163830  
C     6.4626030   -1.9153050   -0.5030770  
C     5.8835750   -1.6228990   -1.6881760  
O     6.4433580   -1.8780570   -2.8860220  
C     4.5279190   -0.9920950   -1.7680710  
O     4.0713720   -0.7660300   -2.8855260  
C     3.7887830   -0.6472610   -0.5007640  
H     3.0990940   -0.4876710    2.4939250  
H     7.4399660   -2.3799410   -0.4364020  
H     5.8082630   -1.5458570   -3.5550750  
H     5.1491320   -1.5897240    3.8307340  
