62


C     0.2592030    0.8889550   -1.3420190  
C     0.0521950    2.0142860   -0.5692760  
C     1.1991930    2.1157390    0.3027710  
C     2.0482870    1.0231700    0.0172970  
N     1.4463210    0.2873940   -0.9803840  
C     3.3006520    0.8107270    0.6525540  
C     3.6583560    1.7651110    1.6231130  
O     4.7988830    1.6328940    2.3353180  
C     2.7973580    2.8555630    1.9260440  
O     3.2934170    3.6816900    2.9157840  
C     1.5863890    3.0397720    1.2928820  
H     1.9051040   -0.4592490   -1.4816410  
H     4.8568880    2.4012350    2.9316010  
H     2.7026950    4.4399530    3.0342880  
H     0.9566190    3.8907710    1.5353720  
H    -0.3317610    0.4931750   -2.1567480  
C    -4.2170470    0.9643650   -0.3947600  
C    -4.7275550    2.2427740   -0.5594380  
C    -3.6245040    3.1372180   -0.6561500  
C    -2.4415590    2.3543140   -0.5568500  
N    -2.8273670    1.0468910   -0.3676670  
C    -1.1357030    2.8856490   -0.6279790  
C    -1.0644070    4.2719580   -0.7684070  
O     0.1494210    4.8866620   -0.8465420  
C    -2.2386140    5.0770780   -0.8437310  
O    -1.9649510    6.4236810   -0.9784890  
C    -3.5055900    4.5376110   -0.7962650  
H    -5.7779250    2.4996670   -0.5606610  
H    -2.1937140    0.2629690   -0.4200620  
H    -0.0181470    5.8332130   -1.0022500  
H    -2.7877410    6.9110950   -1.1332260  
H    -4.3852250    5.1735900   -0.8625150  
C    -4.8974890   -0.2889190   -0.2253620  
C    -6.1675910   -0.6602370   -0.5869240  
C    -6.3712500   -2.0238220   -0.1839260  
C    -5.1079120   -2.4518200    0.4636890  
N    -4.2195960   -1.3844080    0.3518820  
C    -4.9151890   -3.6617380    1.0394490  
C    -6.0065110   -4.6362260    0.9914340  
O    -5.9163600   -5.7518490    1.4799340  
C    -7.3380530   -4.2227070    0.2651790  
O    -8.2519320   -5.0339930    0.2078270  
C    -7.4274200   -2.8795610   -0.2982480  
H    -6.8681750   -0.0473490   -1.1358890  
H    -3.9869680   -3.9559670    1.5203020  
H    -8.3585410   -2.5966220   -0.7798020  
H    -3.5013790   -1.2385360    1.0498150  
C     4.1452510   -0.3181060    0.3015260  
C     3.7532990   -1.5728130   -0.1039140  
C     4.9680180   -2.3000340   -0.3751190  
C     6.0554050   -1.3031060   -0.0997320  
N     5.5786860   -0.1617340    0.2987100  
C     7.4457210   -1.6375120   -0.2779700  
C     7.7410020   -2.8957730   -0.6790030  
O     8.9842220   -3.3548400   -0.8786950  
C     6.6659820   -3.9283050   -0.9458690  
O     7.0441220   -5.0438250   -1.3087380  
C     5.2597940   -3.5622460   -0.7740070  
H     2.7524920   -1.9826760   -0.1087320  
H     8.2123880   -0.8963800   -0.0818310  
H     8.8669310   -4.2910800   -1.1598380  
H     4.5173100   -4.3263430   -0.9830820  
