62


C    -1.5839520   -0.5962250    0.2651630  
C    -0.7665850    0.4779990    0.0371920  
C    -1.6254840    1.5611090   -0.4062270  
C    -2.9493270    1.0667810   -0.4482800  
N    -2.9102050   -0.2795500   -0.0387210  
C    -4.0366050    1.8794840   -0.7824160  
C    -3.7761530    3.1991120   -1.1213470  
O    -4.8068710    4.0240210   -1.4570900  
C    -2.4491740    3.6985100   -1.1219450  
O    -2.3478570    5.0215190   -1.4938670  
C    -1.3773240    2.8957860   -0.7736970  
H    -5.0581990    1.5245070   -0.8062120  
H    -4.4293550    4.9024330   -1.6372270  
H    -1.4415330    5.3340070   -1.3528520  
H    -0.3677310    3.2975290   -0.7688130  
H    -1.3362100   -1.5923760    0.5995870  
C     1.5349690   -0.4908140   -0.3097050  
C     0.6906840    0.4732380    0.1604670  
C     1.5346490    1.4553540    0.8350110  
C     2.9308890    0.9748580    0.6987010  
N     2.8717920   -0.2181630   -0.0142050  
C     4.0167150    1.6198280    1.1925890  
C     3.8116920    2.8708250    1.9164800  
O     4.7279290    3.5284600    2.3868050  
C     2.3378980    3.3890350    2.0939800  
O     2.1445050    4.4350750    2.6945770  
C     1.2485650    2.5958210    1.5176070  
H     5.0273090    1.2415910    1.0854030  
H     0.2344030    2.9551930    1.6574740  
H     1.2933800   -1.3886330   -0.8638390  
C     4.7061360   -0.9824350   -3.9079280  
C     5.6538440   -1.8726920   -3.4771590  
C     5.4904660   -2.0123810   -2.0570200  
C     4.4110020   -1.1698720   -1.6866280  
N     3.9457230   -0.5603960   -2.8297900  
C     3.9703130   -1.0540570   -0.3561220  
C     4.6356000   -1.7991080    0.6160160  
O     4.2382250   -1.7242370    1.9139250  
C     5.7253630   -2.6338160    0.2536900  
O     6.2797390   -3.3009550    1.3275370  
C     6.1511990   -2.7523170   -1.0560900  
H     6.3842420   -2.3728390   -4.0978220  
H     3.2197280    0.1383240   -2.8613420  
H     4.8390620   -2.2884270    2.4321210  
H     7.0333170   -3.8320040    1.0303770  
H     6.9864010   -3.4037960   -1.3042830  
H     4.4995280   -0.6087740   -4.9006760  
C    -3.9972720   -3.0731880    3.2110190  
C    -3.3390610   -2.1082250    2.5214320  
C    -4.0819800   -1.9622650    1.2734580  
C    -5.1823520   -2.9520690    1.3908330  
N    -5.1308480   -3.5978730    2.5244610  
C    -6.1797180   -3.1206380    0.3628980  
C    -6.0920060   -2.3405630   -0.7369510  
O    -6.9574670   -2.3854720   -1.7671570  
C    -4.9854420   -1.3433010   -0.9148720  
O    -4.9296170   -0.7401480   -1.9819090  
C    -3.9751270   -1.1567670    0.1808860  
H    -2.4740320   -1.5402980    2.8316360  
H    -6.9698350   -3.8520160    0.4908100  
H    -6.6144420   -1.7497510   -2.4308560  
H    -3.7644900   -3.4609250    4.1955070  
