58


C    -1.3752970    2.3961080    0.4113060  
C    -2.2732100    2.6983010    1.4056530  
C    -3.0193800    1.5099950    1.7094620  
C    -2.5315200    0.4643210    0.7772500  
N    -1.5360410    1.0519360    0.0295220  
C    -3.0837960   -0.7841090    0.6644950  
C    -4.0978200   -1.1461330    1.6851270  
O    -4.5386070   -2.2758650    1.8062080  
C    -4.6153370   -0.0456550    2.6779270  
O    -5.5045530   -0.3361840    3.4630790  
C    -4.0154450    1.2813780    2.6093320  
H    -2.4043820    3.6647730    1.8628620  
H    -4.3945420    2.0517680    3.2736410  
H    -0.8518290    0.5001290   -0.4723190  
C     0.7438400   -2.6355270   -0.6654180  
C     0.2664280   -3.6383260   -1.4686560  
C    -1.1617840   -3.4596720   -1.5181810  
C    -1.4186700   -2.2678880   -0.6407790  
N    -0.3042280   -1.7695870   -0.1858310  
C    -2.7627680   -1.7934570   -0.3622340  
C    -3.7616530   -2.4151550   -1.0632470  
O    -5.0421550   -2.0477870   -0.9964210  
C    -3.5246550   -3.5793550   -1.9890010  
O    -4.5032120   -4.0592860   -2.5594780  
C    -2.1610440   -4.0916850   -2.1713640  
H     0.8330000   -4.4071020   -1.9753090  
H    -5.5336510   -2.6846440   -1.5625370  
H    -2.0257810   -4.9443970   -2.8291830  
C     2.1107950   -2.4216950   -0.2613820  
C     3.1709860   -3.2813160   -0.4112590  
C     4.3070270   -2.6073150    0.1683830  
C     3.7540470   -1.2955540    0.6410480  
N     2.4814100   -1.1958540    0.3926160  
C     4.5886390   -0.3108040    1.2792320  
C     5.8967880   -0.6146270    1.4534280  
O     6.7872730    0.1987460    2.0331620  
C     6.4822280   -1.9325130    0.9952670  
O     7.6812180   -2.1166760    1.1958240  
C     5.6133160   -2.9190210    0.3372130  
H     3.1643390   -4.2730660   -0.8413880  
H     4.1662110    0.6331040    1.6045450  
H     7.6413190   -0.2885400    2.0152810  
H     6.0704120   -3.8499760    0.0163040  
C     2.5290520    1.8788350   -1.7329640  
C     1.4404790    1.6075990   -0.9680610  
C     0.7279620    2.8721020   -0.8672200  
C     1.5751940    3.8257080   -1.6545720  
N     2.6113280    3.2327150   -2.1760180  
C     1.2406670    5.2171730   -1.7820010  
C     0.1460110    5.6608130   -1.1244420  
O    -0.2626890    6.9393110   -1.1272360  
C    -0.7331080    4.7417730   -0.3171810  
O    -1.6920960    5.2629070    0.2457070  
C    -0.4245000    3.2738610   -0.2509610  
H     1.2418430    0.6789220   -0.4497860  
H     1.8714240    5.8772580   -2.3668110  
H    -1.0711990    6.9605760   -0.5701360  
H     3.3232880    1.1964180   -2.0111340  
