64


C     0.5869380   -0.6272860   -1.4404480  
C    -0.1132900    0.1105440   -0.5151750  
C     0.8466820    0.6985320    0.3815320  
C     2.1228860    0.2875020   -0.0649900  
N     1.9340600   -0.5137800   -1.1702690  
C     3.3298720    0.6246080    0.6033790  
C     3.1863290    1.4170360    1.7575770  
O     4.2716600    1.8556880    2.4321790  
C     1.9015790    1.8347230    2.2042730  
O     1.9480350    2.6121960    3.3433430  
C     0.7419180    1.4922930    1.5407280  
H     2.6718000   -1.0370550   -1.6179720  
H     3.9493830    2.3877590    3.1821020  
H     1.0590170    2.9292680    3.5613270  
H    -0.2272830    1.8275430    1.9009010  
H     0.2262530   -1.2089720   -2.2759870  
C    -2.3968320   -0.8452690   -0.3119330  
C    -3.6998050   -0.4023710   -0.2808350  
C    -3.6303740    1.0424590   -0.3883090  
C    -2.2608480    1.3946470   -0.4908660  
N    -1.5170510    0.2204540   -0.4358060  
C    -1.8288420    2.7209310   -0.6212890  
C    -2.7976870    3.7127540   -0.6236720  
O    -2.4307240    5.0221770   -0.7453640  
C    -4.1726550    3.3816320   -0.4960080  
O    -5.0139440    4.4778300   -0.5014910  
C    -4.5971790    2.0709980   -0.3798230  
H    -0.7827870    2.9876950   -0.7205950  
H    -3.2471340    5.5510280   -0.7349480  
H    -5.9328460    4.1797160   -0.4288510  
H    -5.6548940    1.8398680   -0.2812110  
H    -2.0111940   -1.8526520   -0.2515850  
C    -4.8158880   -3.7039660    2.5683710  
C    -4.1632340   -2.6902970    1.9168810  
C    -5.0160640   -2.2532510    0.8457800  
C    -6.1911140   -3.0482890    0.9051980  
N    -6.0391570   -3.9248930    1.9611100  
C    -7.2645830   -2.8897140    0.0199750  
C    -7.1417220   -1.9067460   -0.9483480  
O    -8.1473390   -1.7113170   -1.8539940  
C    -5.9768910   -1.1021570   -1.0268930  
O    -6.0060730   -0.1872420   -2.0658760  
C    -4.9029660   -1.2463520   -0.1495680  
H    -3.1927680   -2.2913860    2.1749420  
H    -6.7172110   -4.6131940    2.2468650  
H    -8.1624860   -3.4978750    0.0616060  
H    -7.8403920   -1.0209640   -2.4671610  
H    -5.1319560    0.2314280   -2.1378620  
H    -4.5134010   -4.2934720    3.4224920  
C     4.6174440    0.1655210    0.1117050  
C     4.9949080   -0.0438770   -1.1941550  
C     6.3461450   -0.5431640   -1.1409590  
C     6.6509300   -0.6069530    0.3271540  
N     5.6540300   -0.1898880    1.0489410  
C     7.9207500   -1.0860870    0.8117860  
C     8.8436150   -1.4540280   -0.1069610  
O    10.0684220   -1.9102300    0.1905030  
C     8.5710880   -1.3822280   -1.5946280  
O     9.4802250   -1.7431060   -2.3447470  
C     7.2692470   -0.9076850   -2.0642530  
H     4.4482600    0.2202970   -2.0892830  
H     8.1133970   -1.1319100    1.8777750  
H    10.4914790   -2.0870100   -0.6807190  
H     7.1073460   -0.8781060   -3.1374430  
