62


C     1.6894280   -0.0899150    0.1889590  
C     1.1424710   -1.3394820    0.3553410  
C     1.9430170   -2.2399720   -0.4548490  
C     2.9529110   -1.4680520   -1.0781170  
N     2.7839780   -0.1418470   -0.6698090  
C     3.9167100   -2.0311610   -1.9214710  
C     3.8443670   -3.3965670   -2.1575440  
O     4.7605090   -3.9894420   -2.9709930  
C     2.8195420   -4.1809710   -1.5655600  
O     2.8693910   -5.5138990   -1.9099970  
C     1.8766420   -3.6227450   -0.7209190  
H     4.7056890   -1.4518560   -2.3853880  
H     4.5348110   -4.9342800   -3.0265220  
H     2.1250620   -5.9859650   -1.5074390  
H     1.1002470   -4.2393840   -0.2755260  
H     1.3699990    0.8555810    0.6007190  
C    -2.9982570    0.3887650    0.5926620  
C    -1.6965250    0.1244520    0.2459320  
C    -1.2513860   -0.9496530    1.0876420  
C    -2.3439100   -1.3097030    1.9188390  
N    -3.4007420   -0.4773400    1.5983530  
C    -2.2831050   -2.3523490    2.8491340  
C    -1.0853310   -3.0433420    2.9419890  
O    -0.9555910   -4.0560720    3.8451240  
C     0.0181900   -2.7056560    2.1163300  
O     1.1360860   -3.4821250    2.3496050  
C    -0.0320600   -1.6714780    1.1823600  
H    -1.1449370    0.6064110   -0.5481380  
H    -4.2757200   -0.4139360    2.0962320  
H    -3.1164280   -2.6273720    3.4869590  
H    -0.0396720   -4.3790680    3.7834140  
H     1.8835310   -3.1300360    1.8381030  
C    -3.5430870    2.7287110   -0.0326110  
C    -4.5619260    3.4351050   -0.5789970  
C    -5.6475920    2.5093160   -0.8251230  
C    -5.1639050    1.1782340   -0.3813700  
N    -3.8713380    1.3725120    0.1090720  
C    -5.8845630    0.0320170   -0.4743110  
C    -7.2359200    0.1054360   -1.0280270  
O    -7.9560770   -0.8734040   -1.1493900  
C    -7.7777310    1.5096780   -1.4815380  
O    -8.9094830    1.5907640   -1.9321130  
C    -6.8920250    2.6693750   -1.3467130  
H    -4.5685220    4.4958740   -0.7835840  
H    -5.5065080   -0.9385400   -0.1720480  
H    -7.2682750    3.6319770   -1.6796580  
H    -2.5688990    3.0587310    0.3016040  
C     4.0979770    1.2523550   -2.2677470  
C     3.5470360    0.9603490   -1.0585240  
C     3.9789860    2.0534750   -0.1609750  
C     4.7797150    2.9366370   -1.0506440  
N     4.8467630    2.4605240   -2.2639440  
C     5.3845620    4.1452220   -0.5571500  
C     5.2391860    4.4413440    0.7579170  
O     5.7564070    5.5347740    1.3455450  
C     4.4709940    3.5490520    1.6841750  
O     4.3760890    3.8771810    2.8658000  
C     3.8425220    2.3167780    1.1507990  
H     5.9500860    4.7797740   -1.2305780  
H     5.4932570    5.4764210    2.2893700  
H     3.2995020    1.6957200    1.8565540  
H     4.0159140    0.6892600   -3.1877590  
