58


C     1.8628660   -0.3558760   -1.4417410  
C     2.8759550   -0.1101390   -0.5525980  
C     2.3948370    0.9732880    0.3165390  
C     1.0195820    1.2896680   -0.1356090  
N     0.7570950    0.4295990   -1.1822490  
C     0.2137970    2.2780400    0.3667070  
C     0.7654010    3.0719590    1.4891480  
O     0.1017880    3.8781540    2.1145570  
C     2.2439050    2.8049520    1.9288230  
O     2.7385400    3.5150690    2.7890720  
C     2.9792760    1.7036870    1.3018180  
H     3.9803430    1.5062950    1.6600770  
H     1.8480360   -1.0563190   -2.2632190  
H    -0.0717670    0.4739890   -1.7558120  
C    -3.4978290   -0.1754640   -0.1918830  
C    -2.2260350    0.2745510    0.1087740  
C    -2.1467310    1.6622290   -0.2447310  
C    -3.4829190    2.0287010   -0.7655520  
N    -4.2360280    0.8744710   -0.7390780  
C    -3.8511070    3.2789940   -1.1483590  
C    -2.8659970    4.3461420   -1.0548130  
O    -3.1072290    5.5115240   -1.3285810  
C    -1.4105350    3.9721900   -0.5994860  
O    -0.5314990    4.8057620   -0.7101570  
C    -1.1294120    2.5839590   -0.1299980  
H    -1.4568360   -0.2933060    0.6064110  
H    -4.8492500    3.5254470   -1.4960680  
H    -5.2362570    0.8097720   -0.8711460  
C    -1.8496000   -4.2855410    0.5254530  
C    -1.9172120   -2.9674220    0.1990070  
C    -3.3303810   -2.6369460    0.2310180  
C    -3.9877190   -3.9313030    0.5924980  
N    -3.1164950   -4.8846890    0.7760740  
C    -5.4144000   -4.0583530    0.7076390  
C    -6.1691420   -2.9677920    0.4413700  
O    -7.5115550   -2.9607070    0.4779070  
C    -5.5523230   -1.6580620    0.0511770  
O    -6.3334440   -0.7482330   -0.2424120  
C    -4.0638160   -1.4949500    0.0268910  
H    -1.0971430   -2.3182770   -0.0666060  
H    -5.8540570   -5.0113120    0.9797770  
H    -7.7881030   -2.0557830    0.2208960  
H    -0.9621560   -4.9027150    0.6015000  
C     5.6665690   -1.3388530    2.6687160  
C     6.6887900   -1.8703630    1.9640860  
C     6.2899640   -1.7527340    0.5640650  
C     4.9507420   -1.0817590    0.6176790  
N     4.5953930   -0.8528170    1.8462520  
C     4.1824430   -0.7742370   -0.5885680  
C     4.7463600   -1.2051340   -1.7593300  
O     4.1577440   -1.0622690   -2.9656340  
C     6.0848990   -1.8628380   -1.8384430  
O     6.5093660   -2.1607170   -2.9565570  
C     6.8452280   -2.1252630   -0.6026570  
H     7.6058510   -2.3061860    2.3352050  
H     4.8204360   -1.4025550   -3.6095390  
H     7.8093260   -2.6143260   -0.7028250  
H     5.5693990   -1.2412930    3.7429580  
