60


C    -2.1288590   -0.3253330    0.4266130  
C    -3.4525500   -0.2442940    0.0446560  
C    -3.6923400    1.1508410   -0.2927440  
C    -2.4862010    1.8505660   -0.0589450  
N    -1.5258250    0.9172230    0.3685990  
C    -2.3456520    3.2216330   -0.2888600  
C    -3.4611380    3.9119240   -0.7364750  
O    -3.3795260    5.2492620   -0.9726620  
C    -4.6875650    3.2326630   -0.9542610  
O    -5.7045620    4.0483000   -1.3998480  
C    -4.8137420    1.8730450   -0.7390430  
H    -1.4256780    3.7613990   -0.1051100  
H    -4.2586080    5.5488810   -1.2627410  
H    -6.5082850    3.5243810   -1.5353030  
H    -5.7509780    1.3698880   -0.9496270  
H    -1.5625070   -1.1892920    0.7401170  
C     2.0477160   -1.0796200   -1.1367230  
C     0.7794960   -0.6608700   -0.9277760  
C     0.8226470    0.3923960    0.0640160  
C     2.2423330    0.5632400    0.4361790  
N     2.9598690   -0.3597990   -0.3425760  
C     2.6976850    1.4402720    1.3676650  
C     1.7293810    2.3158890    2.0190580  
O     2.0444650    3.1745570    2.8253930  
C     0.2081030    2.1521900    1.6653610  
O    -0.6117750    2.8160310    2.2686470  
C    -0.1652290    1.1505410    0.6328180  
H    -0.1014130   -1.0238110   -1.4353570  
H     3.7348520    1.5203470    1.6685970  
H     2.4290870   -1.8194580   -1.8258900  
C     4.3271750   -0.5933590   -0.3559060  
C     4.9859270   -1.7657550   -0.5928640  
C     6.3979450   -1.4738420   -0.5786850  
C     6.5168920   -0.0211960   -0.3080030  
N     5.2187200    0.4585960   -0.1247620  
C     7.6846840    0.6587970   -0.2624890  
C     8.9292240   -0.0897820   -0.4641600  
O    10.0271490    0.4406740   -0.4388280  
C     8.8307870   -1.6391230   -0.7098070  
O     9.8601470   -2.2766210   -0.8695770  
C     7.5021250   -2.2501890   -0.7510540  
H     4.5348510   -2.7410490   -0.7026530  
H     7.7527870    1.7251720   -0.0703190  
H     7.4447510   -3.3178860   -0.9389450  
H     4.9701960    1.4227210   -0.3009120  
C    -3.9863800   -3.7474490    2.7566220  
C    -3.5925240   -2.5421390    2.2761840  
C    -4.3128210   -2.3764730    1.0159720  
C    -5.1264570   -3.6140690    0.9095830  
N    -4.9266210   -4.4177670    1.9190570  
C    -6.0223610   -3.8470070   -0.1956980  
C    -6.1173570   -2.8836430   -1.1382320  
O    -6.9284940   -2.9539610   -2.2111730  
C    -5.3096490   -1.6189910   -1.0658190  
O    -5.4702520   -0.8077390   -1.9770540  
C    -4.3439400   -1.3993430    0.0614130  
H    -2.9277870   -1.8277650    2.7397640  
H    -6.6014920   -4.7625630   -0.2430120  
H    -6.7690880   -2.1251210   -2.7119970  
H    -3.6850080   -4.2267650    3.6804260  
