58


C     1.3079710    1.8479950   -0.1598770  
C     2.0690470    0.7026020   -0.0258980  
C     3.4420180    1.0493590   -0.2097670  
C     3.4592970    2.5171970   -0.4292890  
N     2.1474740    2.9311640   -0.4083110  
C     4.5806480    3.2598450   -0.6086000  
C     5.8645950    2.5777210   -0.5814460  
O     6.9318310    3.1494190   -0.7351600  
C     5.8859990    1.0221350   -0.3326110  
O     6.9726950    0.4707800   -0.2989190  
C     4.5999300    0.2978580   -0.1674840  
H     1.6956380   -0.2757090    0.2226310  
H     4.5670720    4.3340740   -0.7625250  
H     1.8079740    3.8839180   -0.3610380  
C    -2.0524300   -0.9605620   -0.7839720  
C    -0.8407910   -0.3504690   -0.7637210  
C    -1.0286820    0.9855010   -0.2636250  
C    -2.4783670    1.1320640   -0.0098610  
N    -3.0663510   -0.1176460   -0.3227890  
C    -3.0617870    2.2703630    0.4369570  
C    -2.2112990    3.4423360    0.6401930  
O    -2.6380750    4.5028870    1.0625100  
C    -0.6926970    3.3409930    0.2844530  
O    -0.0366120    4.3742590    0.2839990  
C    -0.1286160    2.0139730   -0.0486980  
H     0.0834950   -0.7835130   -1.1143880  
H    -4.1211770    2.3448010    0.6370160  
H    -2.3002880   -1.9574060   -1.1164040  
C    -4.3901110   -0.5060070   -0.2336680  
C    -4.9190780   -1.7446980   -0.5166270  
C    -6.3215730   -1.6059710   -0.2645090  
C    -6.4849140   -0.1757210    0.1804510  
N    -5.3397560    0.4531510    0.1926360  
C    -7.7601630    0.3721550    0.5334020  
C    -8.8299950   -0.4574490    0.4525180  
O   -10.0785560   -0.1022870    0.7454760  
C    -8.7030680   -1.9111470    0.0076010  
O    -9.7493630   -2.5598060   -0.0241190  
C    -7.3936630   -2.4384670   -0.3455830  
H    -4.4161770   -2.6410090   -0.8464230  
H    -7.8487570    1.4053310    0.8494150  
H   -10.6207910   -0.9121780    0.5905810  
H    -7.3364400   -3.4758460   -0.6585650  
C     6.7859440   -2.5829850    2.4825010  
C     6.3600300   -1.4313540    1.9164220  
C     5.4282340   -1.8364190    0.8666380  
C     5.4223000   -3.3279040    0.9577830  
N     6.2079550   -3.7596930    1.9007900  
C     4.6065940   -4.1434970    0.0954360  
C     3.8145200   -3.5092490   -0.7958040  
O     3.0000860   -4.1390100   -1.6651150  
C     3.7636180   -2.0102910   -0.8923670  
O     2.9957550   -1.5428770   -1.7352360  
C     4.6207280   -1.1605820   -0.0012070  
H     6.6574970   -0.4229210    2.1580700  
H     4.6418220   -5.2243260    0.1754020  
H     2.5865620   -3.4210850   -2.1917480  
H     7.4907860   -2.7058300    3.2957500  
