60


C     0.8216190    0.6749950   -0.5988950  
C     1.9499070   -0.0720960   -0.3192680  
C     3.0946780    0.7564810   -0.5305510  
C     2.6029850    2.0297590   -0.9272600  
N     1.2225760    1.9609120   -0.9421400  
C     3.4302960    3.1208440   -1.1936240  
C     4.7925720    2.9266130   -1.0182370  
O     5.6621060    3.9462330   -1.2374530  
C     5.3201460    1.6748710   -0.5978720  
O     6.6893450    1.6730190   -0.4788860  
C     4.5014430    0.5608400   -0.3783440  
H     1.9391790   -1.0918370    0.0334720  
H     0.6217840    2.6479750   -1.3716180  
H     3.0529230    4.0926060   -1.4948480  
H     6.5423980    3.5827630   -1.0155350  
H     6.9065730    1.2375650    0.3880900  
C    -1.0802950   -0.9407110   -0.9036050  
C    -0.5756920    0.2840210   -0.5784540  
C    -1.7228970    1.0969300   -0.1811230  
C    -2.9257730    0.2244300   -0.3013260  
N    -2.4539740   -1.0042700   -0.6930740  
C    -4.2272550    0.6019960   -0.0100230  
C    -4.3762360    2.0036830    0.4055410  
O    -5.4546550    2.5236140    0.6859460  
C    -3.1133730    2.9318850    0.5533540  
O    -3.2868670    4.0784620    0.9314480  
C    -1.8006170    2.3792460    0.2540380  
H    -0.9329170    3.0144370    0.3963290  
H    -0.5539950   -1.8069910   -1.2811530  
H    -3.0660600   -1.6271210   -1.2139570  
C    -7.8106520    0.1200780    2.5855670  
C    -8.4197630   -0.9134220    1.9564190  
C    -7.6068830   -1.2465660    0.8078090  
C    -6.4443540   -0.3124080    0.8313380  
N    -6.6122460    0.4589750    1.9572140  
C    -5.4044710   -0.3005070   -0.0848510  
C    -5.5424710   -1.2804810   -1.1725300  
O    -4.7161740   -1.4246300   -2.0715760  
C    -6.7833740   -2.2512310   -1.2279810  
O    -6.8496370   -3.0380580   -2.1581410  
C    -7.7700370   -2.1805730   -0.1633270  
H    -9.3374690   -1.4030680    2.2475560  
H    -8.6116610   -2.8652170   -0.1926480  
H    -8.1168420    0.6654830    3.4685920  
H    -6.2118480    1.3921630    1.9877450  
C     7.5811800   -0.6091640    2.5815590  
C     7.4899930   -1.9573730    2.5691780  
C     6.5037670   -2.2673150    1.5414160  
C     6.0556940   -0.9308150    1.0332050  
N     6.7097800    0.0232120    1.6417590  
C     5.0443750   -0.7656890   -0.0013050  
C     4.6250960   -1.9394800   -0.5738040  
O     3.7563710   -2.0054290   -1.5953770  
C     5.0809180   -3.2929940   -0.1136750  
O     4.6303450   -4.2775500   -0.7025270  
C     6.0417870   -3.4077620    0.9967930  
H     8.0342090   -2.6701040    3.1726190  
H     3.6695140   -2.9658550   -1.7928360  
H     6.3452420   -4.4057800    1.2972420  
H     8.2154760    0.0173720    3.1962130  
