58


C    -0.8326030   -2.5393690   -1.2355530  
C    -1.9928340   -1.8565250   -1.0525070  
C    -1.7762110   -0.8915860   -0.0050590  
C    -0.3766550   -1.0835670    0.4370750  
N     0.1738130   -2.0713630   -0.3844480  
C     0.1950560   -0.4470880    1.4924400  
C    -0.6039560    0.5275240    2.2256370  
O    -0.1967360    1.1005000    3.2243110  
C    -2.0345470    0.8689450    1.6851180  
O    -2.5989350    1.8463850    2.1368570  
C    -2.6072410    0.0287100    0.5968270  
H    -2.9163960   -2.0290820   -1.5821650  
H     1.1968200   -0.6572110    1.8476060  
H    -0.6122300   -3.3494690   -1.9138190  
C     4.0998780   -0.1501930   -0.3084510  
C     4.8577050   -1.2898020   -0.1190120  
C     3.9693800   -2.4190100   -0.0964630  
C     2.6073620   -1.8628630   -0.2727120  
N     2.7511330   -0.5053900   -0.3888470  
C     1.4689650   -2.6230580   -0.2882190  
C     1.6174820   -4.0849840   -0.2037910  
O     0.6673420   -4.8474510   -0.2773160  
C     3.0636820   -4.6806760   -0.0309500  
O     3.1784940   -5.8943700    0.0432500  
C     4.1906780   -3.7601100    0.0210720  
H     5.9355110   -1.3569680   -0.1212120  
H     5.1827940   -4.1821070    0.1459030  
H     2.0419720    0.1757880   -0.6361620  
C     7.7246790    1.9550040    1.0342590  
C     7.4790850    3.1797280    0.5130360  
C     6.1905280    3.1142830   -0.1478310  
C     5.7093700    1.7226970    0.0191720  
N     6.6883870    1.0673160    0.7151350  
C     4.4988890    1.2371280   -0.4377140  
C     3.5943020    2.2348530   -1.0379090  
O     2.4268090    2.0046120   -1.3272120  
C     4.1379100    3.6789180   -1.3280870  
O     3.4374820    4.4438940   -1.9661440  
C     5.4562680    4.0461310   -0.8090290  
H     8.1141830    4.0505540    0.5820940  
H     5.7978190    5.0639510   -0.9687130  
H     8.5684880    1.6031040    1.6120080  
H     6.5530360    0.1622750    1.1434850  
C    -3.9881680    0.2326920    0.1969320  
C    -4.5283760    0.1882700   -1.0617580  
C    -5.9396620    0.4524400   -0.8945990  
C    -6.1054230    0.6222690    0.5853460  
N    -4.9770150    0.5016020    1.2159580  
C    -7.3969860    0.8820970    1.1719820  
C    -8.4564220    0.9909590    0.3373330  
O    -9.7131050    1.2387220    0.7374930  
C    -8.3160480    0.8397690   -1.1591750  
O    -9.3393930    0.9531670   -1.8352420  
C    -6.9946900    0.5608810   -1.7349970  
H    -4.0068720    0.0615210   -1.9998400  
H    -7.4916530    0.9949310    2.2461410  
H   -10.2457200    1.2593250   -0.0890970  
H    -6.9360250    0.4477630   -2.8132800  
