58


C    -2.3875530    2.6320790    1.8258420  
C    -1.2085990    2.0761400    1.4355100  
C    -1.5287290    0.9226080    0.6312660  
C    -3.0134730    0.8441040    0.6083970  
N    -3.4715620    1.8861920    1.3896790  
C    -3.7485880   -0.1073660   -0.0555530  
C    -2.9605560   -0.9715750   -0.9715110  
O    -3.4651070   -1.6245570   -1.8663980  
C    -1.4063470   -1.0264300   -0.8188180  
O    -0.8111930   -1.9635530   -1.3229830  
C    -0.7326400    0.0267120   -0.0389250  
H    -0.2181780    2.4333500    1.6727600  
H    -2.5560670    3.5270690    2.4108610  
H    -4.4050100    2.2641840    1.1979870  
C     2.4058400   -0.1361590    3.1634940  
C     1.1999610   -0.0910120    2.5484870  
C     1.5015680   -0.0083210    1.1245990  
C     2.9973830   -0.0233480    1.0706250  
N     3.5143450   -0.0986440    2.2653440  
C     3.7315960    0.0280180   -0.1824370  
C     2.9744910    0.0674790   -1.3150820  
O     3.4937770    0.0809620   -2.5481530  
C     1.4720170    0.1084320   -1.2949650  
O     0.9038800    0.2581890   -2.3713610  
C     0.7349310    0.0310800    0.0043400  
H     0.2180040   -0.1139930    2.9981010  
H     2.7276850    0.1754610   -3.1567540  
H     2.6083440   -0.2019530    4.2261850  
C     6.9927820   -2.6153030    1.3250040  
C     5.7886840   -2.0689510    1.0226090  
C     6.0395940   -0.8261400    0.3244850  
C     7.5167280   -0.6949600    0.2405060  
N     8.0334980   -1.8080980    0.8704170  
C     8.1765930    0.3255570   -0.3659640  
C     7.3875790    1.3817960   -0.9784060  
O     7.8787220    2.3336360   -1.5668930  
C     5.8204490    1.2948660   -0.8725550  
O     5.1616710    2.2259880   -1.3003860  
C     5.2046270    0.1065860   -0.2268630  
H     4.8205920   -2.4696230    1.2770990  
H     9.2588780    0.3848220   -0.4284530  
H     7.2170730   -3.5370420    1.8453430  
H     9.0156290   -2.0147390    0.9582240  
C    -7.2060860    2.7470750   -0.0322340  
C    -8.2413010    1.9032050   -0.2313170  
C    -7.6548060    0.5690860   -0.2316150  
C    -6.1812830    0.8044270   -0.0489820  
N    -5.9455910    2.0812780    0.0892120  
C    -5.2119480   -0.2822690   -0.0252540  
C    -5.7624670   -1.5409090   -0.0060100  
O    -5.0471610   -2.6536470    0.1574450  
C    -7.2367340   -1.8037750   -0.1572780  
O    -7.6081170   -2.9753310   -0.1492090  
C    -8.1689010   -0.6723620   -0.2930170  
H    -9.2884630    2.1432780   -0.3497380  
H    -5.6849410   -3.3987270    0.0798720  
H    -9.2243780   -0.9002940   -0.4038440  
H    -7.2246600    3.8273650    0.0430250  
