60


C    -2.6173690    0.3655370    0.0565800  
C    -1.3382400    0.8190620    0.3975520  
C    -1.0862100    1.9982900   -0.3480210  
C    -2.2569180    2.2424620   -1.1333800  
N    -3.1498240    1.2378690   -0.8772410  
C    -2.3950570    3.3513900   -1.9678410  
C    -1.3448540    4.2585410   -1.9842410  
O    -1.4184970    5.3656000   -2.7602860  
C    -0.1758280    4.0649120   -1.1945330  
O     0.7594040    5.0604980   -1.3610970  
C     0.0050740    2.9299390   -0.3982570  
H    -0.6882510    0.3421060    1.1113090  
H    -4.0940950    1.1224070   -1.2374010  
H    -3.2813990    3.5343500   -2.5657140  
H    -0.5953870    5.8647590   -2.5906420  
H     1.0756180    5.3102920   -0.4658310  
C     2.7737900   -0.5794870    0.0687950  
C     1.7523650    0.2297020   -0.3481970  
C     1.9066130    1.4728160    0.3798970  
C     3.0966040    1.2334340    1.2416470  
N     3.6037510    0.0494880    1.0648570  
C     3.5957010    2.2347810    2.1502360  
C     2.9866910    3.4403200    2.1399710  
O     3.3684190    4.4793210    2.9042440  
C     1.8457880    3.7389730    1.2132420  
O     1.4422240    4.9121430    1.2186170  
C     1.2453990    2.6735470    0.3586550  
H     1.0194230    0.0197620   -1.1121320  
H     4.4475200    2.0200720    2.7853170  
H     2.7814630    5.2245830    2.6563650  
C     0.3488460   -4.1889060   -0.9315170  
C     0.6876880   -2.9351620   -0.5342610  
C     2.1364320   -2.8848140   -0.6421720  
C     2.5102760   -4.2536940   -1.1203520  
N     1.4599340   -5.0068190   -1.2942750  
C     3.8800620   -4.6391480   -1.3240630  
C     4.8370720   -3.7200860   -1.0590510  
O     6.1522590   -3.9404590   -1.2061770  
C     4.5045660   -2.3207640   -0.6026200  
O     5.4443090   -1.5431010   -0.4831100  
C     3.0760720   -1.9305970   -0.3769500  
H     0.0360920   -2.1512050   -0.1775930  
H     4.1181780   -5.6371680   -1.6749270  
H     6.5853850   -3.0875990   -0.9784110  
H    -0.6443300   -4.6194730   -0.9869100  
C    -6.7069670   -0.9260790   -0.8902390  
C    -6.8240350   -2.0447090   -0.1418920  
C    -5.5413590   -2.1897220    0.5397080  
C    -4.7389100   -1.0227380    0.0712200  
N    -5.4277670   -0.2953350   -0.7631170  
C    -3.3646350   -0.7818260    0.5199610  
C    -2.8655510   -1.7148650    1.3976610  
O    -1.6115740   -1.6562550    1.8945750  
C    -3.6361570   -2.8853870    1.8692060  
O    -3.0857810   -3.6722310    2.6478880  
C    -5.0252950   -3.0847950    1.4011330  
H    -7.6754530   -2.7050130   -0.0547140  
H    -1.5292560   -2.4547520    2.4648320  
H    -5.5543460   -3.9555290    1.7767830  
H    -7.4398450   -0.4737150   -1.5464060  
