58


C     0.1073160    1.5998840    0.2554600  
C    -1.0495950    0.8694970    0.4038380  
C    -0.7298930   -0.5144030    0.2544410  
C     0.7391050   -0.5766220    0.0748720  
N     1.1843640    0.7303760    0.0993960  
C     1.4680950   -1.7230560   -0.0888030  
C     0.6957620   -2.9847170   -0.0348180  
O     1.2260350   -4.0760800    0.0579970  
C    -0.8708780   -2.9241060   -0.0413350  
O    -1.4781930   -3.9523030   -0.2853630  
C    -1.5358760   -1.6281430    0.2198370  
H    -2.0319510    1.2593830    0.6061870  
H     2.1391730    1.0546360    0.0308810  
C    -2.6794290    4.6781040   -1.1046810  
C    -1.9468280    5.7878490   -0.8371420  
C    -0.6815940    5.3419080   -0.2918370  
C    -0.7548180    3.8631150   -0.2437340  
N    -1.9889930    3.5229130   -0.7322740  
C     0.2624530    3.0373540    0.1909420  
C     1.5415010    3.6861910    0.5070780  
O     2.5740180    3.0616980    0.7210950  
C     1.5985580    5.2547080    0.5675180  
O     2.6199840    5.7823460    0.9748080  
C     0.4306790    6.0109010    0.1166170  
H    -2.2405000    6.8126520   -1.0104480  
H     0.5007510    7.0941060    0.1148080  
H    -3.6685960    4.5916340   -1.5336900  
H    -2.2708260    2.5729550   -0.9561800  
C    -4.7350270    0.6806240   -1.8960420  
C    -5.8443220    0.0396020   -1.4687180  
C    -5.3639400   -0.9440130   -0.5068790  
C    -3.8698100   -0.7578240   -0.4893260  
N    -3.5236580    0.2159950   -1.2896270  
C    -3.0050040   -1.6062500    0.3263350  
C    -3.6525120   -2.4892510    1.1507730  
O    -3.0146180   -3.2704610    2.0265960  
C    -5.1445410   -2.6599310    1.1762300  
O    -5.6142150   -3.4837580    1.9586490  
C    -5.9809510   -1.8438240    0.2799220  
H    -6.8714250    0.1995660   -1.7654610  
H    -3.7082080   -3.8265000    2.4462010  
H    -7.0543760   -2.0033680    0.3111640  
H    -4.6682930    1.4751960   -2.6306670  
C     4.8336780    0.0274490    2.2044910  
C     5.8690600   -0.4343020    1.4592200  
C     5.3078060   -1.2077750    0.3713900  
C     3.8357070   -1.1565200    0.5445330  
N     3.6152030   -0.3791970    1.6667300  
C     2.9240820   -1.7781480   -0.2652700  
C     3.4745980   -2.5050660   -1.4354800  
O     2.7669660   -2.9596380   -2.3155770  
C     5.0332800   -2.6285190   -1.5889630  
O     5.4791560   -3.3102160   -2.4986030  
C     5.8821330   -1.9073880   -0.6440880  
H     6.9192340   -0.2551510    1.6373620  
H     6.9577690   -1.9731500   -0.7758120  
H     4.8459110    0.6422100    3.0944780  
H     2.7171080   -0.2514230    2.1065000  
