60


C     2.9821920    0.5733100    0.0241010  
C     1.6014170    0.7479600    0.1327320  
C     1.3230550    2.1201520   -0.0942700  
C     2.5790290    2.7616920   -0.3141110  
N     3.5560140    1.8047960   -0.2377820  
C     2.6991880    4.1309800   -0.5624660  
C     1.5317390    4.8805060   -0.6102910  
O     1.5978110    6.2119000   -0.8792140  
C     0.2658690    4.2763750   -0.4065770  
O    -0.7858130    5.1617030   -0.5247610  
C     0.1235480    2.9052810   -0.1346940  
H     0.9139510   -0.0409580    0.3788550  
H     4.5641280    1.9165940   -0.3165030  
H     3.6543660    4.6149000   -0.7367930  
H     0.6826600    6.5404250   -0.9333570  
H    -1.6021820    4.6703370   -0.7320700  
C    -1.1770780    2.2959530    0.0470400  
C    -1.5541650    0.9875940   -0.1248620  
C    -2.9418730    0.8528010    0.1870400  
C    -3.4162040    2.2044120    0.5341160  
N    -2.3229590    3.0758480    0.3883730  
C    -4.6837860    2.4936040    0.9031000  
C    -5.6655240    1.4030670    0.9236500  
O    -6.8374120    1.5837090    1.2078770  
C    -5.1856210   -0.0497890    0.5641970  
O    -5.9849500   -0.9677730    0.6527700  
C    -3.7743170   -0.2427340    0.1963730  
H    -0.9212400    0.2003990   -0.4973910  
H    -5.0259210    3.4927800    1.1552650  
H    -2.2165640    3.8257120    1.0643370  
C    -0.5525540   -2.7179040    1.9850400  
C    -1.4917460   -1.7579300    1.8152710  
C    -2.2397860   -2.1620700    0.6318090  
C    -1.6002900   -3.4472440    0.2190650  
N    -0.5910350   -3.7483920    0.9925880  
C    -2.0832280   -4.2001760   -0.9086430  
C    -3.1456930   -3.7028940   -1.5843810  
O    -3.7161120   -4.3067900   -2.6370290  
C    -3.7717340   -2.3712530   -1.2364840  
O    -4.6592910   -1.9623770   -1.9760330  
C    -3.2503490   -1.5913630   -0.0749270  
H    -1.6739250   -0.8859890    2.4259550  
H    -1.6126450   -5.1378040   -1.1829530  
H    -4.4265190   -3.6963320   -2.9356670  
H     0.1938670   -2.7863050    2.7671740  
C     7.3365270    0.0575660   -0.0932680  
C     7.4651150   -1.2800280    0.0470100  
C     6.1013320   -1.7901540    0.1481850  
C     5.2425120   -0.5723120    0.0537970  
N     5.9742880    0.4977720   -0.0907110  
C     3.7830800   -0.6318320    0.1152800  
C     3.2484080   -1.8942290    0.2343590  
O     1.9259790   -2.1192820    0.2736760  
C     4.0822650   -3.1242890    0.3216630  
O     3.5125150   -4.2111970    0.4216840  
C     5.5579870   -3.0133490    0.2773240  
H     8.3733060   -1.8654820    0.0760310  
H     1.7841090   -3.0913440    0.3501350  
H     6.1244480   -3.9373160    0.3440190  
H     8.1162930    0.8008660   -0.2031390  
