64


C     2.3616750   -0.0277350   -2.0419970  
C     1.1612830    0.4953630   -1.6485220  
C     1.4027850    1.3265870   -0.4926410  
C     2.7943890    1.2789590   -0.2323880  
N     3.3555950    0.4376470   -1.1871860  
C     3.4195830    1.9996870    0.7874490  
C     2.6021020    2.8151710    1.5533260  
O     3.1303980    3.5704370    2.5521960  
C     1.1994900    2.8857630    1.3243680  
O     0.5364940    3.7203610    2.1982130  
C     0.5673110    2.1325530    0.3327890  
H     0.2150380    0.3379910   -2.1463370  
H     4.4869450    1.9545370    0.9710290  
H     2.3796470    4.0677850    2.9298280  
H    -0.0957780    4.2602080    1.6767790  
H     2.6236750   -0.6854460   -2.8577330  
C     5.6203900    0.8711520   -2.0207490  
C     6.8442610    0.2774020   -1.8971070  
C     6.6827220   -0.8806100   -1.0573650  
C     5.3174400   -0.9481350   -0.6879510  
N     4.6867060    0.1347120   -1.2920360  
C     4.7915050   -1.9525990    0.1292460  
C     5.6730700   -2.9195500    0.5882950  
O     5.2199830   -3.9264360    1.3898620  
C     7.0475620   -2.8743930    0.2320090  
O     7.7946330   -3.9070810    0.7666090  
C     7.5571770   -1.8757630   -0.5774200  
H     7.7626070    0.6231450   -2.3517580  
H     3.7452110   -1.9928840    0.4102930  
H     5.9847400   -4.4863000    1.6088600  
H     8.7220080   -3.8039630    0.5071100  
H     8.6140270   -1.8625500   -0.8368550  
H     5.3014770    1.7547560   -2.5538960  
C    -2.2276010   -1.2428330    0.1786030  
C    -3.4222130   -0.5485920    0.0239240  
C    -3.0584970    0.8585390   -0.0263000  
C    -1.6496670    0.9264250    0.1119840  
N    -1.1833060   -0.3719180    0.2345990  
C    -0.9089260    2.1289930    0.1720360  
C    -1.6809670    3.2873890    0.1118040  
O    -1.0712320    4.5235660    0.1892530  
C    -3.0886480    3.2503400   -0.0175030  
O    -3.6706730    4.5025330   -0.0661030  
C    -3.7859610    2.0613680   -0.0912730  
H    -0.2045660   -0.6223780    0.2405380  
H    -1.7737960    5.1938070    0.1003380  
H    -4.6200010    4.4141580   -0.2379180  
H    -4.8629900    2.0594350   -0.2139720  
H    -2.0646580   -2.3104530    0.2025680  
C    -5.1834950   -4.1488930    1.9915250  
C    -4.3545210   -3.1110730    1.7156870  
C    -5.0294090   -2.3453720    0.6700070  
C    -6.2913930   -3.0873980    0.4514540  
N    -6.3773600   -4.1453980    1.2146280  
C    -7.2850380   -2.6465540   -0.4970000  
C    -7.0383770   -1.5062240   -1.1774350  
O    -7.8867800   -0.9596670   -2.0721320  
C    -5.7724780   -0.7244860   -0.9812540  
O    -5.6535650    0.3068990   -1.6431880  
C    -4.7141270   -1.2146720   -0.0338770  
H    -3.4166070   -2.8673420    2.1933770  
H    -8.1981310   -3.2157700   -0.6322530  
H    -7.4292000   -0.1565420   -2.4016760  
H    -5.0437340   -4.9372250    2.7216280  
