64


C    -4.2588290   -0.0912710   -0.0311150  
C    -2.8980130    0.0465100   -0.2724800  
C    -2.6146480    1.4426250   -0.3999190  
C    -3.8474190    2.1270860   -0.2235000  
N    -4.8205390    1.1773350   -0.0199140  
C    -3.9526360    3.5228450   -0.2517890  
C    -2.7859880    4.2395400   -0.4638940  
O    -2.8235170    5.6046170   -0.5174290  
C    -1.5447590    3.5760770   -0.6403280  
O    -0.4820450    4.4367060   -0.8584300  
C    -1.4242540    2.1877770   -0.6144100  
H    -2.1651450   -0.7469460   -0.2536080  
H    -5.7761840    1.3460310    0.2578660  
H    -4.8935450    4.0471230   -0.1211750  
H    -1.9213910    5.9018720   -0.7286150  
H     0.2907140    3.9140010   -1.1301920  
C    -3.5765000   -4.2464470   -1.3379040  
C    -4.6721950   -4.8137660   -0.7434080  
C    -5.3861830   -3.7582980   -0.0814300  
C    -4.6566170   -2.5616260   -0.3002320  
N    -3.5491100   -2.8933740   -1.0541530  
C    -5.0637180   -1.2931230    0.1805300  
C    -6.2862930   -1.2850160    0.8647790  
O    -6.8024730   -0.1039380    1.3462250  
C    -7.0226150   -2.4714740    1.0954740  
O    -8.1932770   -2.2632120    1.8057130  
C    -6.5894140   -3.7043600    0.6479550  
H    -4.9431530   -5.8602350   -0.7723120  
H    -2.9527290   -2.2108640   -1.4958420  
H    -7.6316080   -0.3250580    1.8058330  
H    -8.6297570   -3.1128520    1.9642350  
H    -7.1748650   -4.6013840    0.8382530  
H    -2.7957140   -4.6957680   -1.9354370  
C     0.1725410    0.5299340   -1.7114400  
C    -0.1142360    1.5396890   -0.8175250  
C     1.1294300    1.8204820   -0.1268370  
C     2.1182350    0.9566870   -0.6595440  
N     1.5058640    0.1896230   -1.6272170  
C     3.4555310    0.9107120   -0.1951070  
C     3.7562170    1.7885610    0.8526640  
O     5.0243060    1.8422870    1.3573840  
C     2.7749300    2.6539920    1.4006680  
O     3.2550110    3.4477630    2.4247510  
C     1.4769520    2.6866100    0.9306450  
H     1.9544340   -0.5670950   -2.1208110  
H     5.0268960    2.5299670    2.0469940  
H     2.5549830    4.0435450    2.7304880  
H     0.7410570    3.3538440    1.3714200  
H    -0.4766820    0.0486320   -2.4287590  
C     4.5865270   -0.2869350   -2.1281270  
C     4.4403740    0.0122520   -0.8040030  
C     5.4467380   -0.8487020   -0.1384620  
C     6.0968660   -1.5873190   -1.2580200  
N     5.5919590   -1.2499140   -2.4127650  
C     7.1454490   -2.5467780   -1.0265000  
C     7.5167850   -2.7830110    0.2542450  
O     8.4735370   -3.6541780    0.6179720  
C     6.8652940   -2.0700490    1.4044990  
O     7.2537200   -2.3392440    2.5404940  
C     5.7983360   -1.0803110    1.1395400  
H     7.6038410   -3.0594940   -1.8649330  
H     8.5114350   -3.6022920    1.5983010  
H     5.3723150   -0.5675770    1.9936510  
H     4.0504600    0.1550940   -2.9606030  
