60


C    -0.8053570   -0.7784630    1.0092300  
C    -0.4028980    0.4139640    0.4221950  
C    -1.6267580    1.1454490    0.1319050  
C    -2.7052940    0.3473400    0.5844830  
N    -2.1643290   -0.8045800    1.1259710  
C    -4.0699550    0.6844090    0.4320020  
C    -4.3171990    1.8919170   -0.2316190  
O    -5.5991810    2.3260160   -0.4131150  
C    -3.2540510    2.6966710   -0.7043910  
O    -3.6772330    3.8530700   -1.3338180  
C    -1.9272980    2.3477650   -0.5367130  
H    -2.7092130   -1.5868200    1.4571420  
H    -5.5437100    3.1987450   -0.8420030  
H    -2.9129630    4.4197350   -1.5155020  
H    -1.1385150    2.9975780   -0.8969840  
H    -0.2005200   -1.6059460    1.3417520  
C     3.0023690   -2.1870590   -0.4128550  
C     4.0470800   -1.3156030   -0.5256310  
C     3.4243680    0.0101630   -0.3169960  
C     1.9830030   -0.2830250   -0.0768410  
N     1.7580770   -1.5674420   -0.1516900  
C     0.9898320    0.7674750    0.1688240  
C     1.4875670    2.0471420    0.1442210  
O     0.7429080    3.1491430    0.4050550  
C     2.9020760    2.3663900   -0.1422160  
O     3.2522040    3.5527020   -0.1335800  
C     3.8680140    1.2750810   -0.3969020  
H     1.3809060    3.8947100    0.3339160  
H     4.8893030    1.5628960   -0.6252800  
H     3.0430060   -3.2676050   -0.4808250  
C     5.8927760   -2.5809870   -1.6960190  
C     5.4250290   -1.6219080   -0.8418120  
C     6.6554710   -1.0268160   -0.2703320  
C     7.7642290   -1.7737750   -0.9334510  
N     7.3048290   -2.6778660   -1.7562820  
C     9.1445290   -1.4973980   -0.6405120  
C     9.4199450   -0.5495580    0.2885310  
O    10.6604010   -0.1939630    0.6592990  
C     8.3266640    0.1926370    1.0019280  
O     8.6496570    1.0322930    1.8394570  
C     6.9130190   -0.1051720    0.6760540  
H     9.9262850   -2.0503010   -1.1494090  
H    10.5424520    0.4997950    1.3443850  
H     6.1575150    0.4445910    1.2283690  
H     5.2992030   -3.2327730   -2.3261410  
C    -5.1475520   -0.8482170    2.1487770  
C    -5.1311430   -0.1779800    0.9594490  
C    -6.3939100   -0.5952650    0.3056980  
C    -7.0255540   -1.5246190    1.2849790  
N    -6.2941130   -1.6621210    2.3564670  
C    -8.2884780   -2.1633760    1.0188880  
C    -8.8870970   -1.9128660   -0.1697620  
O   -10.0607770   -2.4430470   -0.5541880  
C    -8.2649080   -0.9966700   -1.1846550  
O    -8.8667050   -0.8199190   -2.2430740  
C    -6.9722310   -0.3438640   -0.8828500  
H    -8.7247580   -2.8272280    1.7570690  
H   -10.2287870   -2.0773750   -1.4503870  
H    -6.5695780    0.3311860   -1.6286660  
H    -4.4098060   -0.7901710    2.9413790  
