60


C     2.0123540   -0.3119220   -1.0604850  
C     3.0055180    0.2469130   -0.2598560  
C     2.4094990    1.4079850    0.3749430  
C     1.0726380    1.4847920   -0.0801070  
N     0.8725090    0.4246480   -0.9563040  
C     0.1721710    2.5012180    0.2950020  
C     0.6677340    3.4564620    1.1892580  
O    -0.1527010    4.4362280    1.6494690  
C     2.0033080    3.3942340    1.6577520  
O     2.3256660    4.4076380    2.5355020  
C     2.8741410    2.3933530    1.2636430  
H    -0.0059010    0.2134790   -1.4067520  
H     0.3811740    5.0237070    2.2127700  
H     3.2608560    4.3466930    2.7806440  
H     3.8915530    2.3795290    1.6431860  
H     2.0782730   -1.1885820   -1.6860640  
C    -3.3465950   -0.2803570    0.2007430  
C    -2.0885560    0.2420290    0.4410270  
C    -2.1184670    1.5475450   -0.1403050  
C    -3.5008690    1.6674850   -0.7170040  
N    -4.2053110    0.5846000   -0.5100350  
C    -3.9523070    2.8480930   -1.3882870  
C    -3.0667710    3.8686500   -1.4868590  
O    -3.3277950    5.0316060   -2.0797850  
C    -1.6438590    3.7780960   -0.9442710  
O    -0.9252100    4.7462050   -1.1856890  
C    -1.2073510    2.5708410   -0.2267250  
H    -1.2702380   -0.1919740    0.9941020  
H    -4.9583230    2.9071470   -1.7875330  
H    -2.4854190    5.5428780   -2.0189830  
C    -3.0616830   -2.4446380    1.3039680  
C    -3.7561210   -3.5745440    1.5565620  
C    -5.0747680   -3.4228670    0.9798430  
C    -5.1062790   -2.0809920    0.3507280  
N    -3.8282630   -1.5114130    0.5792450  
C    -6.1870930   -1.5839760   -0.2941120  
C    -7.3948680   -2.4185620   -0.3753410  
O    -8.4074750   -2.0404630   -0.9401280  
C    -7.3761010   -3.8388530    0.2853890  
O    -8.3714270   -4.5417150    0.2249890  
C    -6.1419540   -4.2600670    0.9540960  
H    -3.3918220   -4.4382060    2.0946740  
H    -6.1982210   -0.6033700   -0.7483710  
H    -6.1239890   -5.2437830    1.4132030  
H    -2.0487770   -2.1925120    1.5795000  
C     4.3175180   -0.3091450   -0.1665260  
C     5.4250590    0.0841700    0.5487950  
C     6.4529020   -0.8660510    0.2443550  
C     5.7975660   -1.8251500   -0.7120620  
N     4.5613510   -1.5015340   -0.9485770  
C     6.5140260   -2.9470050   -1.2610010  
C     7.8039340   -3.1069010   -0.8835140  
O     8.5992050   -4.0968070   -1.3053530  
C     8.4929830   -2.1557840    0.0799010  
O     9.6721920   -2.4106510    0.3459610  
C     7.7506320   -1.0305430    0.6215490  
H     5.5240530    0.9332340    1.2087950  
H     6.0233480   -3.6261020   -1.9493600  
H     9.4603170   -3.9303330   -0.8534320  
H     8.2714490   -0.3692940    1.3070100  
