60


C    -0.2348510    2.2060310   -0.0350040  
C     0.9491890    1.4562960   -0.0440300  
C     0.6109140    0.0942620   -0.2062570  
C    -0.8086170    0.0450420   -0.3146940  
N    -1.2822480    1.3202350   -0.2045930  
C    -1.5596630   -1.1457320   -0.4932580  
C    -0.7974720   -2.3134880   -0.5520630  
O    -1.3999030   -3.5140480   -0.7458130  
C     0.6255160   -2.3134940   -0.4509700  
O     1.1491610   -3.5505580   -0.5542000  
C     1.3756000   -1.1249160   -0.2734800  
H     1.9337570    1.8871440   -0.0059860  
H    -2.2461540    1.6213270   -0.2567600  
H    -0.6813060   -4.1753320   -0.7917950  
H     2.1597230   -3.4541200   -0.5046970  
C     2.2849870    5.6943680    1.2597520  
C     1.8663620    4.4159680    1.0678900  
C     0.5225200    4.5275620    0.5166880  
C     0.2897650    5.9879410    0.4578240  
N     1.3244020    6.6694330    0.8778730  
C    -0.9518400    6.5532450   -0.0069490  
C    -1.9393830    5.7031710   -0.3653960  
O    -3.1603570    6.0988490   -0.7781500  
C    -1.7541340    4.2223890   -0.3064250  
O    -2.7381720    3.5317620   -0.5944850  
C    -0.4254790    3.6308420    0.0853750  
H     2.3940340    3.5107220    1.3277470  
H    -1.0791890    7.6297220   -0.0363370  
H    -3.6674160    5.2768130   -0.9432960  
H     3.2305080    6.0293310    1.6693020  
C    -3.7669290   -0.2080480   -1.3222410  
C    -3.0135280   -1.1245080   -0.6398600  
C    -4.0193860   -2.0417140   -0.0583480  
C    -5.3261070   -1.4912830   -0.5233210  
N    -5.1637960   -0.4281720   -1.2644210  
C    -6.5796270   -2.0960220   -0.1608690  
C    -6.5469960   -3.1847720    0.6445590  
O    -7.6347880   -3.8458700    1.0673480  
C    -5.2471250   -3.7509520    1.1475450  
O    -5.2975970   -4.7373450    1.8790620  
C    -3.9714010   -3.1152190    0.7516940  
H    -7.5091830   -1.6721590   -0.5240510  
H    -7.2962050   -4.5768850    1.6298710  
H    -3.0578790   -3.5687060    1.1166410  
H    -3.4066280    0.6252710   -1.9147160  
C     2.8070790   -1.1782110   -0.1571980  
C     3.7549800   -0.2038250    0.0903260  
C     5.0245840   -0.8544610    0.0919800  
C     4.7165670   -2.2983800   -0.1764710  
N     3.4326670   -2.4708650   -0.3147420  
C     5.7387210   -3.2984620   -0.2552400  
C     7.0165050   -2.8817630   -0.0716380  
O     8.0797440   -3.6811670   -0.1122220  
C     7.3715740   -1.4247860    0.2059050  
O     8.5738700   -1.1852550    0.3537170  
C     6.3117260   -0.4395930    0.2774290  
H     3.5990210    0.8457830    0.2731450  
H     5.4900870   -4.3351900   -0.4522570  
H     8.8488720   -3.0840590    0.0570340  
H     6.5908360    0.5900470    0.4757540  
