60


C     0.9908100    1.6629220   -0.1931420  
C    -0.3722440    1.4787480   -0.3121340  
C    -0.6302300    0.0735870   -0.3247190  
C     0.6869350   -0.5905720   -0.2171540  
N     1.6245910    0.4169090   -0.1657320  
C     0.8838730   -1.9538040   -0.2098810  
C    -0.3443550   -2.7627910   -0.0990890  
O    -0.3520830   -3.9382770    0.2232140  
C    -1.7427030   -2.0992280   -0.3618990  
O    -2.7041140   -2.8254620   -0.5340390  
C    -1.8160790   -0.6242150   -0.4180920  
H    -1.1197850    2.2549100   -0.3119160  
H     2.5283520    0.2619060    0.2868840  
C     0.1103810    5.9021370   -1.3477720  
C     0.0174360    4.5489660   -1.2558730  
C     1.2033670    4.1309510   -0.5284670  
C     1.9274100    5.4119450   -0.2711010  
N     1.2775940    6.4426030   -0.7397730  
C     3.1940720    5.4520340    0.4074500  
C     3.7427340    4.2756780    0.7857500  
O     4.9349340    4.1646140    1.3972320  
C     3.0568990    2.9650660    0.5348500  
O     3.6659010    1.9502240    0.8778480  
C     1.6997550    2.9263040   -0.0944630  
H    -0.7522400    3.9178270   -1.6726800  
H     3.6869020    6.4020800    0.5811710  
H     5.0759280    3.2028300    1.5297460  
H    -0.5831920    6.5809710   -1.8299280  
C     4.7291600   -1.2750910    1.9187130  
C     5.4304460   -2.3797620    1.5807000  
C     4.5679740   -3.1155060    0.6630370  
C     3.3205640   -2.2841670    0.5795900  
N     3.4370740   -1.2103520    1.3080900  
C     2.1738370   -2.6644900   -0.2291310  
C     2.3569090   -3.7812920   -1.0041170  
O     1.4599000   -4.2193390   -1.8922410  
C     3.5994210   -4.6251570   -0.9511680  
O     3.6477000   -5.6136620   -1.6817080  
C     4.7074930   -4.2427430   -0.0575270  
H     6.4221810   -2.6682360    1.8996290  
H     1.8370530   -5.0476120   -2.2648380  
H     5.5864940   -4.8797590   -0.0486560  
H     5.0255930   -0.4633890    2.5712330  
C    -3.1867180    0.9966820   -1.6884480  
C    -4.4805710    1.4203590   -1.7183440  
C    -5.1953410    0.6921680   -0.7027070  
C    -4.2739880   -0.1913120   -0.0901210  
N    -3.0282870    0.0073120   -0.7054850  
C    -4.6297830   -1.0128280    0.9844850  
C    -5.9444730   -0.9621220    1.4240510  
O    -6.3393760   -1.7528150    2.4623610  
C    -6.8832860   -0.0958370    0.8077220  
O    -8.1480750   -0.1570230    1.3551380  
C    -6.5226960    0.7297270   -0.2434050  
H    -4.8911030    2.1524440   -2.4006900  
H    -3.9402970   -1.6981730    1.4597560  
H    -7.2879970   -1.5931780    2.6051380  
H    -8.7453100    0.4226640    0.8596170  
H    -7.2509540    1.4014040   -0.6933910  
H    -2.3488000    1.2537960   -2.3188090  
