62


C    -1.0309030   -1.0422350    0.5873710  
C    -0.6213720    0.2684140    0.4460490  
C    -1.8265630    1.0377630    0.2252360  
C    -2.9111020    0.1267170    0.2215070  
N    -2.3955610   -1.1406250    0.4160290  
C    -4.2539740    0.5162140   -0.0058460  
C    -4.4653470    1.8983460   -0.1230780  
O    -5.7277720    2.3959650   -0.2171700  
C    -3.3827500    2.8153810   -0.1207490  
O    -3.7770420    4.1333330   -0.2777000  
C    -2.0739400    2.4075420    0.0224710  
H    -2.9761230   -1.8564670    0.8462850  
H    -5.6445770    3.3630130   -0.2933170  
H    -3.0161830    4.7143360   -0.1314260  
H    -1.2620990    3.1284710    0.0286340  
H    -0.4471530   -1.9162750    0.8436560  
C     2.8578060   -1.3093650   -1.6949110  
C     3.8051610   -0.4460530   -1.1906470  
C     3.1390790    0.4550700   -0.2867510  
C     1.7756870    0.0765940   -0.2831860  
N     1.6381640   -0.9928390   -1.1482580  
C     0.7763060    0.7326890    0.4701370  
C     1.2219970    1.8158240    1.2298230  
O     0.3428220    2.5152560    2.0078630  
C     2.5877400    2.2109470    1.2323800  
O     2.8423690    3.3023810    2.0426910  
C     3.5510100    1.5517970    0.4948450  
H     0.7506490   -1.4148490   -1.3783500  
H     0.8680590    3.1609170    2.5131770  
H     3.7983140    3.3951200    2.1697800  
H     4.5887620    1.8742190    0.5154500  
H     2.9709960   -2.1269730   -2.3922090  
C     5.6875560   -0.1513180   -2.8075760  
C     7.0432470   -0.2192810   -2.8336430  
C     7.4791430   -0.5616270   -1.4977650  
C     6.2430020   -0.6968630   -0.6854870  
N     5.1755720   -0.4344680   -1.5381730  
C     6.2237190   -1.0231070    0.6324300  
C     7.4979840   -1.2449470    1.3095470  
O     7.5818750   -1.5340140    2.4943530  
C     8.8215560   -1.1000670    0.4701160  
O     9.8956210   -1.2796550    1.0245000  
C     8.7080500   -0.7538860   -0.9475000  
H     7.6789850   -0.0433540   -3.6892820  
H     5.3069680   -1.1229950    1.2031670  
H     9.6268980   -0.6626960   -1.5190890  
H     4.9916540    0.0884460   -3.6007090  
C    -5.5284590   -3.0516440    2.3370650  
C    -6.7350270   -3.3221020    1.7929230  
C    -6.8829810   -2.3671890    0.7011870  
C    -5.6333060   -1.5334660    0.7585270  
N    -4.8431580   -1.9668590    1.7030580  
C    -5.3873790   -0.4253590   -0.1552110  
C    -6.2941710   -0.3123540   -1.1774730  
O    -6.1764110    0.5602800   -2.1847220  
C    -7.5334530   -1.1556760   -1.2788070  
O    -8.2866970   -0.9528300   -2.2311940  
C    -7.8000720   -2.1919940   -0.2666490  
H    -7.4438130   -4.0870870    2.0774140  
H    -6.9767480    0.4242080   -2.7399030  
H    -8.7058180   -2.7803380   -0.3764370  
H    -5.0414670   -3.5484840    3.1675870  
