62


C     1.4421290    0.1835160   -1.2000990  
C     2.7850610    0.1899780   -0.8912230  
C     2.9957810    1.3369910   -0.0295920  
C     1.7451440    1.9781270    0.1353270  
N     0.7961000    1.2522590   -0.5913130  
C     1.5790840    3.1194780    0.9260670  
C     2.7062660    3.6404810    1.5419560  
O     2.5993550    4.7528080    2.3197820  
C     3.9761930    3.0304220    1.3630870  
O     5.0016910    3.6737690    2.0238860  
C     4.1320360    1.8962830    0.5877060  
H     0.6269370    3.6213620    1.0438740  
H     3.4940030    4.9826380    2.6249520  
H     5.8470310    3.2546010    1.8044860  
H     5.1165250    1.4552900    0.4543530  
H     0.8896140   -0.4953970   -1.8343610  
C    -2.4673650   -1.4183160    0.3634430  
C    -3.5312030   -0.6315890    0.0225540  
C    -2.9646900    0.6413730   -0.4242150  
C    -1.4943200    0.5033700   -0.3198780  
N    -1.2577570   -0.7661030    0.1562510  
C    -0.5955610    1.4804150   -0.6442700  
C    -1.1261230    2.7612760   -1.1434340  
O    -0.4138010    3.6750440   -1.5190790  
C    -2.6902070    2.9411900   -1.1928280  
O    -3.1338710    4.0281990   -1.5235260  
C    -3.5411560    1.8059970   -0.8354580  
H    -4.6161940    1.9445710   -0.8835510  
H    -2.4775010   -2.4305980    0.7444400  
H    -0.3420240   -1.1338940    0.3666260  
C    -5.9416510   -2.3574360    3.3888280  
C    -4.9313500   -1.8377980    2.6213850  
C    -5.4857690   -1.5486270    1.3278330  
C    -6.8564520   -1.9145210    1.3773230  
N    -7.1027460   -2.4095330    2.6417480  
C    -7.7279460   -1.7488150    0.2947610  
C    -7.2020370   -1.2040000   -0.8647750  
O    -8.0032570   -1.0281160   -1.9546740  
C    -5.8326920   -0.8380360   -0.9435980  
O    -5.4748450   -0.3467420   -2.1843900  
C    -4.9569070   -0.9949480    0.1303520  
H    -3.9161590   -1.6654090    2.9494460  
H    -7.9965340   -2.7359630    2.9738480  
H    -8.7768700   -2.0244050    0.3314410  
H    -7.4524740   -0.6421920   -2.6576990  
H    -4.5343920   -0.1121760   -2.1923850  
H    -5.9332810   -2.6961710    4.4151660  
C     3.8424730   -1.3116050   -2.6427540  
C     3.7564910   -0.7674930   -1.3960600  
C     4.8322040   -1.4482220   -0.6378390  
C     5.4605640   -2.3651230   -1.6318200  
N     4.8729060   -2.2823570   -2.7928360  
C     6.5634390   -3.2200980   -1.2772650  
C     7.0020280   -3.1949940    0.0046320  
O     8.0184400   -3.9427360    0.4711380  
C     6.3672770   -2.3091540    1.0349060  
O     6.8177400   -2.3383900    2.1800890  
C     5.2391660   -1.4339170    0.6452850  
H     7.0086290   -3.8666020   -2.0255750  
H     8.0969780   -3.7105990    1.4219740  
H     4.8024550   -0.8144200    1.4224250  
H     3.2326800   -1.0664320   -3.5042330  
