58


C     0.2177500    1.2554440   -0.2380180  
C     1.3876300    0.5046710   -0.3030080  
C     2.4987630    1.3887280   -0.2290480  
C     1.9313030    2.7441810   -0.0865520  
N     0.5668140    2.6003550   -0.1348450  
C     2.6556490    3.8871220    0.0664180  
C     4.0967680    3.7751210    0.1337880  
O     4.8532570    4.7241580    0.2739230  
C     4.7400610    2.3398030    0.0443290  
O     5.9462980    2.2568560    0.1970630  
C     3.8757420    1.1555090   -0.2342770  
H     1.4382210   -0.5707250   -0.3059570  
H     2.2042480    4.8699100    0.1530920  
H    -0.1251160    3.3131040    0.0594250  
C    -1.8845480   -2.6092090   -1.0831690  
C    -0.9281260   -1.6431190   -1.0599110  
C    -1.5851700   -0.4561360   -0.5598280  
C    -3.0045750   -0.8768470   -0.3686890  
N    -3.1491430   -2.1517870   -0.6494410  
C    -4.0553430    0.0313430    0.0609700  
C    -3.6188830    1.2815740    0.4293720  
O    -4.4249730    2.2023430    0.9708970  
C    -2.2189010    1.7457780    0.2490830  
O    -1.9918300    2.9330600    0.5223270  
C    -1.1534150    0.8063020   -0.2181240  
H     0.0947360   -1.7423480   -1.3870900  
H    -3.8939200    3.0239860    1.0448630  
H    -1.7808980   -3.6406900   -1.3974460  
C    -6.4311960   -3.6009880    1.1371570  
C    -7.6800800   -3.0769780    1.0367980  
C    -7.5320900   -1.7122860    0.5829090  
C    -6.0671020   -1.4805600    0.4581930  
N    -5.4569130   -2.6530720    0.8416020  
C    -5.4911100   -0.2915750    0.0737910  
C    -6.4420220    0.7217000   -0.4583740  
O    -6.0877630    1.6691030   -1.1366450  
C    -7.9784260    0.5421330   -0.1986360  
O    -8.7232290    1.4785470   -0.4427550  
C    -8.4453540   -0.7440250    0.3036530  
H    -8.6129190   -3.5804000    1.2450660  
H    -9.5135190   -0.8845220    0.4382420  
H    -6.1304890   -4.6021250    1.4179360  
H    -4.5209580   -2.8554690    0.4762760  
C     3.8803520   -1.0697630   -1.3979560  
C     4.4430830   -0.1280770   -0.5521870  
C     5.7003050   -0.7868360   -0.1018450  
C     5.6698460   -2.1146620   -0.7740190  
N     4.6064320   -2.2475810   -1.5382870  
C     6.6931880   -3.0982430   -0.5903000  
C     7.7175590   -2.7958270    0.2478790  
O     8.7384900   -3.6172220    0.5189920  
C     7.7762770   -1.4743270    0.9591490  
O     8.7244600   -1.2740930    1.7145480  
C     6.7090860   -0.4716200    0.7339970  
H     6.6281780   -4.0493820   -1.1067040  
H     9.3095510   -3.1285080    1.1530120  
H     6.8108100    0.4806710    1.2369710  
H     2.9819540   -0.9409270   -1.9889450  
