58


C     1.2237800    2.8581790   -0.6992140  
C     2.1441480    3.0376900   -1.7023310  
C     3.0026870    1.8858910   -1.7437120  
C     2.5223760    0.9802220   -0.6765050  
N     1.3982890    1.5823870   -0.1219670  
C     3.1118230   -0.1951470   -0.3181970  
C     4.2833360   -0.6230970   -1.1209820  
O     4.8216300   -1.7028190   -0.9604370  
C     4.8001660    0.3212280   -2.2647910  
O     5.7846140   -0.0196230   -2.9025590  
C     4.0790870    1.5650870   -2.5166100  
H     2.1858870    3.8830410   -2.3744400  
H     4.4520710    2.2163710   -3.3009470  
H     1.1313610    1.3890530    0.8346200  
C    -0.6850750   -2.3701980    0.3488030  
C    -0.3682060   -2.9558140    1.5524210  
C     0.9472870   -2.5173190    1.9349550  
C     1.4135590   -1.6200410    0.8579360  
N     0.3631840   -1.5102890   -0.0419980  
C     2.6500510   -1.0488170    0.7916760  
C     3.5615710   -1.3067740    1.9318720  
O     4.6439900   -0.7613670    2.0405340  
C     3.0824480   -2.2639950    3.0821460  
O     3.8470880   -2.5089370    4.0010340  
C     1.7303450   -2.8199020    3.0076940  
H    -1.0029320   -3.6232530    2.1109530  
H     1.4074610   -3.4832820    3.8040250  
H     0.5313310   -1.2808350   -1.0122050  
C     0.1170040    5.1011120   -0.3706510  
C     0.1827920    3.7377160   -0.2387040  
C    -1.0593750    3.3865780    0.4782780  
C    -1.7373890    4.7019840    0.6865780  
N    -1.0380670    5.6864380    0.1802030  
C    -3.0049290    4.8053590    1.3503390  
C    -3.5914020    3.6599700    1.7799740  
O    -4.7698370    3.6118960    2.4125460  
C    -2.9469920    2.3165600    1.5656980  
O    -3.5382740    1.3215620    1.9744880  
C    -1.6374830    2.2381930    0.8782130  
H    -3.4658580    5.7768470    1.4887840  
H    -4.9427700    2.6620940    2.5933600  
H    -1.2282440    1.2451680    0.7231640  
H     0.8606780    5.7451000   -0.8254290  
C    -2.4921150   -0.0957480   -3.0822220  
C    -1.6580660   -0.4329730   -2.0623570  
C    -2.2174570   -1.6525100   -1.4948340  
C    -3.4345730   -1.8984340   -2.3360850  
N    -3.5787510   -0.9913350   -3.2624650  
C    -4.3121100   -3.0110480   -2.1080590  
C    -4.0246770   -3.8380100   -1.0776920  
O    -4.7688680   -4.9012120   -0.7430910  
C    -2.8180740   -3.6339040   -0.2004970  
O    -2.6639420   -4.4441960    0.7085030  
C    -1.8765650   -2.4937900   -0.4657980  
H    -0.8023040    0.1295470   -1.7213320  
H    -5.1787010   -3.1569030   -2.7429510  
H    -4.3258070   -5.3078820    0.0331090  
H    -2.4138090    0.7625890   -3.7393210  
