58


C     2.0845110    3.6828750   -1.5947010  
C     3.1072010    2.8543580   -1.2528160  
C     2.5611500    1.8198030   -0.4051960  
C     1.1220770    2.1115060   -0.2854520  
N     0.9028530    3.2704450   -0.9930380  
C     0.1822720    1.3224290    0.3423100  
C     0.6969860    0.1176310    1.0262060  
O     0.0065130   -0.6121700    1.7117110  
C     2.2387730   -0.1896870    0.9618620  
O     2.6544220   -1.1138260    1.6306610  
C     3.1324330    0.7044830    0.1734200  
H     4.1317070    2.9382290   -1.5787670  
H     2.0903660    4.5598030   -2.2279330  
H    -0.0225260    3.6117230   -1.2138730  
C    -1.2298750    1.6431010    0.3559660  
C    -1.8281930    2.8765950    0.4607260  
C    -3.2491090    2.6244730    0.4514100  
C    -3.3563490    1.1382090    0.2735540  
N    -2.1861010    0.5778320    0.2230830  
C    -4.6422620    0.4669930    0.1695080  
C    -5.7399780    1.2601290    0.3428160  
O    -6.9918530    0.7970160    0.3665640  
C    -5.6554430    2.7535100    0.5564290  
O    -6.7203870    3.3578360    0.6882100  
C    -4.3460990    3.4046830    0.5877330  
H    -1.3533020    3.8277890    0.6623160  
H    -7.5610100    1.5916850    0.4881120  
H    -4.3231430    4.4813250    0.7242300  
C    -3.0195490   -3.3753650    1.8902440  
C    -3.2082980   -2.0550860    1.6695640  
C    -4.1361420   -1.9840960    0.5440020  
C    -4.4045980   -3.4229690    0.2108100  
N    -3.7649950   -4.2272010    1.0069170  
C    -5.2943410   -3.8093580   -0.8537140  
C    -5.8777770   -2.8239640   -1.5704320  
O    -6.7057650   -3.0311160   -2.6099900  
C    -5.6215340   -1.3713670   -1.2780330  
O    -6.1226580   -0.5528400   -2.0450710  
C    -4.7617420   -0.9765130   -0.1182650  
H    -2.7209750   -1.2256960    2.1570030  
H    -5.4645090   -4.8594170   -1.0638910  
H    -6.9331040   -2.1340320   -2.9392740  
H    -2.3794430   -3.8392810    2.6307290  
C     4.5442810    0.3894780    0.0674290  
C     5.6075670    1.2564360    0.0790930  
C     6.7882510    0.4305300   -0.0437310  
C     6.2488260   -0.9630030   -0.1471650  
N     4.9518400   -0.9866750   -0.0769240  
C     7.1232210   -2.0971630   -0.3104340  
C     8.4563900   -1.8646880   -0.3441390  
O     9.3858840   -2.8211900   -0.4816600  
C     9.0291230   -0.4725290   -0.2260860  
O    10.2536430   -0.3579760   -0.2702450  
C     8.1186110    0.6722650   -0.0747380  
H     5.5862110    2.3261910    0.2319520  
H     6.7075320   -3.0954040   -0.3886770  
H    10.2486950   -2.3501060   -0.4691860  
H     8.5676350    1.6583030   -0.0035360  
