62


C     1.3402240    2.3281120   -0.0725080  
C     1.7463600    0.9894330    0.0218180  
C     3.0981010    0.9092740   -0.3614620  
C     3.5191220    2.2450950   -0.6504940  
N     2.4328400    3.0721030   -0.4781220  
C     4.8281960    2.5518380   -1.0081510  
C     5.7282210    1.4902820   -1.0493290  
O     7.0239960    1.7171110   -1.3690900  
C     5.3422290    0.1473840   -0.7628710  
O     6.3753660   -0.7451360   -0.8749730  
C     4.0201390   -0.1842970   -0.4529680  
H     1.1343490    0.1830130    0.3819320  
H     2.4028020    4.0840240   -0.4990260  
H     5.1669000    3.5597140   -1.2227200  
H     7.4609650    0.8437780   -1.2989820  
H     6.3127230   -1.3733480   -0.0988400  
C    -2.7310620    0.5309330    0.1794440  
C    -1.3934060    0.7800650   -0.0604400  
C    -1.1167490    2.1411470    0.2543710  
C    -2.3965970    2.7279610    0.6860020  
N    -3.3397700    1.7157780    0.6057840  
C    -2.5765220    4.0189090    1.0770200  
C    -1.4405020    4.9191280    0.9978080  
O    -1.4869560    6.0993930    1.3127590  
C    -0.0789870    4.3498090    0.4522460  
O     0.8308540    5.1515040    0.2617970  
C     0.0501410    2.9026190    0.2013560  
H    -0.7094570    0.0783810   -0.5102110  
H    -3.5275650    4.4152700    1.4185600  
H    -4.2217470    1.7416520    1.0947520  
C    -2.8878120   -1.9545200   -0.0162510  
C    -3.4690360   -0.6927710    0.0303170  
C    -4.9011040   -0.8962200   -0.0898170  
C    -5.1087370   -2.2936460   -0.1903000  
N    -3.8630310   -2.9001140   -0.1443920  
C    -6.3745480   -2.8709960   -0.3308680  
C    -7.4646090   -2.0159800   -0.3806550  
O    -8.7197710   -2.5241500   -0.5164830  
C    -7.2794250   -0.6096360   -0.3061550  
O    -8.4527740    0.1081580   -0.3933240  
C    -6.0230690   -0.0460220   -0.1659640  
H    -3.6959230   -3.8943850   -0.1884350  
H    -6.5281060   -3.9421300   -0.4101030  
H    -9.3371350   -1.7732510   -0.5578590  
H    -8.2606210    1.0574820   -0.4122870  
H    -5.9177790    1.0360890   -0.1571970  
H    -1.8470090   -2.2411170    0.0489550  
C     5.8370710   -3.4832990    1.8661790  
C     4.8170420   -4.3713450    1.9248260  
C     3.7520650   -3.7905780    1.1197250  
C     4.3043710   -2.4877050    0.6483910  
N     5.5285760   -2.3298590    1.0890080  
C     3.5511840   -1.5599320   -0.1830530  
C     2.3452850   -2.0514550   -0.6308310  
O     1.5483800   -1.4008030   -1.5056200  
C     1.7565900   -3.3341800   -0.1636720  
O     0.6176410   -3.6303040   -0.5656910  
C     2.5233800   -4.2008350    0.7392770  
H     4.7867320   -5.3187950    2.4444410  
H     0.7856770   -2.0087540   -1.6361980  
H     2.0686910   -5.1390710    1.0423750  
H     6.8169820   -3.5515340    2.3219590  
