62


C     1.5596980   -0.5500240   -0.7915890  
C     0.6758240    0.3793030   -0.2970750  
C     1.4777010    1.5269270    0.0921170  
C     2.8286870    1.2218570   -0.2035390  
N     2.8634120   -0.0701550   -0.7344310  
C     3.8698260    2.1327510    0.0104020  
C     3.5469640    3.3566850    0.5788490  
O     4.5274660    4.2744490    0.8097090  
C     2.2043460    3.6622970    0.9214490  
O     2.0428180    4.9088520    1.4891470  
C     1.1739990    2.7701690    0.6838130  
H     4.9002260    1.9241680   -0.2521720  
H     4.1066060    5.0540400    1.2117470  
H     1.1093760    5.0485910    1.7081410  
H     0.1506820    3.0274430    0.9436880  
H     1.3719760   -1.5428700   -1.1729760  
C    -1.8460980   -2.8888120    1.4615680  
C    -0.7960690   -2.1193300    1.0358230  
C    -1.3573030   -0.9583980    0.4028190  
C    -2.7684810   -1.0980200    0.4665860  
N    -3.0393680   -2.3013180    1.0851510  
C    -3.6709970   -0.1457960   -0.0648800  
C    -3.0750310    1.0201200   -0.5688380  
O    -3.8493250    2.0481130   -1.0140410  
C    -1.6692120    1.1750790   -0.6274630  
O    -1.2754000    2.3735750   -1.2020380  
C    -0.7815160    0.2027610   -0.1748180  
H     0.2533730   -2.3411840    1.1658260  
H    -3.9238700   -2.4370350    1.5649220  
H    -3.2453760    2.6980890   -1.4152850  
H    -0.3243540    2.3335160   -1.3954080  
H    -1.8466840   -3.8245640    2.0032510  
C    -6.7145660   -1.5336330    2.8717480  
C    -7.8676240   -1.2991450    2.2076640  
C    -7.4583610   -0.8185110    0.8934240  
C    -5.9568170   -0.7895710    0.9544800  
N    -5.5411220   -1.2344460    2.1093320  
C    -5.1358780   -0.3364720   -0.1610780  
C    -5.8245530   -0.0970100   -1.3225710  
O    -5.2394120    0.2121900   -2.4861690  
C    -7.3211860   -0.1518610   -1.4199770  
O    -7.8341700    0.0964060   -2.5119070  
C    -8.1205880   -0.5119590   -0.2361110  
H    -8.8822560   -1.4457050    2.5506500  
H    -5.9799760    0.3394440   -3.1206700  
H    -9.1999230   -0.5416930   -0.3494590  
H    -6.5871350   -1.9113620    3.8792340  
C     4.0906840   -1.4618040   -2.3769520  
C     3.9806690   -0.7600860   -1.2178320  
C     5.2396810   -1.0159910   -0.4895240  
C     6.0051090   -1.8915140   -1.4216680  
N     5.3289460   -2.1463270   -2.5086990  
C     7.3219980   -2.3676800   -1.0902840  
C     7.8301990   -2.0411700    0.1229010  
O     9.0391410   -2.4291700    0.5637100  
C     7.0600120   -1.2018760    1.1002720  
O     7.5828170   -0.9506590    2.1846320  
C     5.7183310   -0.6976100    0.7270830  
H     7.8662340   -2.9857550   -1.7957900  
H     9.1250650   -2.0457880    1.4637360  
H     5.2001430   -0.0793500    1.4531510  
H     3.3546710   -1.5443580   -3.1671850  
