60


C    -0.6876000   -1.9975840   -0.8642300  
C     0.6593730   -1.7644120   -0.9908670  
C     0.8792210   -0.3940960   -0.6306490  
C    -0.3785340    0.1504380   -0.2682350  
N    -1.3193280   -0.8498970   -0.4152050  
C    -0.5749960    1.4863100    0.1493320  
C     0.5890360    2.2655950    0.1899130  
O     0.5152340    3.5740760    0.5670750  
C     1.8556320    1.7339250   -0.1445560  
O     2.8803330    2.6587880   -0.0326470  
C     2.0476390    0.4112850   -0.5476890  
H     1.4028120   -2.4985860   -1.2643200  
H    -2.3189990   -0.7091250   -0.3817600  
H     1.4179330    3.9365960    0.5092990  
H     3.6279260    2.3813230   -0.5852000  
C    -1.3315090   -3.8855810   -2.3405510  
C    -2.1078760   -4.9946730   -2.3068670  
C    -2.7645400   -5.0268550   -1.0164370  
C    -2.2904420   -3.8286200   -0.2812070  
N    -1.4247500   -3.1538450   -1.1463010  
C    -2.6509850   -3.5171300    0.9885320  
C    -3.5842790   -4.4051470    1.6824420  
O    -3.9567690   -4.2079050    2.8280150  
C    -4.1232720   -5.6641970    0.9113240  
O    -4.9166890   -6.4056820    1.4684200  
C    -3.6401160   -5.8992560   -0.4525530  
H    -2.2243260   -5.7185320   -3.1003580  
H    -2.2717680   -2.6537440    1.5243020  
H    -4.0011460   -6.7832550   -0.9694040  
H    -0.6960490   -3.5051210   -3.1287240  
C    -2.8750420    1.3441680    1.2181350  
C    -1.9021050    1.9908980    0.5091570  
C    -2.5391310    3.2741530    0.1314610  
C    -3.9050900    3.1935470    0.7248340  
N    -4.0876900    2.0677610    1.3586240  
C    -4.8625220    4.2580790    0.5760660  
C    -4.4959240    5.3433390   -0.1465930  
O    -5.2865680    6.4049600   -0.3724750  
C    -3.1348460    5.4440740   -0.7755210  
O    -2.8742710    6.4572440   -1.4220320  
C    -2.1651480    4.3408170   -0.5983690  
H    -5.8435960    4.1692990    1.0292770  
H    -4.7498780    7.0191770   -0.9198850  
H    -1.1862760    4.4645370   -1.0456450  
H    -2.7985080    0.3776790    1.7037240  
C     3.7202010   -0.9045060   -1.9495330  
C     3.3732510   -0.1121230   -0.8925260  
C     4.6323130    0.0090000   -0.1195590  
C     5.6241070   -0.7846360   -0.9054900  
N     5.0806710   -1.3068600   -1.9709680  
C     6.9910860   -0.9219870   -0.4797250  
C     7.3566190   -0.3307050    0.6836240  
O     8.5935670   -0.3842610    1.2005640  
C     6.3757790    0.4534420    1.5105110  
O     6.7794660    0.9624080    2.5534180  
C     4.9773370    0.5941350    1.0442250  
H     7.6886280   -1.4971580   -1.0783990  
H     8.5533290    0.1261220    2.0388370  
H     4.3045190    1.1752070    1.6664400  
H     3.0728410   -1.2317480   -2.7543250  
