62


C    -1.0844080   -2.0398890   -0.6436470  
C    -1.7523970   -3.1389820   -1.1357940  
C    -3.1456960   -2.9661120   -0.8536970  
C    -3.2911010   -1.7219210   -0.1868340  
N    -2.0258190   -1.1683300   -0.0942570  
C    -4.5351950   -1.2306020    0.2826770  
C    -5.6371200   -2.0786580    0.0641680  
O    -6.8751390   -1.7125020    0.5017520  
C    -5.5050120   -3.3080140   -0.6254950  
O    -6.7001930   -3.9865020   -0.7757540  
C    -4.2849690   -3.7589780   -1.0897720  
H    -1.2979150   -3.9577080   -1.6765220  
H    -1.7751690   -0.4188490    0.5332870  
H    -7.4992200   -2.3923490    0.1903560  
H    -6.5555830   -4.7896750   -1.2971930  
H    -4.2065030   -4.7134750   -1.6058110  
C     1.3804510   -2.5726240   -0.4381750  
C     0.3313550   -1.7032720   -0.6429670  
C     0.9201960   -0.4012910   -0.8757310  
C     2.3241090   -0.5608050   -0.7927830  
N     2.5774920   -1.8962910   -0.5500550  
C     3.2099370    0.5182860   -0.9874480  
C     2.6523350    1.7628250   -1.2812560  
O     3.4608520    2.8415830   -1.4791010  
C     1.2466860    1.9198260   -1.4033950  
O     0.8583940    3.1933730   -1.7304410  
C     0.3850440    0.8565670   -1.2086790  
H     3.4803780   -2.2765230   -0.3085000  
H     2.8707030    3.5988850   -1.6495510  
H    -0.1092670    3.2900910   -1.6261860  
H    -0.6803940    0.9950160   -1.3438850  
H     1.3620700   -3.6268390   -0.2021940  
C     5.5121420    0.7319490   -1.9402390  
C     6.7932040    0.4360300   -1.6131930  
C     6.7750150   -0.1621880   -0.2965040  
C     5.3500650   -0.1841730    0.1252200  
N     4.6191740    0.3576670   -0.9248470  
C     4.9194580   -0.6493580    1.3292580  
C     5.9076180   -1.1804230    2.2649810  
O     5.6107570   -1.6187290    3.3664430  
C     7.4171220   -1.1886080    1.8262370  
O     8.2531460   -1.6484280    2.5886070  
C     7.7577770   -0.6382490    0.5124350  
H     7.6682090    0.6182270   -2.2200520  
H     3.8824750   -0.6155870    1.6447730  
H     8.8057590   -0.6263360    0.2281780  
H     5.1155020    1.1964900   -2.8314210  
C    -5.5526850    0.3663890    1.9892180  
C    -4.7051320    0.0510650    0.9671300  
C    -4.0354640    1.3444800    0.6597640  
C    -4.5965590    2.2990460    1.6537530  
N    -5.4817350    1.7220620    2.4164210  
C    -4.1980980    3.6810290    1.6861530  
C    -3.3034170    4.1142040    0.7631990  
O    -2.8449520    5.3797130    0.6990480  
C    -2.7400950    3.1859170   -0.2556980  
O    -1.8771030    3.6293800   -1.0281780  
C    -3.1962770    1.7810390   -0.2999580  
H    -4.6179910    4.3457870    2.4330300  
H    -2.2044770    5.3963000   -0.0418740  
H    -2.8136200    1.1559920   -1.0988000  
H    -6.2481670   -0.2953420    2.4849390  
