60


C     1.8650170   -3.3990250    1.6816440  
C     0.7586400   -2.6989880    1.2821490  
C     1.2166360   -1.5860010    0.5011350  
C     2.6318840   -1.6812880    0.4457780  
N     2.9965120   -2.7946740    1.1697860  
C     3.4673220   -0.7668930   -0.2387580  
C     2.7907810    0.2598310   -0.9073540  
O     3.4846330    1.1861820   -1.6277780  
C     1.3787120    0.3615980   -0.8990340  
O     0.9010800    1.4460570   -1.6093330  
C     0.5615800   -0.5250260   -0.1857630  
H    -0.2629610   -2.9380700    1.5327290  
H     3.9492530   -3.0471200    1.3818950  
H     2.8021240    1.7606080   -2.0282530  
H     0.1935490    1.1273320   -2.2095220  
H     1.9455240   -4.2897230    2.2883870  
C    -2.3010180   -0.3677530    3.1734290  
C    -3.4841960   -0.1996910    2.5408640  
C    -3.1506990   -0.1436210    1.1209940  
C    -1.6649770   -0.3345150    1.0851610  
N    -1.1817700   -0.4525310    2.2851110  
C    -0.9039010   -0.3520580   -0.1668140  
C    -1.6520120   -0.1287890   -1.2851960  
O    -1.1141620   -0.0582750   -2.5363490  
C    -3.1219030    0.0746520   -1.2886400  
O    -3.6653990    0.3043120   -2.3705300  
C    -3.8810790    0.0297350   -0.0058230  
H    -4.4691150   -0.1045020    2.9743960  
H    -1.8828970    0.1059810   -3.1310790  
H    -2.1162120   -0.4465040    4.2378150  
C    -6.8287220    2.9300850    1.7324250  
C    -5.6615220    2.3046670    1.4471880  
C    -6.0320350    1.1886850    0.5846750  
C    -7.5217180    1.3142950    0.4502240  
N    -7.9775010    2.3308280    1.1230930  
C    -8.2913300    0.4007590   -0.3519440  
C    -7.6275570   -0.5892980   -0.9925700  
O    -8.2183460   -1.5160350   -1.7612080  
C    -6.1369750   -0.7581860   -0.8685770  
O    -5.6290070   -1.7303530   -1.4174890  
C    -5.3426420    0.2133620   -0.0579400  
H    -4.6661940    2.5637640    1.7775110  
H    -9.3666310    0.5178530   -0.4265090  
H    -7.4973140   -2.1081130   -2.0678670  
H    -6.9763340    3.8094820    2.3480970  
C     5.6301650   -2.0927840   -0.3760140  
C     4.9210470   -0.9291740   -0.2711160  
C     5.9718200    0.1068940   -0.1241380  
C     7.2500920   -0.6570390   -0.1694000  
N     7.0397750   -1.9360760   -0.3230410  
C     8.5286180   -0.0062350   -0.0494480  
C     8.5416340    1.3360500    0.1306250  
O     9.6579970    2.0725780    0.2647420  
C     7.2691920    2.1305550    0.2005910  
O     7.3607760    3.3460010    0.3693290  
C     5.9685670    1.4394370    0.0630210  
H     9.4399770   -0.5921520   -0.0953060  
H     9.3450270    2.9969260    0.3785800  
H     5.0745010    2.0506790    0.0891270  
H     5.2314850   -3.0884670   -0.5339700  
