60


C     0.4044870    1.7983830    0.2457650  
C     1.6909570    1.3204280    0.1274330  
C     1.6191230   -0.0999830   -0.0227880  
C     0.2440740   -0.4425770   -0.0181640  
N    -0.4719430    0.7235880    0.1281520  
C    -0.2485640   -1.7672760   -0.1175230  
C     0.7358480   -2.7582520   -0.2823420  
O     0.3955560   -4.0505200   -0.4620910  
C     2.1175170   -2.4301680   -0.3407410  
O     2.9349560   -3.5303410   -0.5041970  
C     2.5945300   -1.1250340   -0.1868550  
H     2.5831320    1.9273440    0.1345770  
H    -1.4523280    0.7469140    0.3698730  
H     1.2414130   -4.5293970   -0.5710870  
H     3.5487180   -3.3473860   -1.2465390  
C     0.5420240    4.1106610    1.2222530  
C    -0.0747680    3.1515610    0.4696900  
C    -1.2841740    3.7699120   -0.0709820  
C    -1.3081860    5.1633700    0.4420230  
N    -0.1603630    5.3092650    1.1949680  
C    -2.2891760    6.0634130    0.1784090  
C    -3.3978980    5.6536680   -0.6786590  
O    -4.3278500    6.3912800   -0.9658990  
C    -3.3783010    4.1930910   -1.2599780  
O    -4.2880270    3.8309270   -1.9885660  
C    -2.2607030    3.3141550   -0.8981490  
H    -2.2876510    7.0779370    0.5651300  
H    -2.2514990    2.3173320   -1.3269100  
H     1.4532070    4.0269950    1.7990900  
H     0.0726550    6.1286650    1.7337450  
C     5.1849360    1.1029540    2.6314510  
C     6.3990030    0.9985800    2.0486000  
C     6.1719980    0.2154540    0.8365560  
C     4.6978650   -0.0562530    0.8442310  
N     4.1351510    0.4585070    1.8952970  
C     4.0449870   -0.8427490   -0.2078740  
C     4.8909210   -1.3374710   -1.1558210  
O     4.4751250   -2.1186790   -2.1906440  
C     6.3588780   -1.0802730   -1.1903750  
O     7.0031420   -1.5680770   -2.1214060  
C     6.9751190   -0.2620290   -0.1312080  
H     7.3482090    1.3818470    2.3964760  
H     5.2921020   -2.2989550   -2.7129940  
H     8.0477530   -0.1020140   -0.1825350  
H     4.9273570    1.5967300    3.5605790  
C    -1.6698320   -2.0641650   -0.0607150  
C    -2.7155030   -1.2978630   -0.5179470  
C    -3.9162700   -2.0232080   -0.1809010  
C    -3.4136930   -3.2455900    0.5274040  
N    -2.1160480   -3.2723030    0.5894140  
C    -4.3192650   -4.2352260    1.0549180  
C    -5.6441740   -4.0357840    0.8659280  
O    -6.6042000   -4.8700640    1.2903150  
C    -6.1788490   -2.8209360    0.1381370  
O    -7.4026640   -2.7364100    0.0213390  
C    -5.2416800   -1.8195650   -0.3754290  
H    -2.6655250   -0.3964980   -1.1131010  
H    -3.9315380   -5.1059900    1.5716430  
H    -7.4478160   -4.4526680    1.0016030  
H    -5.6614560   -0.9565530   -0.8832570  
