60


C     1.1768190   -0.2424130   -1.0066130  
C     0.3567470    0.6384860   -0.3440400  
C     1.2276050    1.5995190    0.3031800  
C     2.5590690    1.2376670   -0.0112630  
N     2.5112720    0.0897700   -0.8083700  
C     3.6635650    1.9831490    0.4182340  
C     3.4191410    3.0914890    1.2158080  
O     4.4604610    3.8497120    1.6576050  
C     2.0918420    3.4463310    1.5730200  
O     2.0110350    4.5604070    2.3814340  
C     1.0030190    2.7169930    1.1300660  
H     4.6829660    1.7408990    0.1420220  
H     4.0849660    4.5919340    2.1627420  
H     1.0876450    4.8437490    2.4593260  
H    -0.0049420    3.0118330    1.4096970  
H     0.9240080   -1.0997770   -1.6136040  
C    -1.8327320   -0.5726990   -0.0515710  
C    -1.1014310    0.5531850   -0.2821690  
C    -2.0670180    1.6253850   -0.5068440  
C    -3.4136070    1.0185950   -0.3846010  
N    -3.2128760   -0.3409980   -0.1193330  
C    -4.5703470    1.7176470   -0.4733510  
C    -4.4997690    3.1537700   -0.7439310  
O    -5.4911780    3.8624650   -0.8183170  
C    -3.0842020    3.8034500   -0.9365910  
O    -3.0040250    4.9988270   -1.1729600  
C    -1.9066920    2.9425200   -0.7978220  
H    -5.5517500    1.2687670   -0.3799120  
H    -0.9296730    3.3979700   -0.9197450  
H    -1.4793750   -1.5743950    0.1519160  
C    -3.7381550   -3.2446430    3.1243920  
C    -3.3057180   -2.2075570    2.3572500  
C    -4.1622690   -2.1507970    1.1939140  
C    -5.1403990   -3.2526030    1.3436430  
N    -4.8176200   -3.8826970    2.5311670  
C    -6.1485040   -3.5305140    0.4760830  
C    -6.2843580   -2.6950830   -0.7066230  
O    -7.1815400   -2.8193330   -1.5247790  
C    -5.2158400   -1.5641750   -0.9481630  
O    -5.2384000   -0.9460980   -1.9962270  
C    -4.1978290   -1.3208820    0.1028940  
H    -2.4897560   -1.5405050    2.5904450  
H    -6.8613160   -4.3350870    0.6252700  
H    -3.3624620   -3.5933170    4.0771730  
H    -5.3293810   -4.6553860    2.9276260  
C     3.6979380   -1.0080040   -2.6878770  
C     3.5881970   -0.5777700   -1.4033330  
C     4.7811940   -1.1080800   -0.7140020  
C     5.5155840   -1.8234840   -1.7967120  
N     4.8772960   -1.7632550   -2.9332130  
C     6.7678400   -2.4850670   -1.5415070  
C     7.2402800   -2.4849100   -0.2712980  
O     8.3864400   -3.0751390    0.1067770  
C     6.4965480   -1.8126720    0.8466670  
O     6.9813390   -1.8611990    1.9753550  
C     5.2244860   -1.1113880    0.5561320  
H     7.2923010   -2.9797620   -2.3515200  
H     8.4621860   -2.9098830    1.0717510  
H     4.7272950   -0.6191910    1.3859380  
H     3.0017100   -0.8373840   -3.4998250  
