58


C    -0.7058420    1.5771640    0.1929660  
C     0.5760950    1.0427430    0.1420440  
C     0.4729630   -0.3778200    0.1235510  
C    -0.9707360   -0.6816130    0.1430690  
N    -1.6210550    0.5335500    0.2047950  
C    -1.5256490   -1.9336480    0.0929670  
C    -0.5720200   -3.0543190   -0.0733740  
O    -0.9310140   -4.1787720   -0.3690540  
C     0.9595670   -2.7799950    0.0841960  
O     1.6877460   -3.7365060    0.2678320  
C     1.4421140   -1.3754990    0.0709870  
H     1.4898570    1.6026800    0.0364490  
H    -2.6192860    0.6979180    0.1647040  
C     1.3299460    5.4183500    1.2132720  
C     1.0092450    4.0968040    1.0776360  
C    -0.3098970    4.0247050    0.5148040  
C    -0.7499100    5.4268450    0.3399810  
N     0.3034200    6.2198840    0.7587710  
C    -1.9552810    5.8198070   -0.1478210  
C    -2.9140780    4.7858950   -0.4995240  
O    -4.0121360    5.0161200   -0.9794480  
C    -2.5185020    3.2895340   -0.2375520  
O    -3.3975630    2.4487820   -0.3872930  
C    -1.1341360    2.9595870    0.1715790  
H     1.6282040    3.2703350    1.3858380  
H    -2.2354920    6.8583620   -0.2918170  
H     2.2311790    5.8636850    1.6132540  
H     0.2833090    7.2272490    0.8009070  
C     2.8579720   -1.1052320    0.0648680  
C     3.5421600   -0.0723000    0.6702360  
C     4.9291720   -0.2703120    0.3446120  
C     4.9288080   -1.4942980   -0.5211340  
N     3.7343410   -1.9810620   -0.6750470  
C     6.1485060   -2.0123530   -1.0878490  
C     7.3024760   -1.3714370   -0.7879260  
O     8.5115840   -1.7432440   -1.2331110  
C     7.3358650   -0.1470710    0.0979550  
O     8.4384000    0.3658650    0.3045460  
C     6.0844980    0.3725900    0.6500830  
H     3.1435560    0.6720860    1.3444820  
H     6.1224430   -2.8951540   -1.7167110  
H     9.1373130   -1.0903380   -0.8450090  
H     6.1461980    1.2592950    1.2737330  
C    -4.9592710   -0.4610830   -2.3035820  
C    -5.9574210   -1.1499700   -1.6968210  
C    -5.3573270   -1.9460660   -0.6465270  
C    -3.9032130   -1.6558290   -0.6876240  
N    -3.7311360   -0.7366360   -1.7046180  
C    -2.9638450   -2.2213280    0.1317970  
C    -3.4676730   -3.1628780    1.1615190  
O    -2.7526240   -3.6226770    2.0326390  
C    -4.9965180   -3.5225590    1.1773530  
O    -5.3933890   -4.3553330    1.9765510  
C    -5.8819950   -2.8315210    0.2423050  
H    -7.0080330   -1.1111790   -1.9445290  
H    -6.9406980   -3.0693960    0.2773670  
H    -5.0062610    0.2380120   -3.1275940  
H    -2.8357490   -0.4489720   -2.0679410  
