60


C    -0.1301350    0.2208380    0.5064990  
C     0.3286060    1.5391250    0.6767740  
C    -0.7836850    2.3983700    0.5581780  
C    -1.9266830    1.5719340    0.3171610  
N    -1.4994950    0.2807990    0.3006080  
C    -3.2413540    2.0952950    0.1424550  
C    -3.3380740    3.4971620    0.2254190  
O    -4.5366020    4.1083940    0.0745240  
C    -2.2023720    4.3226840    0.4711040  
O    -2.5141560    5.6651590    0.5180810  
C    -0.9409650    3.8006340    0.6391830  
H     1.3357550    1.8318180    0.9300320  
H    -2.1225780   -0.5164730    0.1849940  
H    -4.3888210    5.0673320    0.1723180  
H    -1.7164940    6.1857910    0.6940820  
H    -0.0893810    4.4509920    0.8252460  
C     4.2232980   -0.8268900    0.1879890  
C     2.9891400   -0.1877670    0.1340880  
C     1.9757100   -1.1278890    0.4670390  
C     2.6709220   -2.4083050    0.7048330  
N     4.0124140   -2.1537610    0.5595940  
C     2.0685480   -3.5929330    1.0088550  
C     0.6264900   -3.6273860    1.0656260  
O    -0.0338060   -4.6199620    1.3391620  
C    -0.1577510   -2.3053000    0.7307190  
O    -1.3704380   -2.3889160    0.6109570  
C     0.5869730   -1.0212010    0.5618240  
H     2.8325070    0.8192640   -0.2125210  
H     2.6213310   -4.5062470    1.2023730  
H     4.7567850   -2.8379370    0.5296750  
C     6.0087770    3.2698840   -0.3032260  
C     5.1340080    2.2788450    0.0322000  
C     5.8401100    1.0411960   -0.2239920  
C     7.1717170    1.4902180   -0.7090900  
N     7.2596420    2.7959150   -0.7673000  
C     8.2130220    0.5622600   -1.0533980  
C     7.9673140   -0.7586490   -0.8897360  
O     8.8710440   -1.7249790   -1.1391440  
C     6.6518430   -1.2560890   -0.3853910  
O     6.5555800   -2.4779830   -0.2107100  
C     5.5294170   -0.3002150   -0.1230640  
H     4.1466710    2.3978380    0.4516470  
H     9.1695370    0.9285590   -1.4095900  
H     8.4283280   -2.5697370   -0.9116860  
H     5.8496930    4.3401150   -0.2390090  
C    -4.3892130    1.2420970   -0.0939260  
C    -5.7137990    1.5443840   -0.2924200  
C    -6.3867110    0.2834580   -0.4647960  
C    -5.3007260   -0.7453540   -0.3408590  
N    -4.1491310   -0.1848980   -0.1307240  
C    -5.5655100   -2.1553850   -0.4503770  
C    -6.8472760   -2.5270780   -0.6775270  
O    -7.2559380   -3.7944440   -0.8042570  
C    -7.9700550   -1.5142980   -0.8122010  
O    -9.0980920   -1.9639940   -1.0187790  
C    -7.6711640   -0.0876340   -0.6928210  
H    -6.1667140    2.5212450   -0.3145180  
H    -4.7579600   -2.8719190   -0.3471840  
H    -8.2267150   -3.7362610   -0.9591030  
H    -8.4992220    0.6069760   -0.7933970  
