60


C     1.2195350    0.6867410   -0.9758760  
C     2.5027790    0.6425430   -0.4860240  
C     2.3961760    0.6265210    0.9633390  
C     1.0233370    0.6624450    1.2943200  
N     0.3228320    0.7049710    0.0890710  
C     0.5444460    0.6736070    2.6062760  
C     1.4888690    0.6530300    3.6223300  
O     1.0848930    0.6576130    4.9203460  
C     2.8773040    0.6359250    3.3181610  
O     3.6860540    0.6327620    4.4335070  
C     3.3362600    0.6282020    2.0133400  
H    -0.5116300    0.7108770    2.8493510  
H     1.8833000    0.6668440    5.4767380  
H     4.6172870    0.6642190    4.1680560  
H     4.4035480    0.6336980    1.8076180  
H     0.8549120    0.6827250   -1.9925630  
C    -1.8184110   -0.4560210   -0.0898810  
C    -3.1381870   -0.1527200   -0.2703390  
C    -3.2238530    1.3141590   -0.3348910  
C    -1.8438350    1.8243640   -0.1707190  
N    -1.0383460    0.6926520   -0.0316010  
C    -1.4772870    3.1264480   -0.1622780  
C    -2.5281370    4.1330810   -0.3125950  
O    -2.3056310    5.3323870   -0.3230430  
C    -4.0074970    3.6281080   -0.4582240  
O    -4.9064640    4.4451570   -0.5635120  
C    -4.2602330    2.1789370   -0.4633170  
H    -0.4504850    3.4532650   -0.0389210  
H    -5.2859370    1.8564360   -0.5937300  
H    -1.3396680   -1.4230090   -0.0179300  
C    -4.0504150   -3.9002900    1.9714830  
C    -3.4830900   -2.7220180    1.6152210  
C    -4.2589980   -2.2554950    0.4697470  
C    -5.2915040   -3.3156150    0.2835620  
N    -5.1614750   -4.2756690    1.1561100  
C    -6.2939790   -3.2308840   -0.7474550  
C    -6.2791770   -2.1431130   -1.5500690  
O    -7.1602080   -1.9264560   -2.5411570  
C    -5.2458340   -1.0605710   -1.4024070  
O    -5.2954710   -0.1269410   -2.1995150  
C    -4.1984280   -1.1584360   -0.3359890  
H    -2.6582180   -2.2132580    2.0929930  
H    -7.0318470   -4.0181760   -0.8537040  
H    -6.8927160   -1.0781720   -2.9560660  
H    -3.7658910   -4.5550390    2.7865370  
C     3.9835850    1.3817460   -2.4120350  
C     3.7090260    0.6394180   -1.3040170  
C     4.8909300   -0.2372260   -1.1606580  
C     5.7785360    0.1530440   -2.2965050  
N     5.2384950    1.0912290   -3.0217850  
C     7.0524450   -0.4832240   -2.5109340  
C     7.4186330   -1.4743100   -1.6629960  
O     8.5756730   -2.1521670   -1.7480890  
C     6.5338680   -1.9076810   -0.5286590  
O     6.9342560   -2.8118970    0.2024690  
C     5.2306920   -1.2365560   -0.3254040  
H     7.6803880   -0.1710660   -3.3380810  
H     8.5558400   -2.8000850   -1.0105200  
H     4.6162720   -1.5872090    0.4980660  
H     3.3641560    2.1570640   -2.8474920  
