58


C     0.6181060    0.6932660   -0.3661460  
C     0.7179740    2.0716130   -0.3610200  
C     2.1120560    2.4144990   -0.3163370  
C     2.8465390    1.1273140   -0.2769040  
N     1.8912720    0.1329220   -0.2794200  
C     4.2080130    1.0132090   -0.1972090  
C     4.9787050    2.2755720   -0.3183080  
O     6.1792620    2.2962950   -0.5201270  
C     4.2114850    3.6431750   -0.2585710  
O     4.8607890    4.6774770   -0.1995630  
C     2.7556770    3.6162840   -0.2910580  
H    -0.0863410    2.7797830   -0.4955770  
H     2.2286640    4.5657160   -0.2828670  
H     2.0600150   -0.8230850   -0.5801310  
C    -3.5479830    1.4939890    0.7322410  
C    -4.1444440    0.3332310    0.3353110  
C    -3.0671670   -0.5111870   -0.1965460  
C    -1.8222460    0.2779450   -0.0889830  
N    -2.1823050    1.4865470    0.4519070  
C    -0.5610820   -0.1514920   -0.4498030  
C    -0.4690120   -1.5480630   -0.9092860  
O     0.5889450   -2.1240480   -1.1263110  
C    -1.7944360   -2.3546880   -1.1449140  
O    -1.7191970   -3.4519330   -1.6684870  
C    -3.0658000   -1.7627310   -0.7192480  
H    -3.9596590   -2.3673500   -0.8118060  
H    -3.9889890    2.3519640    1.2225730  
H    -1.5099540    2.1309350    0.8459200  
C    -7.6872630    2.6302590   -0.8869500  
C    -8.6643490    1.7916370   -0.4616240  
C    -8.0169240    0.6398550    0.1325140  
C    -6.5582030    0.8838660    0.0206770  
N    -6.4256890    2.1242880   -0.5725510  
C    -5.5764240    0.0193360    0.4269040  
C    -6.0296940   -1.2485020    1.0307080  
O    -5.2566270   -2.1012590    1.4366480  
C    -7.5746230   -1.5155170    1.1727370  
O    -7.9358750   -2.5693680    1.6697460  
C    -8.5067030   -0.4969200    0.6944660  
H    -9.7295910    1.9490280   -0.5468710  
H    -9.5694060   -0.6951900    0.7925260  
H    -7.7702790    3.5849780   -1.3892420  
H    -5.5539260    2.4733440   -0.9422180  
C     7.3295480   -0.1631160    2.6362000  
C     7.6788050   -1.3931730    2.1984320  
C     6.7898630   -1.6597370    1.0702030  
C     5.9711320   -0.4123260    0.9491060  
N     6.2692380    0.4404330    1.8800140  
C     4.9346720   -0.2592390   -0.0711700  
C     4.6928180   -1.3637740   -0.8322230  
O     3.7397090   -1.4115800   -1.7880500  
C     5.4792480   -2.6330340   -0.7135280  
O     5.1866300   -3.5565730   -1.4734080  
C     6.5605760   -2.7279560    0.2840360  
H     8.4314730   -2.0599660    2.5954640  
H     3.7932160   -2.3197520   -2.1638220  
H     7.0990060   -3.6688900    0.3448650  
H     7.7458650    0.3954960    3.4657150  
