58


C     1.1015090   -1.3337820   -0.1629310  
C     0.3563310   -0.3128220    0.3583080  
C     1.3179970    0.7219330    0.7602850  
C     2.6597550    0.1904470    0.4451860  
N     2.4581170   -1.0587510   -0.0942850  
C     3.8543470    0.8517850    0.6234890  
C     3.7736710    2.1831960    1.2722770  
O     4.7474410    2.8127240    1.6366570  
C     2.3525320    2.7728850    1.5841390  
O     2.2731860    3.8947350    2.0544100  
C     1.1665610    1.9509480    1.3160080  
H     0.1982580    2.3865770    1.5305680  
H     0.7610740   -2.2596420   -0.6065380  
H     3.1886630   -1.5753420   -0.5656600  
C    -2.5344630   -3.3853530    1.7341450  
C    -1.4101430   -2.6818730    1.4377030  
C    -1.8227960   -1.3885870    0.9344880  
C    -3.3003590   -1.3918080    0.9761620  
N    -3.6680690   -2.6224560    1.4898200  
C    -4.1240240   -0.3700060    0.5819410  
C    -3.4491750    0.8386820    0.0882120  
O    -4.0468690    1.8426930   -0.2613710  
C    -1.8752370    0.8666520    0.0208270  
O    -1.3515960    1.8659980   -0.4411010  
C    -1.1024000   -0.3061960    0.4832810  
H    -0.3945800   -3.0168110    1.5826050  
H    -2.6333730   -4.3871890    2.1305120  
H    -4.6166280   -2.9664920    1.4754010  
C    -6.2946030   -0.7916370    1.8058450  
C    -5.5856940   -0.4203280    0.6965060  
C    -6.5808740   -0.0969200   -0.3323810  
C    -7.9093960   -0.3227100    0.2858760  
N    -7.6613390   -0.7547310    1.5769230  
C    -9.0986040   -0.1330270   -0.3390340  
C    -9.0860420    0.3077300   -1.7307340  
O   -10.1023520    0.5002430   -2.3797030  
C    -7.6896220    0.5277760   -2.4172910  
O    -7.6520240    0.8657560   -3.5884920  
C    -6.4727540    0.3087450   -1.6216290  
H   -10.0585670   -0.2999390    0.1398990  
H    -5.5203850    0.5028870   -2.1012360  
H    -5.9202220   -1.0636100    2.7846590  
H    -8.3696390   -0.8883250    2.2820390  
C     5.1283970    0.2830100    0.2306720  
C     5.5189230   -1.0373770    0.2423740  
C     6.8638480   -1.0538910   -0.2818170  
C     7.1445510    0.3833590   -0.6047550  
N     6.1428140    1.1544330   -0.3014130  
C     8.3978460    0.7930550   -1.1851160  
C     9.3301790   -0.1633930   -1.4047120  
O    10.5418940    0.0684820   -1.9280020  
C     9.0827000   -1.6177230   -1.0707100  
O     9.9934760   -2.4114870   -1.3109410  
C     7.7933670   -2.0150090   -0.4973160  
H     4.9985050   -1.8783820    0.6812850  
H     8.5724850    1.8375920   -1.4171090  
H    10.9811740   -0.8112810   -1.9602840  
H     7.6493600   -3.0692100   -0.2808850  
