58


C    -0.0914450    1.9704500   -0.0999030  
C    -1.3077230    1.3201700   -0.2422590  
C    -1.0548950   -0.0859680   -0.2767360  
C     0.4019390   -0.2534310   -0.1311400  
N     0.9174470    1.0119400   -0.0436250  
C     1.0764120   -1.4552220   -0.0996340  
C     0.2307980   -2.6680650   -0.1530650  
O     0.6340590   -3.7880090    0.0916380  
C    -1.3016800   -2.5181320   -0.4697330  
O    -1.9434500   -3.5164820   -0.7451160  
C    -1.8949630   -1.1691310   -0.4289330  
H    -2.2830280    1.7771910   -0.2245770  
H     1.8902120    1.2632200    0.0816800  
C    -2.4042260    5.6910040   -0.9823660  
C    -1.9773930    4.3942410   -0.9111730  
C    -0.6835620    4.3939110   -0.2871130  
C    -0.3760600    5.8153250   -0.0056140  
N    -1.4732690    6.5437480   -0.4314220  
C     0.7645310    6.2777890    0.5657130  
C     1.7950120    5.3080900    0.9016920  
O     2.8511180    5.6042140    1.4339080  
C     1.5384230    3.7999600    0.5478920  
O     2.4779510    3.0307380    0.7084030  
C     0.2104110    3.3807150    0.0388770  
H    -2.5118410    3.5448330   -1.3024200  
H     0.9466570    7.3253580    0.7831170  
H    -3.3226960    6.0834800   -1.3983570  
H    -1.5445680    7.5491240   -0.3974590  
C     2.5167190   -1.5578610    0.0206240  
C     3.3898910   -0.7229590    0.6758870  
C     4.7056770   -1.2700140    0.4417320  
C     4.4544960   -2.4688560   -0.4212800  
N     3.1886560   -2.6376120   -0.6601090  
C     5.5371640   -3.2912690   -0.9000290  
C     6.7932260   -2.9556610   -0.5243980  
O     7.8956840   -3.6289820   -0.8838350  
C     7.0749740   -1.7599280    0.3574750  
O     8.2528410   -1.5374500    0.6407510  
C     5.9594470   -0.9281780    0.8215940  
H     3.1630260    0.1166670    1.3187740  
H     5.3296570   -4.1507380   -1.5274930  
H     8.6401910   -3.1473800   -0.4574280  
H     6.2000390   -0.0711120    1.4430470  
C    -3.7642840   -0.1841320   -1.7353720  
C    -5.1156810   -0.2446430   -1.8089660  
C    -5.5659110   -1.1548310   -0.7780180  
C    -4.3445460   -1.6364890   -0.0893510  
N    -3.2601750   -1.0059020   -0.7167290  
C    -4.3561850   -2.4761940    0.9727010  
C    -5.6489650   -2.9632890    1.4606900  
O    -5.7516590   -3.7103180    2.4201140  
C    -6.9520070   -2.4888870    0.7235670  
O    -8.0365850   -2.8907800    1.1138420  
C    -6.8059170   -1.5608460   -0.4002940  
H    -5.7417050    0.2714600   -2.5228310  
H    -3.4615040   -2.8249300    1.4741510  
H    -7.7105310   -1.2149990   -0.8912830  
H    -3.0642530    0.3631340   -2.3517940  
