58


C    -1.0683610   -1.2745190   -0.3632080  
C    -2.1101190   -0.3926940   -0.1262060  
C    -3.3281180   -1.1359730   -0.0913210  
C    -2.9476440   -2.5544290   -0.2997710  
N    -1.5821530   -2.5668020   -0.4651330  
C    -3.8146610   -3.5991160   -0.2941990  
C    -5.2262820   -3.3176770   -0.0890270  
O    -6.0854680   -4.1837030   -0.0316880  
C    -5.6729400   -1.8186100    0.0552550  
O    -6.8649710   -1.5695510    0.0653890  
C    -4.6332970   -0.7536910    0.1226300  
H    -2.0218700    0.6671270    0.0354510  
H    -3.5043120   -4.6315560   -0.4188710  
H    -0.9787400   -3.3777000   -0.5074580  
C     1.2370630    2.4084470   -1.3327930  
C     0.2493100    1.4817660   -1.1918700  
C     0.8671490    0.2592530   -0.7471980  
C     2.3021110    0.5426840   -0.6368350  
N     2.4610410    1.8681660   -0.9584190  
C     3.2914280   -0.3654290   -0.2870360  
C     2.8529950   -1.7606830   -0.2025850  
O     3.6120950   -2.7139410   -0.0715820  
C     1.3215920   -2.0918310   -0.2993590  
O     1.0128080   -3.2747360   -0.2474340  
C     0.3436380   -0.9986410   -0.4647470  
H    -0.7937470    1.6248790   -1.4282990  
H     1.1809090    3.4318850   -1.6773520  
H     3.3615900    2.2812220   -1.1571280  
C     4.6746720   -0.0017060   -0.0651810  
C     5.2346370    1.2358460    0.2101570  
C     6.6487690    1.0552450    0.3780670  
C     6.9041010   -0.3931270    0.1809780  
N     5.6802150   -0.9646210   -0.0933700  
C     8.1284320   -0.9715960    0.2684050  
C     9.2781140   -0.1234170    0.5736050  
O    10.4167770   -0.5546870    0.6701530  
C     9.0307050    1.4153170    0.7852660  
O     9.9815700    2.1400800    1.0389700  
C     7.6628790    1.9201970    0.6671480  
H     4.7030190    2.1573000    0.3960560  
H     8.2973350   -2.0339300    0.1232850  
H     7.5034660    2.9837360    0.8182340  
H     5.4619690   -1.9515850   -0.1551660  
C    -3.9985770    2.9981170   -2.1675240  
C    -4.8013660    3.8622590   -1.5073960  
C    -5.3521690    3.0942800   -0.3967740  
C    -4.7496930    1.7265160   -0.5573230  
N    -3.9523150    1.6888410   -1.5866510  
C    -5.0791920    0.6300000    0.3454870  
C    -5.9126290    0.9466020    1.3846790  
O    -6.2483100    0.0835000    2.3454930  
C    -6.5065020    2.3168880    1.5762280  
O    -7.2387430    2.4870090    2.5482540  
C    -6.1919320    3.3860700    0.6135550  
H    -5.0106560    4.8973040   -1.7388240  
H    -6.8739880    0.5641970    2.9325770  
H    -6.6506150    4.3566160    0.7759280  
H    -3.4125980    3.1815440   -3.0605080  
