58


C     0.0341390    1.7105780   -0.1740300  
C     1.3409250    1.2721910   -0.0936760  
C     1.3334810   -0.1316920    0.1647050  
C    -0.0825440   -0.5268750    0.2224540  
N    -0.8201700    0.6311030    0.0817160  
C    -0.5660830   -1.8132700    0.2964100  
C     0.4519150   -2.8833610    0.4224270  
O     0.1756460   -4.0587480    0.5519590  
C     1.9695660   -2.4779170    0.4965020  
O     2.7645880   -3.3486460    0.7910170  
C     2.3600700   -1.0587590    0.2913770  
H     2.2142990    1.8959770   -0.1993380  
H    -1.7881120    0.5947390   -0.2137950  
C     0.1796120    4.0593020   -1.0760700  
C    -0.4743410    3.0216670   -0.4553840  
C    -1.8114700    3.5716160   -0.1546070  
C    -1.7555640    4.9642410   -0.6912740  
N    -0.5834100    5.2272540   -1.2178830  
C    -2.8691110    5.8604900   -0.5941910  
C    -3.9928140    5.4127160    0.0222270  
O    -5.1027970    6.1427780    0.1795570  
C    -4.0746630    4.0258510    0.5988500  
O    -5.1192110    3.6889390    1.1489500  
C    -2.9070570    3.1223650    0.4864590  
H    -2.7946300    6.8628760   -1.0004910  
H    -5.7401310    5.5699190    0.6597660  
H    -3.0078350    2.1453590    0.9477820  
H     1.1884870    4.0448310   -1.4718870  
C     3.7585030   -0.6987890    0.2507360  
C     4.3564330    0.4491730    0.7192610  
C     5.7640340    0.3018420    0.4428130  
C     5.8632450   -1.0250410   -0.2457270  
N     4.7058240   -1.6054860   -0.3502970  
C     7.1266530   -1.5335320   -0.7172100  
C     8.2301840   -0.7819440   -0.4933500  
O     9.4698510   -1.1315340   -0.8655410  
C     8.1629920    0.5509850    0.2144270  
O     9.2213070    1.1620720    0.3680540  
C     6.8641930    1.0582520    0.6721510  
H     3.8935330    1.2573400    1.2674990  
H     7.1717890   -2.4936680   -1.2187300  
H    10.0471030   -0.3935370   -0.5663050  
H     6.8536050    2.0249670    1.1663810  
C    -1.9828410   -2.1171960    0.2391970  
C    -3.0302110   -1.3875580    0.7562070  
C    -4.2267970   -2.1167970    0.4065290  
C    -3.7198140   -3.2882720   -0.3792800  
N    -2.4224440   -3.2887440   -0.4697510  
C    -4.6193470   -4.2607860   -0.9447750  
C    -5.9439540   -4.0973680   -0.7177960  
O    -6.8951780   -4.9250200   -1.1708660  
C    -6.4829310   -2.9365850    0.0878700  
O    -7.7036200   -2.8736140    0.2357940  
C    -5.5497820   -1.9473320    0.6390990  
H    -2.9753170   -0.5316410    1.4158200  
H    -4.2273360   -5.0947720   -1.5158650  
H    -7.7433680   -4.5481290   -0.8449730  
H    -5.9750960   -1.1221350    1.2022670  
