60


C     2.3787420   -1.6212120   -0.3843030  
C     1.1239060   -1.1054000   -0.3379920  
C     1.2357830    0.3136950   -0.0968180  
C     2.6163870    0.6147110   -0.0211510  
N     3.3236310   -0.6031850   -0.1867720  
C     3.0908210    1.9167650    0.1393340  
C     2.1394680    2.9290080    0.1952740  
O     2.5395900    4.2196230    0.3292120  
C     0.7522700    2.6583530    0.1104720  
O    -0.0414740    3.7730060    0.1952690  
C     0.2658710    1.3466890    0.0083120  
H     0.2123120   -1.6687850   -0.4727790  
H     4.1456320    2.1428610    0.1909870  
H     1.7238720    4.7555690    0.2943930  
H    -0.7588730    3.6658230   -0.4735750  
H     2.7052430   -2.6361110   -0.5445980  
C    -2.1057730   -1.5343780    2.4005480  
C    -1.1347250   -0.7208360    1.9072400  
C    -1.7221590    0.0646540    0.8459820  
C    -3.1403860   -0.3582060    0.7662760  
N    -3.3029730   -1.3362660    1.7269240  
C    -4.0635330    0.1073910   -0.1286110  
C    -3.6051280    1.1928830   -1.0100190  
O    -4.3294900    1.7588810   -1.8071510  
C    -2.1326400    1.7270480   -0.8534570  
O    -1.8638580    2.7588220   -1.4665190  
C    -1.1801730    1.0260290    0.0175000  
H    -0.1138130   -0.6615170    2.2496430  
H    -2.0524270   -2.2576180    3.2034820  
H    -4.1710570   -1.8157230    1.9075480  
C    -7.5028160   -0.2375390    2.6969180  
C    -6.2907430    0.0171000    2.1354290  
C    -6.3483350   -0.4352010    0.7588490  
C    -7.7152080   -0.9763940    0.5644070  
N    -8.3535140   -0.8468900    1.7855250  
C    -8.2025880   -1.4645810   -0.6048430  
C    -7.3217250   -1.4727350   -1.7651920  
O    -7.6722580   -1.8542240   -2.8705540  
C    -5.8413740   -0.9837070   -1.5730660  
O    -5.0514740   -1.1452840   -2.4843580  
C    -5.4338590   -0.4072960   -0.2618750  
H    -5.4546490    0.5012730    2.6173310  
H    -9.2181170   -1.8291610   -0.7243240  
H    -7.8495690   -0.0286310    3.7004580  
H    -9.3255490   -1.0588760    1.9484710  
C     4.6757760   -0.8260500   -0.1778810  
C     5.3358170   -2.0257150   -0.3759300  
C     6.7182310   -1.7107480   -0.2589130  
C     6.7428920   -0.2276730    0.0226970  
N     5.5391690    0.2737000    0.0668360  
C     7.9698760    0.4889370    0.2112080  
C     9.1178990   -0.2262960    0.1231510  
O    10.3388290    0.2857260    0.2717830  
C     9.1317630   -1.7269250   -0.1611860  
O    10.2515630   -2.2476910   -0.2120040  
C     7.8792790   -2.4243900   -0.3459860  
H     4.9153060   -2.9975970   -0.5839160  
H     7.9608400    1.5542020    0.4124340  
H    10.9449620   -0.4859090    0.1497590  
H     7.9185920   -3.4900770   -0.5465810  
