58


C    -2.9813720   -1.2487360    0.9334700  
C    -1.8070840   -0.5796810    0.8992930  
C    -2.0110800    0.6331540    0.1400640  
C    -3.4323340    0.6215910   -0.2805830  
N    -3.9829020   -0.5765310    0.2110150  
C    -4.0443710    1.6425940   -0.9235080  
C    -3.2430420    2.8075510   -1.2905860  
O    -3.7150900    3.7819920   -1.8525500  
C    -1.7144160    2.8010130   -0.9483230  
O    -1.0222970    3.7157860   -1.3559980  
C    -1.1704540    1.6703580   -0.1541050  
H    -0.8749090   -0.9114090    1.3285140  
H    -5.0925470    1.6484150   -1.1939730  
H    -3.2207360   -2.2003650    1.3867230  
C     2.1437500   -1.0671280   -0.9885820  
C     3.2307190   -0.4247670   -0.4397830  
C     2.6539980    0.8008080    0.1504740  
C     1.2002620    0.7050940   -0.1554120  
N     0.9274500   -0.3962320   -0.8199290  
C     0.2515270    1.7233890    0.2388240  
C     0.7700150    2.7825520    0.9326960  
O     0.0278830    3.7814610    1.4132110  
C     2.2358580    2.9033010    1.2564080  
O     2.5935860    3.8930530    1.8898540  
C     3.1711990    1.8475250    0.8184480  
H     0.6603140    4.4041370    1.8378840  
H     4.2254060    1.9455980    1.0490570  
H     2.1441600   -2.0113040   -1.5210970  
C     4.6034760   -0.8256340   -0.4312860  
C     5.1900060   -1.9450040   -0.9812410  
C     6.5863630   -1.8481430   -0.6768170  
C     6.7103120   -0.5632740    0.0963850  
N     5.5584570    0.0245660    0.2353810  
C     7.9785890   -0.1002140    0.5927410  
C     9.0650680   -0.8668040    0.3371850  
O    10.3071080   -0.5704070    0.7314820  
C     8.9738440   -2.1685950   -0.4404000  
O    10.0298660   -2.7813960   -0.6103410  
C     7.6772850   -2.6178890   -0.9336470  
H     4.7077870   -2.7383570   -1.5351810  
H     8.0437280    0.8292710    1.1471990  
H    10.8641900   -1.3112050    0.3961670  
H     7.6472250   -3.5517940   -1.4859140  
C    -6.8455920   -2.2265500    3.1436710  
C    -5.7253760   -1.6586900    2.6305800  
C    -5.9920830   -1.5240970    1.2027450  
C    -7.3590510   -2.0880220    1.0343650  
N    -7.8531520   -2.4947980    2.1713270  
C    -8.0204970   -2.1313910   -0.2455030  
C    -7.3589880   -1.6408040   -1.3174480  
O    -7.8605890   -1.6107900   -2.5640490  
C    -5.9679350   -1.0865800   -1.2057220  
O    -5.4040830   -0.7423100   -2.2382750  
C    -5.3097530   -1.0156350    0.1418570  
H    -4.8413270   -1.3372070    3.1623780  
H    -9.0198080   -2.5444710   -0.3236200  
H    -7.1489720   -1.2511500   -3.1353070  
H    -7.0476200   -2.4760690    4.1784070  
