62


C     1.9760780   -0.5601540   -0.0538430  
C     3.2562970   -0.0423550   -0.0035950  
C     3.1095600    1.4043960   -0.0854120  
C     1.7247110    1.6788040   -0.1857530  
N     1.0454250    0.4499620   -0.1637800  
C     1.2081740    2.9740070   -0.2553710  
C     2.1129070    4.0264610   -0.2661720  
O     1.6586160    5.3126580   -0.3380010  
C     3.5022200    3.7734760   -0.2061800  
O     4.2860550    4.9125170   -0.2371950  
C     4.0063700    2.4870200   -0.1196020  
H     0.1487690    3.1820600   -0.3225170  
H     2.4406000    5.8910800   -0.3303410  
H     5.2168280    4.6606770   -0.1452620  
H     5.0748440    2.3231520   -0.0406420  
H     1.6604360   -1.5876840   -0.0278610  
C    -1.4099100   -1.9985950    2.4085590  
C    -2.6488940   -1.7696060    1.9104180  
C    -2.4514230   -0.8381130    0.8026020  
C    -0.9801620   -0.6204920    0.7806880  
N    -0.3782470   -1.2967630    1.7175180  
C    -0.3462590    0.2454850   -0.2039460  
C    -1.1632470    0.8212860   -1.1305530  
O    -0.7271690    1.6160290   -2.1228050  
C    -2.6501840    0.6578500   -1.0956230  
O    -3.2969590    1.3223550   -1.9005810  
C    -3.2923010   -0.2602490   -0.0952030  
H    -3.5895110   -2.1925240    2.2331920  
H    -1.5433530    1.9218600   -2.5787320  
H    -1.1294330   -2.6420970    3.2337620  
C    -6.3037760    0.4813010    3.0746680  
C    -7.4182550    0.1853060    2.3356720  
C    -6.9659990   -0.2058570    1.0306270  
C    -5.5486770   -0.1289430    1.0405530  
N    -5.1748980    0.2992400    2.2958090  
C    -4.7560890   -0.4023070   -0.0996630  
C    -5.4432660   -0.8010800   -1.2517080  
O    -4.7438220   -1.1639810   -2.3599320  
C    -6.8572290   -0.8952560   -1.2669690  
O    -7.3684690   -1.3138160   -2.4806280  
C    -7.6195510   -0.5985860   -0.1533890  
H    -8.4426880    0.2426560    2.6765900  
H    -4.2231750    0.4097950    2.6101200  
H    -5.3900540   -1.3432160   -3.0652760  
H    -8.3363050   -1.2977910   -2.4490070  
H    -8.7043550   -0.6750900   -0.1928230  
H    -6.2114320    0.8088040    4.1004490  
C     3.9991080   -4.0825830   -1.5317480  
C     5.2742370   -4.3113590   -1.1486320  
C     5.6806210   -3.0987440   -0.4449810  
C     4.4760360   -2.2110980   -0.5035400  
N     3.5068050   -2.7934690   -1.1474580  
C     4.4575390   -0.8660230    0.0901090  
C     5.6202650   -0.5001480    0.7188040  
O     5.7841790    0.6723250    1.3782170  
C     6.8261240   -1.3620990    0.7835870  
O     7.8158630   -0.9351020    1.3905260  
C     6.8135360   -2.6982690    0.1563740  
H     5.8812770   -5.1897000   -1.3193150  
H     6.6996140    0.6207290    1.7356310  
H     7.7216580   -3.2898150    0.2254070  
H     3.3349660   -4.7404240   -2.0794410  
