62


C    -1.1817790   -1.1297090   -0.3381130  
C     0.1449520   -1.5252030   -0.5092620  
C     0.9415030   -0.3559680   -0.4899750  
C     0.0553680    0.7509510   -0.2864410  
N    -1.2119770    0.2480580   -0.2145590  
C     0.4805470    2.0983120   -0.2085290  
C     1.8544920    2.2717550   -0.3704620  
O     2.3836800    3.5422880   -0.3734910  
C     2.7559660    1.1934670   -0.5604820  
O     4.0698720    1.6068250   -0.6993930  
C     2.3466570   -0.1340510   -0.6142360  
H     0.4841750   -2.5438340   -0.6268090  
H    -2.0643990    0.7629490   -0.0342440  
H     3.3429190    3.4492690   -0.5273060  
H     4.5814510    0.9146000   -1.1474700  
C    -2.7943190    2.7984780    2.7969190  
C    -1.7152370    2.2962000    2.1168240  
C    -1.4530760    3.1845880    1.0150400  
C    -2.4150590    4.2274710    1.0958830  
N    -3.2213660    3.9594150    2.1826510  
C    -2.4479020    5.3096810    0.2097340  
C    -1.4677420    5.3482350   -0.7680490  
O    -1.4222240    6.3811110   -1.6538000  
C    -0.4924440    4.3206480   -0.8766810  
O     0.3875710    4.4950810   -1.9264210  
C    -0.4764800    3.2158560   -0.0214510  
H    -1.1635170    1.4064540    2.3830760  
H    -3.9881930    4.5357070    2.4917650  
H    -3.1816630    6.1064850    0.2758180  
H    -0.6504270    6.2018190   -2.2239650  
H     1.2905070    4.3217250   -1.5870860  
H    -3.2974870    2.4243610    3.6771790  
C     3.1568120   -2.3257920   -1.6323390  
C     3.2904830   -1.2350620   -0.8203530  
C     4.5738020   -1.4782960   -0.1174520  
C     5.0581030   -2.7756990   -0.6746790  
N     4.2259550   -3.2553720   -1.5583400  
C     6.2930590   -3.3714090   -0.2401570  
C     7.0017110   -2.7349090    0.7240400  
O     8.1642580   -3.1820310    1.2254730  
C     6.5270990   -1.4431190    1.3254400  
O     7.2219490   -0.9221350    2.1956870  
C     5.2605240   -0.8405050    0.8511390  
H     6.6219940   -4.3096230   -0.6730890  
H     8.4320270   -2.5209490    1.9006140  
H     4.9577660    0.0958660    1.3085100  
H     2.3412520   -2.5300670   -2.3154010  
C    -2.3980320   -1.8743090   -0.2773660  
C    -2.6243990   -3.2273760   -0.3746140  
C    -4.0407110   -3.3929930   -0.2383360  
C    -4.5651630   -1.9931520   -0.0563240  
N    -3.6056750   -1.1147530   -0.0796600  
C    -5.9688770   -1.7302620    0.1173870  
C    -6.8059650   -2.7942510    0.1113720  
O    -8.1322760   -2.7136250    0.2608970  
C    -6.3088120   -4.2189140   -0.0698160  
O    -7.1711140   -5.1024530   -0.0563550  
C    -4.8855160   -4.4606760   -0.2440760  
H    -1.8941290   -4.0101690   -0.5239380  
H    -6.3237560   -0.7137440    0.2451940  
H    -8.4455790   -3.6476060    0.2094820  
H    -4.5626050   -5.4890750   -0.3712770  
