62


C     0.8234740   -1.2672980    1.7624750  
C     2.1779220   -1.3279440    1.5747410  
C     2.4493270   -0.8234430    0.2593590  
C     1.1995240   -0.4549580   -0.3054700  
N     0.2075800   -0.7479420    0.6291030  
C     1.0774210    0.1297180   -1.5723800  
C     2.2475500    0.3260700   -2.2926980  
O     2.1878680    0.8656380   -3.5430890  
C     3.5036450   -0.0397220   -1.7525950  
O     4.5664020    0.2063960   -2.6071030  
C     3.6431860   -0.6022950   -0.4810470  
H     2.8982880   -1.6888680    2.2943540  
H     0.1249730    0.4300740   -1.9942570  
H     3.0954670    0.8691860   -3.8948970  
H     5.3117010   -0.3646730   -2.3634610  
H     0.2172320   -1.5674380    2.6047970  
C    -2.6755390    1.6761400    2.9858710  
C    -1.5275960    1.0976200    2.5108780  
C    -1.8997700    0.3067850    1.3723830  
C    -3.2997720    0.4514880    1.1976830  
N    -3.7439920    1.2918600    2.1974100  
C    -4.0315840   -0.1917570    0.1758560  
C    -3.2919970   -1.0004120   -0.6897310  
O    -3.9140110   -1.6146350   -1.7307480  
C    -1.8937720   -1.1733970   -0.5311550  
O    -1.3257820   -2.0196220   -1.4542230  
C    -1.1914180   -0.5316540    0.4834510  
H    -0.5342620    1.2203570    2.9177150  
H    -4.7054260    1.5600100    2.3367550  
H    -3.2572680   -2.1826450   -2.1701700  
H    -0.3650150   -2.0587070   -1.3165140  
H    -2.8250740    2.3406620    3.8249930  
C    -6.6912910    3.3236490   -0.4185410  
C    -5.6207370    2.5048750   -0.2548750  
C    -6.1268300    1.1499140   -0.1306800  
C    -7.6019750    1.2527320   -0.2442960  
N    -7.8789090    2.5985370   -0.3944640  
C    -8.4613750    0.2008520   -0.2250430  
C    -7.9033930   -1.1336930   -0.0723790  
O    -8.5803640   -2.1509780   -0.0842900  
C    -6.3492380   -1.2701780    0.1324820  
O    -5.8989560   -2.3653260    0.4118170  
C    -5.4944150   -0.0537630    0.0313240  
H    -4.5828490    2.8009910   -0.2386700  
H    -9.5362130    0.3037310   -0.3382840  
H    -6.7199840    4.3966280   -0.5555990  
H    -8.7957180    2.9774110   -0.5726100  
C     5.3159210   -2.0918540    0.7379310  
C     4.9590430   -0.9606900    0.0632310  
C     6.1848230   -0.1275200    0.1055540  
C     7.1737460   -0.9636870    0.8487800  
N     6.6580850   -2.1066200    1.2071850  
C     8.5119280   -0.5011490    1.1078800  
C     8.8485470    0.7400790    0.6819130  
O    10.0564370    1.2995360    0.8621500  
C     7.8676810    1.6154530   -0.0459090  
O     8.2455510    2.7302850   -0.4013230  
C     6.5023000    1.1122140   -0.3163150  
H     9.2096390   -1.1369870    1.6415930  
H     9.9958010    2.1906450    0.4533840  
H     5.8289300    1.7702720   -0.8556210  
H     4.6912570   -2.9548800    0.9342490  
