60


C    -2.4614860    3.0505660    1.6258900  
C    -3.5879630    2.3351310    1.3214070  
C    -3.1616040    1.0815330    0.7681280  
C    -1.7424030    1.0906140    0.7843950  
N    -1.3455990    2.2981590    1.3150050  
C    -0.9318570    0.0265700    0.3222200  
C    -1.6369860   -1.0883920   -0.1450170  
O    -0.9673470   -2.1887460   -0.5906190  
C    -3.0521270   -1.1401690   -0.1424570  
O    -3.5595820   -2.3212920   -0.6489500  
C    -3.8469810   -0.0674060    0.2811080  
H    -4.6039240    2.6716790    1.4563520  
H    -0.3895980    2.6168810    1.3462080  
H    -1.6641630   -2.8358600   -0.8181470  
H    -4.2254470   -2.6624250   -0.0145930  
H    -2.3559480    4.0397890    2.0481750  
C     1.3049540    0.6310990    1.3663980  
C     0.5285290    0.0886910    0.3823030  
C     1.5133150   -0.3410160   -0.6394290  
C     2.8339100    0.0203640   -0.0543830  
N     2.7000030    0.5931470    1.1083010  
C     4.0822370   -0.2215940   -0.7549610  
C     3.9847750   -0.7365660   -2.0111520  
O     5.0415010   -1.0105390   -2.7923830  
C     2.6646420   -1.0786330   -2.6348730  
O     2.6774720   -1.5515120   -3.7716370  
C     1.4166620   -0.8518050   -1.8795600  
H     4.6574500   -1.3743330   -3.6211340  
H     0.4845260   -1.1296890   -2.3565450  
H     0.9710160    1.0376980    2.3141690  
C     6.0218860   -1.8767960    2.8175690  
C     7.1556890   -1.1449000    2.9037190  
C     7.1092310   -0.2408170    1.7581690  
C     5.8125720   -0.5754300    1.0831070  
N     5.1930210   -1.5383940    1.6965040  
C     5.3786320    0.1062140   -0.1256430  
C     6.2319050    1.0327430   -0.6395130  
O     5.9809610    1.7459930   -1.7476150  
C     7.5435470    1.3761900    0.0138790  
O     8.2353730    2.2401770   -0.5233870  
C     7.9447410    0.6859930    1.2525660  
H     7.9424820   -1.2080420    3.6424700  
H     6.7652430    2.3276190   -1.8620540  
H     8.9022440    0.9588880    1.6858480  
H     5.6858050   -2.6655960    3.4801510  
C    -6.8597380    2.6789810   -1.4430090  
C    -8.0196770    2.0477730   -1.1579750  
C    -7.6256220    0.8253790   -0.4620000  
C    -6.1307400    0.9055590   -0.3950180  
N    -5.6956100    1.9808230   -0.9783510  
C    -5.3197790   -0.1490720    0.2245370  
C    -6.0325470   -1.2210420    0.6761450  
O    -5.4519800   -2.3142340    1.2495670  
C    -7.5148200   -1.3289760    0.6214430  
O    -8.0347450   -2.3442690    1.0932880  
C    -8.2984820   -0.2337220    0.0230440  
H    -9.0284930    2.3510460   -1.4014680  
H    -6.2093490   -2.8982500    1.4906080  
H    -9.3776220   -0.3497480   -0.0075620  
H    -6.7166180    3.6172140   -1.9650230  
