64


C    -2.8620120    1.2533590    0.8927900  
C    -3.8327780    0.4636630    0.3098130  
C    -3.1404560   -0.6937290   -0.2108100  
C    -1.7640860   -0.5406760    0.0958600  
N    -1.6246490    0.6643670    0.7525810  
C    -0.7645520   -1.4650710   -0.2941760  
C    -1.2329540   -2.5499200   -1.0339770  
O    -0.3426420   -3.5059840   -1.4901430  
C    -2.6004970   -2.7207450   -1.3524910  
O    -2.8574180   -3.8649280   -2.0886550  
C    -3.5595100   -1.8138020   -0.9516680  
H    -0.7731020    0.9712930    1.1990730  
H    -0.8695190   -4.1843800   -1.9515310  
H    -3.8140850   -3.9690240   -2.1983610  
H    -4.6081410   -1.9644750   -1.1883610  
H    -2.9694390    2.1837060    1.4334490  
C    -5.7663750    4.1937200   -0.9860770  
C    -7.0706440    3.8184390   -0.7926900  
C    -7.0533750    2.4681520   -0.3041260  
C    -5.6925410    2.0772160   -0.2137910  
N    -4.9313850    3.1539070   -0.6232160  
C    -5.2646640    0.7994270    0.2108850  
C    -6.2855720   -0.0947040    0.5401450  
O    -5.9798020   -1.3588120    0.9727560  
C    -7.6519270    0.2773200    0.4529990  
O    -8.5255220   -0.7352660    0.8198700  
C    -8.0497830    1.5361580    0.0466500  
H    -7.9426790    4.4315020   -0.9753790  
H    -3.9327870    3.1171830   -0.7595100  
H    -6.8229370   -1.7796480    1.2162680  
H    -9.4225290   -0.3755930    0.8810730  
H    -9.1061770    1.7909580   -0.0116580  
H    -5.3550640    5.1265110   -1.3457690  
C     1.3527070   -0.4192290    3.5361940  
C     0.4165760   -0.7884800    2.6048460  
C     1.0988930   -0.9196990    1.3430740  
C     2.4665410   -0.6349970    1.5881350  
N     2.5884730   -0.3346850    2.9283620  
C     3.4758280   -0.6676560    0.5950430  
C     3.0257820   -1.0348790   -0.6778900  
O     3.9030280   -1.1440580   -1.7148510  
C     1.6637470   -1.3284360   -0.9477130  
O     1.4256190   -1.6503060   -2.2684290  
C     0.6686050   -1.2569730    0.0281330  
H    -0.6281320   -0.9825440    2.7999310  
H     3.4397150   -0.0094910    3.3605080  
H     3.3635980   -1.4552640   -2.4695730  
H     0.8371530   -2.4374970   -2.2817740  
H     1.2468870   -0.2297040    4.5950020  
C     5.5658720   -0.7343110    2.0402770  
C     4.8763870   -0.3882340    0.9122560  
C     5.8587020    0.4091850    0.1356500  
C     7.0813390    0.4157010    0.9848210  
N     6.9026370   -0.2581020    2.0882610  
C     8.2818080    1.1012570    0.5818270  
C     8.2648580    1.7712210   -0.5951240  
O     9.3081180    2.4606940   -1.0914760  
C     7.0411010    1.8007440   -1.4621580  
O     7.0991350    2.4341050   -2.5164890  
C     5.8249250    1.0765070   -1.0325760  
H     9.1580390    1.0775770    1.2204030  
H     8.9895510    2.8271020   -1.9455660  
H     4.9731050    1.0926680   -1.7017980  
H     5.2152120   -1.3560250    2.8562140  
