58


C     1.9318370   -0.4896640   -1.1561130  
C     2.9772680   -0.0824270   -0.3693300  
C     2.5008230    1.1000560    0.3559350  
C     1.1108820    1.3393230   -0.1053000  
N     0.8409520    0.3478030   -1.0204120  
C     0.3020460    2.3702320    0.2972370  
C     0.8368500    3.2693240    1.3408300  
O     0.1701740    4.1473260    1.8591660  
C     2.2978030    3.0269990    1.8483280  
O     2.7629750    3.7875880    2.6809840  
C     3.0552120    1.8938660    1.3094920  
H     4.0657850    1.7579480    1.6702100  
H     1.8832830   -1.3495750   -1.8060600  
H    -0.0436440    0.2337440   -1.4930070  
C    -3.4647360   -0.0723770   -0.1166680  
C    -2.1788730    0.3032810    0.1854890  
C    -2.0559370    1.6736960   -0.2630440  
C    -3.3982550    1.9869330   -0.8349480  
N    -4.2112690    0.9721850   -0.7525150  
C    -3.7085200    3.2812350   -1.3821790  
C    -2.7400250    4.2252260   -1.3468730  
O    -2.8903530    5.4722600   -1.8138830  
C    -1.3592850    3.9369320   -0.8131700  
O    -0.5132950    4.8122150   -0.9545240  
C    -1.0516560    2.5968170   -0.2195220  
H    -1.4452280   -0.2645620    0.7391100  
H    -4.6943230    3.4776570   -1.7882250  
H    -2.0171070    5.9070750   -1.6952100  
C    -2.0741980   -4.3179560   -0.1481910  
C    -2.0781440   -2.9624340   -0.2425920  
C    -3.4368410   -2.5613670    0.0775740  
C    -4.1395250   -3.8621420    0.3308350  
N    -3.3345670   -4.8805690    0.1982990  
C    -5.5367250   -3.9200170    0.6562480  
C    -6.2118290   -2.7496900    0.7330010  
O    -7.5123960   -2.6533960    1.0396030  
C    -5.5387060   -1.4142740    0.5181840  
O    -6.2230910   -0.4191380    0.7188460  
C    -4.0894880   -1.3622300    0.1374060  
H    -1.2522450   -2.3176760   -0.5016370  
H    -6.0147130   -4.8767510    0.8347060  
H    -7.7056780   -1.6893200    1.0622020  
H    -1.2378730   -4.9879810   -0.3112160  
C     3.8702800   -4.3437120   -0.7870370  
C     5.2009810   -4.3900080   -0.5594180  
C     5.5963800   -3.0043150   -0.3286280  
C     4.3198190   -2.2301050   -0.4495990  
N     3.3218100   -3.0201970   -0.7184160  
C     4.2627080   -0.7765810   -0.2766660  
C     5.4687310   -0.1690990   -0.0593790  
O     5.6287410    1.1633130    0.0467770  
C     6.7561820   -0.9233490    0.0650260  
O     7.7814050   -0.2711020    0.2640420  
C     6.7658420   -2.3918160   -0.0731370  
H     5.8509030   -5.2537510   -0.5479450  
H     6.5923870    1.2953790    0.1984790  
H     7.7223020   -2.8961240    0.0244750  
H     3.1989880   -5.1652820   -1.0054170  
