60


C     3.5184790    1.9145110   -0.7713390  
C     2.1724290    1.9528970   -0.5597600  
C     1.7993230    0.7218200    0.0807800  
C     2.9749000   -0.0544010    0.2055040  
N     4.0367040    0.6958490   -0.3263790  
C     2.9885660   -1.3064520    0.8253310  
C     1.7811830   -1.8078410    1.2910990  
O     1.7537950   -3.0234600    1.9004040  
C     0.5804190   -1.0712260    1.1519020  
O    -0.5107300   -1.7153970    1.6797260  
C     0.5635450    0.2036850    0.5584130  
H     1.5188940    2.7617270   -0.8498430  
H     3.8885410   -1.8948740    0.9538340  
H     0.8372340   -3.1871410    2.1846010  
H    -1.2880180   -1.1271460    1.7013220  
H     4.1703400    2.6434270   -1.2243780  
C    -0.6636840    0.9820970    0.4806030  
C    -0.8774520    2.3284730    0.5913970  
C    -2.2878050    2.5871110    0.4578130  
C    -2.9259440    1.2704600    0.2541950  
N    -1.9139730    0.3134790    0.3472000  
C    -4.2494130    1.0743440   -0.0011330  
C    -5.1178230    2.2763410    0.0000010  
O    -6.3267730    2.2026360   -0.1229520  
C    -4.4569970    3.6802990    0.2332840  
O    -5.1697200    4.6713510    0.1982050  
C    -3.0186590    3.7367500    0.4738690  
H    -0.1214790    3.0676550    0.8114130  
H    -2.5697210    4.7137560    0.6232610  
H    -1.9791010   -0.5284050   -0.2163470  
C    -4.4544010   -2.7794760    2.2789340  
C    -4.1761040   -1.4924080    1.9514120  
C    -4.7748520   -1.2994270    0.6353760  
C    -5.4021020   -2.6237820    0.3283240  
N    -5.2016110   -3.4840140    1.2879600  
C    -6.1401010   -2.8498100   -0.8857390  
C    -6.2509870   -1.8186590   -1.7553540  
O    -6.9058670   -1.8879010   -2.9229300  
C    -5.5893890   -0.4869490   -1.5041680  
O    -5.6377040    0.3426930   -2.4044100  
C    -4.8528680   -0.2496560   -0.2224460  
H    -3.6769470   -0.7437880    2.5504230  
H    -6.5903560   -3.8175850   -1.0760850  
H    -6.7857520   -1.0105780   -3.3484140  
H    -4.1893310   -3.3033830    3.1899980  
C     6.2584480   -2.9343990   -1.6376500  
C     5.2240680   -2.0932440   -1.3938410  
C     5.8360040   -0.8930380   -0.8309180  
C     7.2915500   -1.2071810   -0.8103690  
N     7.5326480   -2.3988990   -1.2810580  
C     8.2805650   -0.2617910   -0.3555130  
C     7.8553700    0.9589790    0.0383470  
O     8.6708710    1.9434570    0.4573920  
C     6.4031060    1.3291060    0.0287170  
O     6.0982900    2.4581830    0.4010090  
C     5.3808480    0.3176570   -0.4133240  
H     4.1743790   -2.2549120   -1.5883480  
H     9.3295570   -0.5357250   -0.3565030  
H     8.0882570    2.6985470    0.6849920  
H     6.2184980   -3.9277080   -2.0680330  
