62


C     0.5748990    0.6361300   -0.4606280  
C     0.6817520    2.0145170   -0.5624000  
C     2.0682210    2.3483190   -0.4694470  
C     2.7800170    1.1287900   -0.3095600  
N     1.8503710    0.1170990   -0.2843970  
C     4.1856690    1.0761380   -0.1441650  
C     4.8545790    2.3074210   -0.1876940  
O     6.2133060    2.3549490   -0.0798810  
C     4.1512240    3.5252610   -0.3680140  
O     4.9720120    4.6397620   -0.3884240  
C     2.7775930    3.5636780   -0.4973820  
H    -0.1237400    2.7048540   -0.7697940  
H     2.0446570   -0.8651390   -0.4190730  
H     6.4748190    3.2847400   -0.2021270  
H     4.4612870    5.4121160   -0.6720010  
H     2.2605280    4.5134470   -0.6190100  
C    -3.5874440    1.5385040    0.5807420  
C    -4.1652140    0.3235620    0.2499140  
C    -3.0720850   -0.5258380   -0.1953080  
C    -1.8904550    0.2511360   -0.1385440  
N    -2.2401410    1.5035260    0.3345990  
C    -0.6074390   -0.2240220   -0.5002780  
C    -0.5633740   -1.5693460   -0.8838980  
O     0.6330710   -2.1582070   -1.2017640  
C    -1.7362880   -2.3567280   -0.9602500  
O    -1.5023780   -3.6521750   -1.3831540  
C    -2.9831180   -1.8569280   -0.6428770  
H    -1.5675350    2.1826130    0.6594490  
H     0.4418370   -3.0870850   -1.4241620  
H    -2.2977250   -4.1866520   -1.2396980  
H    -3.8591820   -2.4937520   -0.6821120  
H    -4.0460930    2.4144450    1.0161270  
C    -7.7422060    2.7923060   -0.6464600  
C    -6.4791850    2.3049080   -0.5520110  
C    -6.5616530    0.9800380    0.0340220  
C    -8.0018530    0.7296710    0.2627480  
N    -8.6587560    1.8737260   -0.1405450  
C    -8.5353740   -0.4200520    0.7617880  
C    -7.6273080   -1.4980800    1.0836150  
O    -7.9816380   -2.5925010    1.5009310  
C    -6.0813890   -1.2584320    0.8738320  
O    -5.3288320   -2.1732120    1.1643820  
C    -5.5968670    0.0487020    0.3489950  
H    -5.5797230    2.8002750   -0.8826920  
H    -9.5997720   -0.5686860    0.9139150  
H    -8.0889050    3.7371590   -1.0430410  
H    -9.6609170    1.9779710   -0.1626040  
C     7.0984210   -0.4132600    2.9181240  
C     6.2239540    0.3769660    2.2554810  
C     5.8064670   -0.4012910    1.0922320  
C     6.5646660   -1.6807750    1.2302200  
N     7.3160460   -1.6858580    2.2935440  
C     6.4293850   -2.7540290    0.2779420  
C     5.5683530   -2.5711250   -0.7466280  
O     5.3254000   -3.4838550   -1.7052570  
C     4.7723950   -1.3029770   -0.9009840  
O     3.9988340   -1.2513450   -1.8572020  
C     4.9333290   -0.1797840    0.0733930  
H     5.8964850    1.3739600    2.5079840  
H     6.9996950   -3.6678630    0.4019850  
H     4.6654220   -3.0628230   -2.2988060  
H     7.6300120   -0.1966320    3.8370950  
