58


C     0.0031760    1.6215610   -0.0234260  
C     1.1316170    0.8248220   -0.0982560  
C     0.7174000   -0.5384900   -0.0994520  
C    -0.7638040   -0.5132680   -0.0148080  
N    -1.1296460    0.8144550    0.0566570  
C    -1.5598340   -1.6321890    0.0300260  
C    -0.8609280   -2.9140380   -0.2494130  
O    -1.4520480   -3.9318730   -0.5604560  
C     0.6984210   -2.9715660   -0.1793860  
O     1.2310640   -4.0659150   -0.0867480  
C     1.4481830   -1.7077650   -0.1710180  
H     2.1474170    1.1654590   -0.2057400  
H    -2.0511530    1.1278240   -0.2591060  
C     2.9234330    4.8107950    1.0486950  
C     2.2834910    3.6156300    0.8932190  
C     0.9883960    3.8865490    0.3247430  
C     0.9166940    5.3605710    0.1756870  
N     2.1330090    5.8546330    0.6086330  
C    -0.1497580    6.0544640   -0.2972440  
C    -1.3403940    5.3039870   -0.6605140  
O    -2.3540620    5.8201360   -1.1019750  
C    -1.3246220    3.7451240   -0.4630410  
O    -2.3707220    3.1489520   -0.6695100  
C    -0.0727000    3.0716180   -0.0408390  
H     2.6815560    2.6571750    1.1863560  
H    -0.1601530    7.1337100   -0.4124540  
H     3.9071020    5.0078850    1.4539480  
H     2.3703120    6.8331570    0.6605780  
C     4.7579410   -0.0379260    2.3732870  
C     3.5160760   -0.3254150    1.9063380  
C     3.7365890   -1.1315670    0.7105550  
C     5.2221620   -1.2364620    0.6217050  
N     5.8130170   -0.5899230    1.5912670  
C     5.8718930   -1.9995780   -0.4116930  
C     5.0867170   -2.6297680   -1.3148160  
O     5.5532660   -3.3691670   -2.3334720  
C     3.5850850   -2.5097280   -1.2868700  
O     2.9716460   -2.9911990   -2.2320720  
C     2.9120160   -1.7522170   -0.1787450  
H     2.5620370   -0.0541200    2.3346640  
H     6.9540970   -2.0594360   -0.4443710  
H     4.7577230   -3.6507860   -2.8370260  
H     5.0175160    0.5314040    3.2587500  
C    -4.8985610    0.8766060   -1.5068440  
C    -5.9798300    0.2040400   -1.0537810  
C    -5.4447580   -0.9062910   -0.2746190  
C    -3.9547590   -0.7582840   -0.3949410  
N    -3.6557430    0.2869190   -1.1098120  
C    -3.0179150   -1.6748110    0.2360260  
C    -3.5920910   -2.6229540    1.0432680  
O    -2.8947810   -3.4747420    1.7968290  
C    -5.0831330   -2.7897730    1.1872660  
O    -5.4807920   -3.6890160    1.9255080  
C    -5.9942700   -1.8829740    0.4704170  
H    -7.0246280    0.4351610   -1.2065350  
H    -3.5611220   -4.0561950    2.2282130  
H    -7.0607580   -2.0363530    0.6026260  
H    -4.8645830    1.7808880   -2.1011150  
