58


C    -0.7432920    2.4448760   -0.1499300  
C    -1.2197800    3.7365010   -0.1621520  
C    -2.6550170    3.6760000   -0.1733350  
C    -3.0011650    2.2391130   -0.1565290  
N    -1.8212250    1.5608250   -0.1441710  
C    -4.2827890    1.7076790   -0.1564050  
C    -5.3833320    2.6978600   -0.1913870  
O    -6.5638680    2.3937590   -0.2123760  
C    -5.0288550    4.2329960   -0.1979700  
O    -5.9492280    5.0364280   -0.2133760  
C    -3.6276750    4.6341970   -0.1880610  
H    -0.6261400    4.6388440   -0.1324410  
H    -3.4071200    5.6972060   -0.1987600  
H    -1.8414720    0.5410360   -0.1768250  
C     1.7200300    2.6761580   -0.5205410  
C     0.6144910    1.9481630   -0.1587370  
C     1.0943580    0.6006410    0.1624170  
C     2.5599350    0.6289580   -0.0460080  
N     2.8705700    1.9287880   -0.4244840  
C     3.4107920   -0.4263530    0.1026200  
C     2.8036440   -1.7086230    0.5373720  
O     3.4694830   -2.6866100    0.8179950  
C     1.2470130   -1.7745300    0.7038520  
O     0.7234630   -2.8506560    0.9446140  
C     0.4714490   -0.5407120    0.5606960  
H    -0.5912340   -0.6190050    0.7588000  
H     1.7661230    3.7013690   -0.8632580  
H     3.7748380    2.2083750   -0.7759710  
C     6.5989620    1.9349560    2.0491670  
C     7.6683880    1.4909100    1.3445970  
C     7.1792320    0.5374500    0.3681150  
C     5.7106700    0.4681280    0.5632050  
N     5.4126780    1.3744370    1.5669980  
C     4.8641360   -0.3530440   -0.1266810  
C     5.4687420   -1.2040680   -1.1766940  
O     4.7998820   -1.8995060   -1.9188760  
C     7.0255870   -1.1549950   -1.3819130  
O     7.5288070   -1.8839460   -2.2201730  
C     7.8080800   -0.2266960   -0.5630900  
H     8.6978360    1.7873300    1.4838680  
H     8.8824500   -0.2003530   -0.7169160  
H     6.5609190    2.6390870    2.8698870  
H     4.5417150    1.3650970    2.0778240  
C    -4.5367820    0.2928960   -0.1105530  
C    -5.7301400   -0.3923110   -0.1228220  
C    -5.3937890   -1.7821560   -0.0319660  
C    -3.8919430   -1.8127090    0.0357500  
N    -3.4004440   -0.6082200   -0.0196540  
C    -3.1566790   -3.0417960    0.1532690  
C    -3.8798800   -4.1880100    0.1843190  
O    -3.3509810   -5.4073680    0.2917070  
C    -5.3996830   -4.1972540    0.1034220  
O    -5.9411610   -5.3040720    0.1397260  
C    -6.1162350   -2.9340070   -0.0027730  
H    -6.7151010    0.0406420   -0.1842140  
H    -2.0738130   -3.0435850    0.2313930  
H    -4.1223420   -6.0217340    0.2863370  
H    -7.1997190   -2.9706660   -0.0520150  
