58


C     0.0614470    1.8438530    0.1433330  
C     1.3860310    1.4322670    0.1800010  
C     1.3653790    0.0170660    0.1443150  
C    -0.0963190   -0.3336780    0.0910490  
N    -0.8406250    0.7328120    0.0864630  
C    -0.5658810   -1.7151380    0.0255080  
C     0.4329990   -2.6481950   -0.0782350  
O     0.2174070   -3.9662770   -0.1749640  
C     1.9126870   -2.3340140   -0.0304840  
O     2.6473820   -3.3228280   -0.0369030  
C     2.3640040   -0.9401450    0.0812810  
H     2.2618280    2.0629630    0.1682410  
H     1.1289190   -4.3608390   -0.1833400  
C     0.2055180    4.3598180    0.3199550  
C    -0.4677320    3.1612800    0.1393320  
C    -1.8716050    3.5767790   -0.0578720  
C    -1.8269410    5.0603540    0.0469660  
N    -0.5977420    5.4906730    0.2676450  
C    -2.9933120    5.8722530   -0.0912700  
C    -4.1720330    5.2389460   -0.3349240  
O    -5.3404070    5.8652170   -0.4854390  
C    -4.2522140    3.7366110   -0.4623290  
O    -5.3543020    3.2449710   -0.6841660  
C    -3.0219430    2.9279950   -0.3175330  
H    -2.9228350    6.9506960   -0.0057910  
H    -6.0063230    5.1599740   -0.6504090  
H    -3.0965620    1.8531070   -0.4292540  
H     1.2664700    4.4828780    0.5063750  
C     3.7788340   -0.6365400    0.1330910  
C     4.3933210    0.3814990    0.8216090  
C     5.8033410    0.2493970    0.5406890  
C     5.8830660   -0.9276780   -0.3824770  
N     4.7121090   -1.4436730   -0.6111470  
C     7.1418110   -1.3775400   -0.9196700  
C     8.2598750   -0.7122680   -0.5443870  
O     9.4960200   -1.0232480   -0.9570310  
C     8.2119610    0.4681260    0.3977490  
O     9.2805130    1.0093940    0.6798300  
C     6.9158870    0.9184720    0.9237310  
H     3.9365170    1.0912640    1.4960790  
H     7.1731880   -2.2278940   -1.5914690  
H    10.0889910   -0.3715610   -0.5201300  
H     6.9200420    1.7751610    1.5907350  
C    -1.9803460   -2.0507220    0.0652910  
C    -3.0598800   -1.2486480    0.3546740  
C    -4.2459150   -2.0582180    0.2923610  
C    -3.7942490   -3.4270720   -0.0603620  
N    -2.4268930   -3.3547210   -0.1919750  
C    -4.6232760   -4.4929330   -0.2074950  
C    -6.0548620   -4.2913930   -0.0118860  
O    -6.8770830   -5.1889810   -0.1221620  
C    -6.5572450   -2.8464010    0.3577460  
O    -7.7536040   -2.6602260    0.5245420  
C    -5.5651340   -1.7784970    0.4887830  
H    -3.0037810   -0.2026430    0.6016900  
H    -4.2752760   -5.4885130   -0.4650980  
H    -5.9227950   -0.7849370    0.7420390  
H    -1.8073820   -4.1332890   -0.3574660  
