58


C     1.8942730   -0.4038110   -0.0108020  
C     3.2029480   -0.0217060   -0.0362800  
C     3.2082360    1.4427450   -0.0207550  
C     1.7882630    1.8660910   -0.0017440  
N     1.0184120    0.6809990   -0.0063790  
C     1.3814080    3.1523620    0.0781930  
C     2.3982660    4.2096910    0.0857650  
O     2.1113100    5.3921790    0.1630230  
C     3.9011100    3.7866860   -0.0140260  
O     4.7638020    4.6477860   -0.0487080  
C     4.2128190    2.3526210   -0.0440090  
H     0.3436670    3.4578180    0.1034390  
H     5.2589510    2.0725250   -0.0465050  
H     1.4876800   -1.4054390   -0.0073080  
C    -1.5571540   -1.6777620    2.6636260  
C    -0.4523610   -1.1438190    2.0905630  
C    -0.9501100   -0.3360590    0.9871830  
C    -2.4268410   -0.5320770    1.0075180  
N    -2.7626560   -1.3034230    2.0114820  
C    -3.3246680    0.0889830    0.0400500  
C    -2.7362600    1.0333430   -0.7651870  
O    -3.4306300    1.8191650   -1.5962140  
C    -1.2671050    1.2785550   -0.8137630  
O    -0.8386450    2.0698530   -1.6506360  
C    -0.3678610    0.5367210    0.1239560  
H     0.5743030   -1.2463600    2.4112110  
H    -2.7714650    2.3130080   -2.1295510  
H    -1.6149360   -2.3196850    3.5338560  
C    -6.6688390   -0.9056830    2.8436490  
C    -7.6871240   -0.9656910    1.9470620  
C    -7.1126860   -0.7507510    0.6378990  
C    -5.6580860   -0.5285480    0.8613390  
N    -5.4622810   -0.6044650    2.2206400  
C    -4.7438310   -0.2593050   -0.1315970  
C    -5.2549210   -0.4281860   -1.5188660  
O    -4.5210790   -0.5414200   -2.4842820  
C    -6.8014630   -0.5305360   -1.7600490  
O    -7.2172920   -0.4630830   -2.9059590  
C    -7.6678260   -0.7217760   -0.6032500  
H    -8.7299970   -1.1477840    2.1619680  
H    -8.7337930   -0.8356380   -0.7750640  
H    -6.6934340   -1.0421150    3.9170360  
H    -4.5312340   -0.8462690    2.5725140  
C     4.0291810   -3.7041680   -2.4153170  
C     3.4411650   -2.5671590   -1.9701210  
C     4.3381950   -2.0518260   -0.9408450  
C     5.4566820   -3.0425740   -0.9129680  
N     5.2673970   -4.0070730   -1.7681390  
C     6.5850660   -2.8922140   -0.0313000  
C     6.6106020   -1.8088620    0.7775630  
O     7.6034630   -1.5375630    1.6400560  
C     5.4972360   -0.7971800    0.7878460  
O     5.5934740    0.1340530    1.5833190  
C     4.3220300   -0.9621850   -0.1243520  
H     2.5258420   -2.1135240   -2.3219260  
H     7.3808540   -3.6285610   -0.0369290  
H     7.3439280   -0.7084840    2.0967580  
H     3.6762340   -4.3750470   -3.1894050  
