58


C     0.4663610    1.0200110   -0.6792030  
C     1.7532690    1.0607950   -0.2051470  
C     1.9216200    2.3661140    0.4310360  
C     0.6170290    3.0571170    0.3101940  
N    -0.2268340    2.1924340   -0.4131250  
C     0.3342710    4.2576390    0.8674520  
C     1.3998950    4.9541510    1.5929990  
O     1.2280010    6.0384480    2.1269100  
C     2.8064950    4.2682350    1.6790720  
O     3.7118590    4.8470970    2.2579340  
C     2.9690860    2.9422900    1.0729450  
H    -0.6275290    4.7460830    0.7937270  
H     3.9250480    2.4400100    1.1590940  
H    -0.0305250    0.2131690   -1.1948410  
C    -3.3915150   -0.7020710   -0.2512740  
C    -4.4769640    0.0655120   -0.6051850  
C    -3.9600820    1.3907130   -0.8656860  
C    -2.5022320    1.2679460   -0.5795070  
N    -2.1797730    0.0680660   -0.2142190  
C    -1.5847190    2.3874270   -0.7322780  
C    -2.1102120    3.5478050   -1.2256250  
O    -1.3899140    4.6418620   -1.5098310  
C    -3.5760480    3.6967610   -1.5021350  
O    -3.9522530    4.7913340   -1.9302100  
C    -4.4843720    2.5612700   -1.2966150  
H    -5.4887870   -0.2641620   -0.7999270  
H    -2.0490050    5.3016710   -1.8297180  
H    -5.5342330    2.7204200   -1.5216930  
C    -6.2448060   -3.3694610    1.7482780  
C    -5.5300280   -4.5212690    1.7317200  
C    -4.2725540   -4.2364020    1.0706770  
C    -4.3221180   -2.8082600    0.6867600  
N    -5.5464430   -2.3472230    1.1007850  
C    -3.3045680   -2.1096100    0.0736280  
C    -2.0920790   -2.8897930   -0.2727900  
O    -1.1726030   -2.4505440   -0.9409740  
C    -2.0068880   -4.3915990    0.1846870  
O    -0.9691400   -5.0011090   -0.0116580  
C    -3.1759970   -5.0008460    0.8208100  
H    -5.8333290   -5.4742170    2.1397940  
H    -3.1098900   -6.0465750    1.1049220  
H    -7.2242830   -3.1695230    2.1613860  
H    -5.7921650   -1.3674350    1.1214430  
C     2.6999910   -0.0169290   -0.3104940  
C     2.4760070   -1.3189900   -0.6931350  
C     3.7549810   -1.9670550   -0.6266040  
C     4.6978390   -0.8884140   -0.1671530  
N     4.0788720    0.2395310    0.0205620  
C     6.1017000   -1.1425200    0.0244290  
C     6.5448460   -2.3984200   -0.2171090  
O     7.8172110   -2.7907520   -0.0837250  
C     5.6172840   -3.5108590   -0.6742010  
O     6.1355670   -4.6138010   -0.8626010  
C     4.1985750   -3.2287980   -0.8648490  
H     1.5330890   -1.7864540   -0.9455570  
H     6.7619800   -0.3473550    0.3522050  
H     7.8128630   -3.7451930   -0.3294850  
H     3.5617820   -4.0453170   -1.1902910  
