58


C    -4.1671000   -0.2691890   -0.0455510  
C    -4.5406260   -1.5826320    0.0103720  
C    -5.9834210   -1.5819480   -0.1441400  
C    -6.3359510   -0.1322930   -0.2731650  
N    -5.2817910    0.6266050   -0.2213970  
C    -7.7019840    0.2989970   -0.4283770  
C    -8.6631050   -0.6537550   -0.4708920  
O    -9.9704880   -0.3984770   -0.6174950  
C    -8.3360770   -2.1228470   -0.3552450  
O    -9.2703690   -2.9197130   -0.4027380  
C    -6.9319710   -2.5414240   -0.1866690  
H    -3.9003560   -2.4495420    0.0917190  
H    -7.9312330    1.3550760   -0.5149910  
H   -10.4141270   -1.2753480   -0.6128650  
H    -6.7383820   -3.6062260   -0.0992190  
C    -0.5941280   -1.2073920    2.4441200  
C    -1.8450440   -1.2367550    1.9228410  
C    -1.8616990   -0.1936860    0.9102070  
C    -0.4857750    0.3974430    0.9779720  
N     0.2468860   -0.2084310    1.8687510  
C    -0.0879170    1.5276240    0.1569190  
C    -1.0317720    1.9976680   -0.7087020  
O    -0.8049530    2.9836570   -1.5794170  
C    -2.4122990    1.3993070   -0.8319150  
O    -3.1265450    1.8549500   -1.7163360  
C    -2.8186050    0.2733360    0.0597740  
H    -2.6694690   -1.8741260    2.2054110  
H    -1.6439790    3.0908540   -2.0831570  
H    -0.1870070   -1.8304630    3.2315320  
C     4.1741890    0.1094100   -0.0911650  
C     2.8082050    0.1235810   -0.0689700  
C     2.4326720    1.4994910    0.1763680  
C     3.7416250    2.2174930    0.2789360  
N     4.7498820    1.4146050    0.1115140  
C     3.8130540    3.6343500    0.5234440  
C     2.6463850    4.3044680    0.6566180  
O     2.5583230    5.6215030    0.8975900  
C     1.3096990    3.6133030    0.5696860  
O     0.3137190    4.2980790    0.7839180  
C     1.2432520    2.1512460    0.2722950  
H     2.1387640   -0.7088120   -0.2182610  
H     4.7763060    4.1265950    0.5946770  
H     1.5968360    5.8097510    0.9727370  
C     4.0437430   -4.0976770    1.3515140  
C     3.7223590   -2.7943210    1.1501080  
C     4.7720230   -2.2762800    0.2861740  
C     5.6794880   -3.4482940    0.0790030  
N     5.2442190   -4.5099680    0.6988030  
C     6.8821230   -3.3466900   -0.7024700  
C     7.1768570   -2.1440550   -1.2481110  
O     8.2607560   -1.9061650   -2.0019340  
C     6.2750150   -0.9440020   -1.0884700  
O     6.5914280    0.0686930   -1.7015950  
C     5.0345690   -1.0528230   -0.2576490  
H     2.8877240   -2.2395690    1.5537780  
H     7.5192440   -4.2138720   -0.8362680  
H     8.1827810   -0.9662260   -2.2798890  
H     3.5068520   -4.8279110    1.9459870  
