58


C    -0.1220110    0.2186420    0.4934840  
C     0.3850790    1.4929240    0.6996670  
C    -0.7019730    2.4173130    0.6264220  
C    -1.9151430    1.6103650    0.3661780  
N    -1.5039220    0.3172590    0.3040130  
C    -3.1984380    2.1296080    0.2231410  
C    -3.3195940    3.6005590    0.3395430  
O    -4.3754890    4.2014770    0.2272910  
C    -2.0335020    4.4588570    0.6248660  
O    -2.1524370    5.6715820    0.7239260  
C    -0.7543550    3.7770360    0.7563830  
H     1.4040280    1.7513940    0.9375460  
H     0.1262420    4.3814030    0.9520710  
H    -2.1538220   -0.4607720    0.1808260  
C     4.1820560   -0.9276230    0.0577990  
C     2.9702470   -0.2521230    0.0690140  
C     1.9387020   -1.1868290    0.3577500  
C     2.6099710   -2.4992000    0.5025970  
N     3.9571640   -2.2705890    0.3378280  
C     1.9842090   -3.6773030    0.7538670  
C     0.5341930   -3.6709050    0.8537540  
O    -0.1283640   -4.6670570    1.0935180  
C    -0.2215120   -2.3130600    0.6268730  
O    -1.4416420   -2.3616500    0.5655050  
C     0.5561470   -1.0575610    0.4920270  
H     2.8756260    0.7950070   -0.1549440  
H     2.5090900   -4.6189420    0.8795210  
H     4.6823730   -2.9726480    0.3458140  
C     5.5691900    3.1725430   -0.7895700  
C     6.8984130    2.9838800   -0.9421420  
C     7.1090230    1.5564650   -0.7377560  
C     5.7391720    1.0170010   -0.4627670  
N     4.8533610    1.9657980   -0.4923140  
C     5.5090980   -0.4089710   -0.1994610  
C     6.6360260   -1.1947310   -0.2177710  
O     6.6329070   -2.5220670    0.0007840  
C     8.0118580   -0.6672070   -0.4883470  
O     8.9331990   -1.4867920   -0.4750080  
C     8.1988510    0.7633050   -0.7514350  
H     7.6592370    3.7182190   -1.1662370  
H     7.5802340   -2.7937300   -0.0792410  
H     9.2097250    1.1097310   -0.9428310  
H     5.0071420    4.0950340   -0.8634210  
C    -4.3509930    1.3070360   -0.0183410  
C    -5.6741130    1.6522800   -0.1868750  
C    -6.3811430    0.4209450   -0.3855680  
C    -5.3228260   -0.6435080   -0.3102740  
N    -4.1506130   -0.1252050   -0.1017470  
C    -5.6322260   -2.0403370   -0.4585750  
C    -6.9285650   -2.3644370   -0.6764680  
O    -7.3798760   -3.6130150   -0.8357960  
C    -8.0247040   -1.3151480   -0.7625410  
O    -9.1672480   -1.7342910   -0.9656700  
C    -7.6826090    0.0921730   -0.6049910  
H    -6.0852470    2.6479980   -0.1692040  
H    -4.8464640   -2.7847160   -0.3904870  
H    -8.3511420   -3.5124370   -0.9726660  
H    -8.4885230    0.8161790   -0.6705030  
