60


C    -3.6189830   -0.1891860    0.0297850  
C    -2.3156010    0.3157280   -0.0923430  
C    -2.3699310    1.7120340    0.1159820  
C    -3.7388450    2.0313900    0.3530710  
N    -4.4604920    0.8690300    0.3037730  
C    -4.1959530    3.3360410    0.5669560  
C    -3.2583240    4.3547880    0.5303690  
O    -3.6437860    5.6416130    0.7204530  
C    -1.8781060    4.0905630    0.2971080  
O    -1.1170830    5.2037400    0.2967460  
C    -1.3886690    2.7694190    0.1066490  
H    -1.4649140   -0.2941810   -0.3339240  
H    -5.4622510    0.7359070    0.4248200  
H    -5.2404090    3.5695280    0.7452330  
H    -2.8364290    6.1854190    0.6522790  
H    -0.1665800    4.9180570    0.1015620  
C     0.0149740    2.5357780   -0.0630260  
C     0.7497430    1.3592590   -0.1358190  
C     2.1094520    1.7282040   -0.3010020  
C     2.0944920    3.2201120   -0.3066350  
N     0.8790060    3.6766480   -0.1690600  
C     3.2844650    4.0086860   -0.4311420  
C     4.4518330    3.3307750   -0.5166830  
O     5.6483990    3.9111420   -0.6198350  
C     4.5222300    1.8100340   -0.5039640  
O     5.6648560    1.3475080   -0.5975130  
C     3.2961620    1.0088400   -0.4094480  
H     0.3785300    0.3567440   -0.0205890  
H     3.2386110    5.0917080   -0.4407680  
H     6.2882680    3.1614650   -0.6709150  
C     2.3675740   -1.2485740   -1.0316820  
C     3.3429830   -0.4383450   -0.4998480  
C     4.3658980   -1.4040890   -0.0144570  
C     3.7933740   -2.7367870   -0.3539450  
N     2.6366800   -2.6252790   -0.9586580  
C     4.4653060   -3.9654920   -0.0361310  
C     5.6502790   -3.8903530    0.6177880  
O     6.3833810   -4.9537380    0.9844320  
C     6.2464930   -2.5677680    0.9964360  
O     7.3209710   -2.5725220    1.5963820  
C     5.5403170   -1.3172280    0.6392220  
H     4.0145520   -4.9128150   -0.3104560  
H     7.1730310   -4.5809600    1.4351960  
H     6.0279430   -0.3879560    0.9036060  
H     1.4580390   -0.9265150   -1.5220370  
C    -7.7036320   -1.7408580    0.4019760  
C    -7.5190080   -3.0626950    0.1911960  
C    -6.0862930   -3.2208220   -0.0380730  
C    -5.5383890   -1.8383000    0.0754000  
N    -6.4902330   -0.9844550    0.3320420  
C    -4.1138520   -1.5405310   -0.0885560  
C    -3.3139510   -2.6272090   -0.3587490  
O    -1.9815370   -2.5317600   -0.5400980  
C    -3.8330520   -4.0078070   -0.4746540  
O    -3.0304200   -4.9162510   -0.7160960  
C    -5.2798080   -4.2648880   -0.3007360  
H    -8.2604000   -3.8493620    0.1886520  
H    -1.6794720   -3.4533080   -0.7085290  
H    -5.6139930   -5.2937560   -0.3955440  
H    -8.6265880   -1.2137500    0.6087030  
