58


C    -0.8272610   -1.7191420    1.4851610  
C    -0.3954620   -1.8055780    2.7855620  
C     1.0427280   -1.7066800    2.7284270  
C     1.3408770   -1.5414680    1.2686550  
N     0.2596260   -1.5597930    0.5526410  
C     2.7028530   -1.4106830    0.7752500  
C     3.6924770   -1.4846770    1.7066450  
O     4.9964530   -1.3880060    1.4151970  
C     3.4174480   -1.6584230    3.1779410  
O     4.3888400   -1.6980830    3.9333540  
C     2.0304190   -1.7656310    3.6496790  
H    -0.9923640   -1.9337270    3.6778890  
H     5.4608420   -1.4710550    2.2782530  
H     1.8731470   -1.8952400    4.7159880  
C    -2.1858700   -1.7743550    1.0064210  
C    -3.3299730   -1.9104710    1.7547500  
C    -4.4192490   -1.9136440    0.8093090  
C    -3.7463040   -1.7648220   -0.5226780  
N    -2.4556630   -1.6837850   -0.4068450  
C    -4.5064330   -1.7237270   -1.7474220  
C    -5.8530550   -1.8239700   -1.6570670  
O    -6.6843020   -1.8010420   -2.7090370  
C    -6.5575950   -1.9743720   -0.3290150  
O    -7.7852970   -2.0579110   -0.3468430  
C    -5.7654510   -2.0141830    0.9085380  
H    -3.4138750   -1.9974210    2.8291620  
H    -3.9967760   -1.6160700   -2.6982860  
H    -7.5867340   -1.8928310   -2.3296060  
H    -6.3075900   -2.1232400    1.8429110  
C     1.6302020    1.8304360   -2.0053740  
C     2.1461190    1.3479810   -3.1880800  
C     2.7520640    0.0906230   -2.8691400  
C     2.5059750   -0.0789960   -1.3948700  
N     1.8698590    0.9375010   -0.8986420  
C     2.9758920   -1.2432010   -0.6676480  
C     3.6848170   -2.1538260   -1.3888500  
O     4.1918950   -3.2778730   -0.8766440  
C     3.9532500   -2.0034340   -2.8735530  
O     4.5999850   -2.9093220   -3.4055430  
C     3.4477740   -0.8354480   -3.5793600  
H     2.1109560    1.8132080   -4.1633040  
H     4.6339200   -3.7222560   -1.6384220  
H     3.6610590   -0.7559410   -4.6404820  
C     0.6158600    4.0709200   -2.6191260  
C     0.9256960    3.0470610   -1.7507100  
C     0.3524690    3.4929600   -0.4630880  
C    -0.2572370    4.8119900   -0.7751410  
N    -0.0919500    5.1313630   -2.0400680  
C    -0.9320030    5.5933290    0.2197660  
C    -1.0027060    5.0840590    1.4755980  
O    -1.6004210    5.6981530    2.5055410  
C    -0.3992560    3.7467440    1.8219550  
O    -0.5117950    3.3580610    2.9827330  
C     0.2924740    2.9653360    0.7737520  
H    -1.3648370    6.5526600   -0.0409210  
H    -1.4892490    5.0918900    3.2715680  
H     0.7215300    2.0040650    1.0304290  
H     0.8647420    4.1289030   -3.6725650  
