58


C     5.0005770   -0.2581030   -0.1718480  
C     5.8270620   -0.7095380   -1.1625400  
C     7.1735010   -0.4181300   -0.7081820  
C     6.9755950    0.2198870    0.6320410  
N     5.7165370    0.3171010    0.9394430  
C     8.0943480    0.6463300    1.4344610  
C     9.3374720    0.4671790    0.9291750  
O    10.4661510    0.8214150    1.5603080  
C     9.5662110   -0.1619580   -0.4234860  
O    10.7287910   -0.2865270   -0.8036380  
C     8.4083190   -0.6002790   -1.2231990  
H     5.5445570   -1.1387550   -2.1133800  
H     7.9245290    1.1015460    2.4036650  
H    11.1971810    0.5698710    0.9534900  
H     8.6143230   -1.0554470   -2.1872160  
C     1.9785550   -3.3082230   -1.3227360  
C     3.1611730   -2.6885020   -1.0963010  
C     2.8103630   -1.3771870   -0.5745080  
C     1.3127620   -1.3838740   -0.5382950  
N     0.8438130   -2.5132490   -0.9857110  
C     0.5250840   -0.2474990   -0.0546950  
C     1.2740170    0.8057130    0.4033730  
O     0.7408530    1.9275910    0.9261690  
C     2.7669070    0.8532770    0.3640640  
O     3.2995680    1.8968880    0.7373630  
C     3.5449420   -0.3163870   -0.1444030  
H     4.1577270   -3.0768240   -1.2447520  
H     1.5161010    2.4963650    1.1417980  
H     1.8103310   -4.3064660   -1.7087110  
C    -1.7024930   -1.4374170   -0.0153150  
C    -0.9305150   -0.3040920   -0.0539460  
C    -1.9228340    0.7922490   -0.1481660  
C    -3.2418280    0.0909390   -0.0988770  
N    -3.0945460   -1.2025650   -0.0298080  
C    -4.5074260    0.7946840   -0.1742870  
C    -4.4438070    2.1379980   -0.3824170  
O    -5.5171800    2.9329810   -0.4881700  
C    -3.1346990    2.8634680   -0.4926220  
O    -3.1747000    4.0791200   -0.6800050  
C    -1.8671510    2.1197660   -0.3666180  
H    -5.1542950    3.8359670   -0.6303410  
H    -0.9520580    2.6922160   -0.4383260  
H    -1.3447460   -2.4556350    0.0141270  
C    -6.1924020   -1.4814830    3.1759560  
C    -7.3510470   -1.9512190    2.6607090  
C    -7.4018640   -1.4219380    1.3009960  
C    -6.1279430   -0.6428170    1.1665630  
N    -5.4367670   -0.6691180    2.2660170  
C    -5.7851630    0.0615930   -0.0579580  
C    -6.7020620    0.0170690   -1.0617250  
O    -6.5382800    0.6158420   -2.2502750  
C    -7.9934310   -0.7483680   -0.9445810  
O    -8.7478930   -0.7368660   -1.9160430  
C    -8.3011290   -1.4743760    0.3002320  
H    -8.0959990   -2.5726910    3.1377290  
H    -7.3503270    0.4008060   -2.7612300  
H    -9.2462530   -2.0070490    0.3443030  
H    -5.7893940   -1.6452170    4.1683580  
