60


C     2.0523320   -0.3568900   -1.0190000  
C     3.0630680    0.1982750   -0.2379330  
C     2.4925080    1.3789520    0.3835980  
C     1.1528450    1.4713730   -0.0601420  
N     0.9270120    0.4013760   -0.9174920  
C     0.2763880    2.5139640    0.3026050  
C     0.7977540    3.4738400    1.1782020  
O    -0.0009040    4.4736480    1.6325970  
C     2.1351480    3.3932680    1.6372920  
O     2.4845800    4.4145230    2.4954470  
C     2.9836530    2.3705980    1.2508040  
H     0.0375080    0.1897200   -1.3457890  
H     0.5479610    5.0583010    2.1842610  
H     3.4140070    4.3250120    2.7532430  
H     4.0044280    2.3443400    1.6204680  
H     2.0958660   -1.2463050   -1.6282900  
C    -3.3006060   -0.2158280    0.2238150  
C    -2.0412950    0.3033820    0.4596110  
C    -2.0349810    1.6081530   -0.1306270  
C    -3.4100480    1.7551640   -0.7125620  
N    -4.1371770    0.6939210   -0.5068000  
C    -3.8258590    2.9516630   -1.3909430  
C    -2.9198560    3.9510430   -1.4911730  
O    -3.1546800    5.1202970   -2.0943150  
C    -1.5075780    3.8287800   -0.9470670  
O    -0.7548470    4.7693580   -1.1914700  
C    -1.1009700    2.6093050   -0.2163880  
H    -1.2364230   -0.1547040    1.0165680  
H    -4.8280680    3.0334250   -1.7962490  
H    -2.3023270    5.6117590   -2.0374680  
C    -3.2475320   -2.5067880    1.3072350  
C    -3.8455140   -1.4781870    0.6093280  
C    -5.2096950   -1.9815540    0.3428650  
C    -5.2247520   -3.3322200    0.9648070  
N    -4.0674540   -3.6183200    1.5224760  
C    -6.3832750   -4.1740930    0.9309380  
C    -7.4880790   -3.6953530    0.3038690  
O    -8.6404690   -4.3667210    0.1928630  
C    -7.5054360   -2.3297790   -0.3365430  
O    -8.5461550   -1.9742360   -0.8837530  
C    -6.2922840   -1.4844160   -0.2840830  
H    -6.3598610   -5.1538980    1.3945920  
H    -9.2456030   -3.7721570   -0.3045100  
H    -6.3153580   -0.5045530   -0.7464440  
H    -2.2336510   -2.5293650    1.6906100  
C     4.3671200   -0.3765480   -0.1497550  
C     5.4866410    0.0070380    0.5524610  
C     6.4975930   -0.9609420    0.2482950  
C     5.8201070   -1.9188540   -0.6938530  
N     4.5868440   -1.5793560   -0.9228240  
C     6.5155390   -3.0558720   -1.2388760  
C     7.8060620   -3.2311910   -0.8708720  
O     8.5837090   -4.2361420   -1.2906380  
C     8.5170990   -2.2819000    0.0781350  
O     9.6949470   -2.5517010    0.3362340  
C     7.7960250   -1.1414290    0.6162270  
H     5.6032400    0.8592340    1.2055010  
H     6.0088060   -3.7340280   -1.9164510  
H     9.4505250   -4.0778820   -0.8465740  
H     8.3321990   -0.4821990    1.2916840  
