60


C    -2.6568380    1.1466880   -0.0138230  
C    -3.4982210    0.0638340   -0.0769520  
C    -2.6458680   -1.1017190   -0.3130770  
C    -1.3098210   -0.6444530   -0.3732280  
N    -1.3317010    0.7576340   -0.1643960  
C    -0.2344290   -1.4861260   -0.6635710  
C    -0.5101060   -2.8315050   -0.8725620  
O     0.5108960   -3.6929610   -1.1400420  
C    -1.8386430   -3.3086350   -0.8107930  
O    -1.9657850   -4.6618130   -1.0413120  
C    -2.9014920   -2.4619820   -0.5423050  
H     0.7797410   -1.1210740   -0.7311510  
H     0.1220130   -4.5764350   -1.2612220  
H    -2.8954910   -4.9193460   -0.9522920  
H    -3.9100960   -2.8512290   -0.4731850  
H    -2.8973150    2.1799420    0.1659240  
C    -0.2833330    1.6403920   -0.1111830  
C    -0.3385890    3.0195690   -0.1159890  
C     1.0154390    3.4408780   -0.0185490  
C     1.8157750    2.1620460    0.0484810  
N     1.0319440    1.1213420   -0.0130770  
C     3.2676460    2.1429340    0.1566280  
C     3.8552470    3.3928580    0.1869600  
O     5.1478860    3.6271140    0.3182540  
C     3.0595250    4.6972290    0.1070560  
O     3.7380430    5.7304130    0.1489420  
C     1.6236540    4.6603530    0.0042710  
H    -1.2039490    3.6567850   -0.2159790  
H     5.2151680    4.6179550    0.3045510  
H     1.0900550    5.6036770   -0.0449930  
C     4.0050690    0.8937550    0.2197270  
C     3.5312730   -0.3657070    0.4822580  
C     4.6752530   -1.2412310    0.4052360  
C     5.8161810   -0.3289610    0.0702460  
N     5.4304600    0.9050880   -0.0356570  
C     7.1566460   -0.8321400   -0.1060440  
C     7.3509780   -2.1619020    0.0482500  
O     8.5377890   -2.7752350   -0.0796340  
C     6.2178720   -3.1060240    0.3874610  
O     6.5035700   -4.2994240    0.5039000  
C     4.8633140   -2.5742210    0.5554850  
H     2.5166040   -0.6464880    0.7102260  
H     7.9655670   -0.1525380   -0.3500170  
H     8.3487200   -3.7264690    0.0885020  
H     4.0714660   -3.2806760    0.7845730  
C    -6.5886440   -2.6394350    1.6351940  
C    -7.7223200   -1.9413610    1.4100640  
C    -7.2883570   -0.7170130    0.7439670  
C    -5.7988300   -0.8599450    0.6342540  
N    -5.4062730   -1.9838450    1.1574200  
C    -4.9560430    0.1746480    0.0308020  
C    -5.6307850    1.2956010   -0.3832650  
O    -5.0276800    2.3742910   -0.9211570  
C    -7.1153940    1.4445980   -0.3102650  
O    -7.6102860    2.4778320   -0.7656590  
C    -7.9298970    0.3730460    0.2889130  
H    -8.7379030   -2.2036860    1.6718350  
H    -5.7665000    2.9749500   -1.1727220  
H    -9.0036840    0.5262550    0.3364030  
H    -6.4784330   -3.6013030    2.1212680  
