58


C     0.3356640    1.5442690   -0.3540920  
C    -1.0234750    1.4591300   -0.2104080  
C    -1.3537400    0.0638690   -0.0858450  
C    -0.0744250   -0.6708040   -0.1512110  
N     0.9265820    0.2880320   -0.2848490  
C     0.0815900   -2.0233160   -0.0990250  
C    -1.1550140   -2.8106760    0.1207390  
O    -1.1374350   -4.0066150    0.3379200  
C    -2.5322330   -2.0638940    0.1426930  
O    -3.5508640   -2.7330040    0.1594000  
C    -2.5499710   -0.5879110    0.0948300  
H    -1.7133230    2.2861220   -0.1440620  
H     1.8342720    0.0719200   -0.6727510  
C     0.6619040    3.8515650   -1.1558730  
C     1.6274840    4.7951440   -1.1897200  
C     2.8090210    4.2443370   -0.5553970  
C     2.4505180    2.8701370   -0.1300120  
N     1.1231040    2.6672760   -0.5425220  
C     3.2818260    2.0507120    0.5597510  
C     4.6320060    2.5236630    0.8693830  
O     5.4338340    1.8425430    1.4902210  
C     5.0475580    3.9554470    0.3852760  
O     6.1767370    4.3563310    0.6102640  
C     4.0404750    4.7619010   -0.3161990  
H     1.5392270    5.7804300   -1.6243110  
H     3.0094060    1.0671020    0.9212350  
H     4.3205660    5.7672400   -0.6152050  
H    -0.3467970    3.8754370   -1.5437050  
C    -4.8830170    2.3008200   -2.4397480  
C    -3.8930410    1.4801210   -2.0103010  
C    -4.3560900    0.9661940   -0.7254990  
C    -5.6965930    1.6052830   -0.5471060  
N    -5.9946100    2.3867220   -1.5479320  
C    -6.5237470    1.3316050    0.5987170  
C    -6.0481930    0.4684740    1.5253630  
O    -6.7055220    0.1271530    2.6442730  
C    -4.6851190   -0.1606750    1.4021470  
O    -4.2861130   -0.8232670    2.3531670  
C    -3.8483580    0.0948210    0.1848440  
H    -2.9701290    1.2269560   -2.5117000  
H    -7.4934700    1.8070960    0.6946640  
H    -6.1021450   -0.4765210    3.1306820  
H    -4.9216820    2.8669250   -3.3633240  
C     3.9724210   -1.6620850    2.0746510  
C     2.6712230   -1.5446190    1.6881640  
C     2.4680560   -2.4418050    0.5709750  
C     3.7688980   -3.1248300    0.3570760  
N     4.6367780   -2.5928160    1.2943360  
C     3.9999000   -4.0840190   -0.5740840  
C     2.8976860   -4.4759850   -1.4454960  
O     2.9899950   -5.3576400   -2.2839400  
C     1.5382670   -3.7008410   -1.3137840  
O     0.6765010   -3.8889380   -2.1527210  
C     1.3778350   -2.7087550   -0.2185090  
H     1.9243260   -0.9180580    2.1512570  
H     4.9554370   -4.5851820   -0.6934430  
H     4.5024140   -1.1385800    2.8591720  
H     5.6059700   -2.8515750    1.3957810  
