60


C     3.7269900    0.1479860    0.0030460  
C     4.3528720    1.3936130    0.0095000  
C     3.3379410    2.3834670    0.0206800  
C     2.0846070    1.7030540    0.0266020  
N     2.3485380    0.3598070    0.0181300  
C     0.8430780    2.3756930    0.0098500  
C     0.9044700    3.7713980   -0.0050930  
O    -0.2436420    4.4925040    0.0302000  
C     2.1496580    4.4639120   -0.0066610  
O     2.0100020    5.8381460   -0.0079210  
C     3.3538230    3.7963230    0.0064400  
H     5.4211830    1.5389100    0.0017640  
H     1.6709290   -0.3881880   -0.0209330  
H    -0.0035170    5.4293620   -0.0820890  
H     2.8737500    6.2513420   -0.1546160  
H     4.2936560    4.3440050    0.0059260  
C    -1.0322590   -0.6504070    2.6664180  
C    -0.2105550    0.2767370    2.1124110  
C    -0.8516980    0.7559560    0.9025220  
C    -2.1392040    0.0312250    0.8068150  
N    -2.1839940   -0.8075950    1.9026330  
C    -3.0695790    0.1838550   -0.1853070  
C    -2.7600850    1.1906290   -1.2162000  
O    -3.5634300    1.5352190   -2.0653760  
C    -1.3561440    1.8935310   -1.1944070  
O    -1.0457110    2.5789020   -2.1505690  
C    -0.4538300    1.6720440   -0.0353750  
H     0.7447330    0.6001360    2.4964010  
H    -0.9021270   -1.2332490    3.5686340  
H    -2.9449400   -1.4368410    2.1044720  
C    -6.5264120   -0.2974980    2.6026170  
C    -5.3478880    0.0640070    2.0310510  
C    -5.2772740   -0.5858790    0.7354980  
C    -6.5343530   -1.3594730    0.5987040  
N    -7.2333350   -1.1625100    1.7763030  
C    -6.8953730   -2.0774560   -0.4963520  
C    -5.9806320   -2.1072610   -1.6281330  
O    -6.2253920   -2.6874180   -2.6747840  
C    -4.6000050   -1.3716870   -1.4811170  
O    -3.7575430   -1.5403900   -2.3424210  
C    -4.3364810   -0.5570750   -0.2608290  
H    -4.6156590    0.7376020    2.4499970  
H    -7.8379600   -2.6098520   -0.5783770  
H    -6.9432160   -0.0052020    3.5574900  
H    -8.1701860   -1.4932570    1.9465880  
C     7.9262680   -1.1792690   -0.0391180  
C     7.7886640   -2.5228500   -0.0712470  
C     6.3486510   -2.7583320   -0.0670340  
C     5.7489800   -1.3885390   -0.0310120  
N     6.6772830   -0.4785820   -0.0134190  
C     4.2926220   -1.1804860   -0.0185680  
C     3.5419190   -2.3330480   -0.0335610  
O     2.1807700   -2.3340830   -0.0202640  
C     4.1135340   -3.6900350   -0.0657690  
O     3.3349500   -4.6538720   -0.0762450  
C     5.5799680   -3.8615850   -0.0841920  
H     8.5625480   -3.2774880   -0.0952640  
H     1.9370470   -3.2874120   -0.0581050  
H     5.9611710   -4.8782080   -0.1100710  
H     8.8394840   -0.5968790   -0.0313900  
