60


C    -1.6371870   -0.1886050   -0.1365790  
C    -1.2702170    1.1436310   -0.0779240  
C     0.1481670    1.2118290   -0.2076360  
C     0.6087210   -0.1234370   -0.3678850  
N    -0.4924220   -0.9520890   -0.3489320  
C     1.9664360   -0.4817190   -0.5153310  
C     2.8536470    0.6013330   -0.5477200  
O     4.1820850    0.3864640   -0.7214800  
C     2.4188250    1.9499080   -0.4394890  
O     3.4531940    2.8534150   -0.5028610  
C     1.0812730    2.2947990   -0.2322410  
H    -1.9575200    1.9711500    0.0145900  
H    -0.4300130   -1.9460210   -0.1734480  
H     4.5881240    1.2753620   -0.7735250  
H     3.1646520    3.5833310   -1.0938610  
C    -2.9392410   -0.7927010   -0.0503160  
C    -4.0947690   -0.3078500    0.5050210  
C    -5.1251270   -1.2957470    0.3319510  
C    -4.4906920   -2.4279870   -0.3849870  
N    -3.1446910   -2.1005930   -0.5348790  
C    -5.1466240   -3.5395410   -0.7928220  
C    -6.5716120   -3.6596060   -0.4784050  
O    -7.2401220   -4.6276050   -0.8044960  
C    -7.2544370   -2.4933280    0.3248860  
O    -8.4404110   -2.5881240    0.6061040  
C    -6.4396120   -1.3369530    0.6903500  
H    -4.1933220    0.6297750    1.0332160  
H    -4.6694100   -4.3560610   -1.3264060  
H    -6.9252670   -0.5278180    1.2272630  
H    -2.6088450   -2.4598410   -1.3141700  
C     1.7512820   -2.8567500   -1.3869950  
C     2.3830130   -1.8756950   -0.6744200  
C     3.5358920   -2.5755360   -0.0638650  
C     3.4067900   -3.9821280   -0.5451260  
N     2.3659640   -4.1313440   -1.3196650  
C     4.3432480   -5.0053440   -0.1638340  
C     5.3522510   -4.6601730    0.6716360  
O     6.2917750   -5.5094380    1.1129500  
C     5.4987960   -3.2549340    1.1883710  
O     6.4363970   -3.0176620    1.9463020  
C     4.5267750   -2.2188190    0.7734420  
H     4.2226140   -6.0156680   -0.5384690  
H     6.8774030   -4.9769280    1.6948530  
H     4.6829160   -1.2140370    1.1473920  
H     0.8739470   -2.7437230   -2.0138450  
C    -1.5597970    4.3316820    2.7544340  
C    -0.7926140    3.3986150    2.1448300  
C    -0.2249810    4.0695300    0.9756420  
C    -0.7853180    5.4495550    1.0534660  
N    -1.5709860    5.5973800    2.0808760  
C    -0.4646030    6.4595090    0.0773370  
C     0.4127480    6.1306040   -0.8967500  
O     0.8305330    6.9853720   -1.8479440  
C     1.0431310    4.7732130   -0.9565640  
O     1.9225180    4.6178810   -1.8156380  
C     0.6218470    3.6835980   -0.0221020  
H    -0.6062570    2.3813860    2.4547150  
H    -0.9016960    7.4487810    0.1523010  
H     1.4896860    6.4979790   -2.3843460  
H    -2.1358870    4.2307120    3.6661960  
