58


C     2.4636570   -0.1686880   -1.4183900  
C     3.3107500    0.6317960   -0.7113880  
C     2.5015340    1.4405770    0.1895210  
C     1.1018930    1.0354700   -0.0591330  
N     1.1540770    0.0270400   -1.0070380  
C     0.0037890    1.5821170    0.5460890  
C     0.2634760    2.6547530    1.5310880  
O    -0.6284670    3.2189670    2.1404010  
C     1.7518560    3.0751530    1.8245200  
O     1.9560080    3.9592590    2.6384390  
C     2.8258580    2.3959350    1.0989820  
H     3.8490630    2.6902480    1.3095890  
H     2.6971880   -0.8949040   -2.1851040  
H     0.3404870   -0.3346550   -1.4825290  
C     5.4740230    1.7979570   -1.1281880  
C     6.8008800    1.5287660   -1.1076600  
C     6.9560890    0.1338290   -0.7489710  
C     5.5851620   -0.3981750   -0.5537480  
N     4.7125860    0.6627830   -0.8022110  
C     5.3039750   -1.6762440   -0.1986630  
C     6.4163990   -2.6029100    0.0038680  
O     6.2558040   -3.7698240    0.3255340  
C     7.8774580   -2.0638560   -0.2085900  
O     8.8184050   -2.8253460   -0.0546240  
C     8.0485480   -0.6569290   -0.5859250  
H     7.5983480    2.2246180   -1.3245960  
H     4.2957570   -2.0482290   -0.0514510  
H     9.0619850   -0.2917690   -0.7217770  
H     4.9600730    2.7211910   -1.3606730  
C    -1.7866290   -0.1795400    0.3432310  
C    -1.3658830    1.1159990    0.2954300  
C    -2.5341400    1.9162190   -0.0778360  
C    -3.6553180    0.9664690   -0.2571960  
N    -3.1352140   -0.3164890    0.0003910  
C    -4.9235490    1.3363020   -0.5481320  
C    -5.2042940    2.7581970   -0.7648410  
O    -6.3180340    3.1729790   -1.0390900  
C    -4.0161390    3.7721410   -0.6430430  
O    -4.2165680    4.9551150   -0.8591700  
C    -2.6970580    3.2485750   -0.2641860  
H    -5.7465320    0.6412130   -0.6575600  
H    -1.8977560    3.9647830   -0.1141370  
H    -1.2250650   -1.0660060    0.6067510  
C    -3.3736010   -3.6036050    2.9456010  
C    -3.0601080   -2.4074280    2.3880650  
C    -3.7197190   -2.4158810    1.0877030  
C    -4.3984840   -3.7432850    1.0309890  
N    -4.1932120   -4.4305120    2.1191150  
C    -5.1908160   -4.1522580   -0.1009400  
C    -5.3056530   -3.2930250   -1.1388760  
O    -6.0177000   -3.5452970   -2.2496350  
C    -4.6119320   -1.9612430   -1.1455760  
O    -4.6798210   -1.2815390   -2.1639710  
C    -3.8299440   -1.5347080    0.0599750  
H    -2.4848780   -1.6028600    2.8235650  
H    -5.6758000   -5.1218510   -0.0986490  
H    -5.8841800   -2.7757770   -2.8426530  
H    -3.0858440   -3.9751680    3.9216640  
