58


C     1.7925710   -0.1177560   -0.5451050  
C     3.0909310   -0.1533370   -0.1182520  
C     3.3877690    1.1783550    0.4133540  
C     2.1492920    1.9755960    0.2477320  
N     1.2085060    1.1289790   -0.3585870  
C     1.9987900    3.2550200    0.6642160  
C     3.1458490    3.9289200    1.2745700  
O     3.0952200    5.0787000    1.6805780  
C     4.4869080    3.1295430    1.3962330  
O     5.4691330    3.6810940    1.8647460  
C     4.5045490    1.7320940    0.9478980  
H     1.0831910    3.8201110    0.5511300  
H     5.4216550    1.1761840    1.0977520  
H     1.2030820   -0.9217930   -0.9583120  
C    -2.2960510   -1.1227590    0.6647040  
C    -3.3152150   -0.3516370    0.1737210  
C    -2.6236010    0.7969230   -0.4556410  
C    -1.1825650    0.5205000   -0.2109130  
N    -1.0061510   -0.6031770    0.4283420  
C    -0.1364820    1.4270590   -0.6511890  
C    -0.5242710    2.5471810   -1.3290640  
O     0.3277150    3.4494610   -1.8334720  
C    -1.9677490    2.8568960   -1.5588230  
O    -2.2342700    3.8891610   -2.1720490  
C    -3.0112620    1.9202540   -1.0864450  
H    -0.2378790    4.1406920   -2.2473050  
H    -4.0390670    2.1789890   -1.3073440  
H    -2.3875000   -2.0777000    1.1667260  
C    -5.8590390   -2.1454410    3.3678950  
C    -4.7934660   -1.6081910    2.7232030  
C    -5.2958330   -1.2204170    1.4111820  
C    -6.7375970   -1.6047480    1.4546330  
N    -7.0588330   -2.1513440    2.5933420  
C    -7.6239650   -1.3688100    0.3452450  
C    -7.1124940   -0.7616260   -0.7495180  
O    -7.8284940   -0.4661720   -1.8475160  
C    -5.6687540   -0.3547790   -0.8294620  
O    -5.3021030    0.1959640   -1.8664380  
C    -4.7368110   -0.6358530    0.3105210  
H    -3.7929840   -1.4658540    3.1044780  
H    -8.6652620   -1.6641240    0.4090760  
H    -7.2014940   -0.0411250   -2.4709600  
H    -5.8938080   -2.5456110    4.3740950  
C     3.7505060   -3.2117040   -3.2959050  
C     3.3361280   -2.0893690   -2.6582610  
C     3.9635640   -2.1439570   -1.3412500  
C     4.7525490   -3.4077370   -1.3758860  
N     4.6190540   -4.0311940   -2.5139110  
C     5.5569400   -3.8351240   -0.2599470  
C     5.5857670   -3.0409000    0.8335400  
O     6.3030520   -3.3061910    1.9387230  
C     4.7947970   -1.7639140    0.9104620  
O     4.8667350   -1.1258380    1.9578450  
C     3.9453610   -1.3320600   -0.2461210  
H     2.7089950   -1.2997980   -3.0463950  
H     6.1204110   -4.7596210   -0.3185240  
H     6.1146280   -2.5705150    2.5607370  
H     3.5093960   -3.5314360   -4.3027570  
