58


C    -0.7551130   -3.0425990   -0.1410420  
C    -1.1230570   -1.7538830    0.1852180  
C    -2.4072160   -1.4903140   -0.3869690  
C    -2.8007740   -2.7313460   -1.0955300  
N    -1.7857950   -3.6448520   -0.8703960  
C    -3.9516130   -2.8990350   -1.7923260  
C    -4.8946230   -1.7887250   -1.8433580  
O    -5.9712130   -1.8523000   -2.4151650  
C    -4.5008320   -0.4514030   -1.1263310  
O    -5.2071900    0.5274270   -1.2953270  
C    -3.2469500   -0.3979060   -0.3338460  
H    -0.5564250   -1.0780920    0.8052550  
H    -4.2216200   -3.8277030   -2.2856290  
H    -1.6633550   -4.4851830   -1.4158020  
C     0.1941300    2.5255920   -0.0181010  
C    -0.5758710    1.4465220   -0.3880670  
C    -1.8018700    1.5590940    0.3609610  
C    -1.6216320    2.8076320    1.1635690  
N    -0.4674400    3.3639750    0.9432010  
C    -2.6445930    3.3050200    2.0449610  
C    -3.7941510    2.5977400    2.1284320  
O    -4.8278940    2.9307730    2.9141970  
C    -4.0004180    1.3115600    1.3677250  
O    -5.0168360    0.6753470    1.6291270  
C    -2.9570740    0.8281940    0.4139530  
H    -0.3119140    0.6836650   -1.1006720  
H    -2.4807120    4.2156520    2.6100470  
H    -5.4863820    2.2099900    2.7952970  
C     3.1305290    0.1828730   -2.3034270  
C     4.1401780    1.0658680   -2.4618720  
C     3.6978940    2.2711660   -1.7749080  
C     2.3352840    1.9272540   -1.2446440  
N     2.0266110    0.6997320   -1.5518080  
C     1.5220320    2.8800390   -0.4843280  
C     2.1104740    4.1106400   -0.2705450  
O     1.5464840    5.1322920    0.3665960  
C     3.4881920    4.4566190   -0.7853690  
O     3.9119520    5.5853170   -0.5396170  
C     4.2606090    3.4722720   -1.5540740  
H     5.0805780    0.9287300   -2.9768990  
H     2.2191990    5.8533730    0.3387600  
H     5.2456940    3.7679770   -1.9015620  
H     3.0669160   -0.8342180   -2.6714670  
C     0.6176680   -5.1276870    0.2447890  
C     0.4305850   -3.7672270    0.2013310  
C     1.7321400   -3.2099730    0.6201280  
C     2.5604780   -4.4155150    0.9031350  
N     1.8958480   -5.5228410    0.6682670  
C     3.9226010   -4.3132720    1.3389210  
C     4.4535400   -3.0704590    1.4619520  
O     5.7070460   -2.8255200    1.8646700  
C     3.6583870   -1.8351850    1.1332340  
O     4.2196690   -0.7478880    1.2475510  
C     2.2544690   -1.9698010    0.6839260  
H     4.4944960   -5.2096580    1.5509130  
H     5.8060860   -1.8478160    1.8433830  
H     1.7405820   -1.0574130    0.3955700  
H    -0.1142790   -5.8975050    0.0267230  
