62


C    -1.8232450   -0.0558460    0.4204420  
C    -1.0451030    1.0605360    0.2872870  
C    -1.9263750    2.1226080   -0.1768350  
C    -3.2280150    1.5826970   -0.2963030  
N    -3.1496640    0.2202630    0.0788140  
C    -4.3082550    2.3438220   -0.7497460  
C    -4.0648090    3.6708110   -1.0848050  
O    -5.0924210    4.4465880   -1.5238500  
C    -2.7638640    4.2219600   -0.9829410  
O    -2.6796480    5.5420520   -1.3626560  
C    -1.6945230    3.4624850   -0.5370830  
H    -5.3012780    1.9284580   -0.8405120  
H    -4.7328860    5.3287250   -1.7215580  
H    -1.7626150    5.8479280   -1.2962360  
H    -0.6974370    3.8916170   -0.4812330  
H    -1.5475300   -1.0362250    0.7747060  
C     2.4193230   -1.4771940   -0.9665470  
C     1.1848890   -0.9305600   -0.7999660  
C     1.3258450    0.2132370    0.0643980  
C     2.6974790    0.3246640    0.3925340  
N     3.3684030   -0.7260570   -0.2582560  
C     3.1872650    1.3129930    1.2535170  
C     2.2716080    2.2307820    1.7504190  
O     2.6975870    3.2090880    2.5955470  
C     0.8992560    2.1544180    1.4097490  
O     0.1299660    3.1258900    2.0097930  
C     0.3960340    1.1509370    0.5785010  
H     0.2727740   -1.2809620   -1.2611010  
H     4.2199690    1.3722540    1.5737760  
H     1.9121550    3.7087360    2.8800050  
H    -0.8095400    2.9690870    1.8156920  
H     2.7456280   -2.3128070   -1.5668770  
C     4.7174970   -1.0188990   -0.2463960  
C     5.3369010   -2.2301720   -0.3940000  
C     6.7556740   -1.9926250   -0.3901020  
C     6.9289170   -0.5286220   -0.2240920  
N     5.6515710    0.0100590   -0.0831260  
C     8.1221940    0.1082970   -0.2218530  
C     9.3377350   -0.6977970   -0.3594250  
O    10.4553590   -0.2072060   -0.3645990  
C     9.1823760   -2.2566710   -0.4918670  
O    10.1912130   -2.9395070   -0.5973490  
C     7.8347390   -2.8178470   -0.4972990  
H     4.8479300   -3.1918870   -0.4388590  
H     8.2290410    1.1827640   -0.1074300  
H     7.7384220   -3.8935690   -0.6080190  
H     5.4366760    0.9681070   -0.3235120  
C    -4.1515310   -0.7202210    0.1280250  
C    -4.0381070   -2.0583420    0.4463420  
C    -5.3660710   -2.5713350    0.3558520  
C    -6.2023790   -1.3809110   -0.0427730  
N    -5.4746580   -0.3052620   -0.1721570  
C    -7.6186540   -1.4791070   -0.2403870  
C    -8.1823280   -2.6978480   -0.0546850  
O    -9.4811350   -2.9566890   -0.1986560  
C    -7.3677800   -3.9243580    0.3471360  
O    -8.0078580   -4.9710620    0.4822990  
C    -5.9373610   -3.7951730    0.5413050  
H    -3.1514180   -2.6172200    0.7037860  
H    -8.1971860   -0.6078330   -0.5258680  
H    -9.5680760   -3.9197580    0.0038490  
H    -5.3846970   -4.6839700    0.8278050  
