58


C    -1.1188490    1.2265410   -0.0406680  
C    -2.4683370    1.3073240    0.0641720  
C    -2.9996900   -0.0212520   -0.1409770  
C    -1.8299320   -0.9002840   -0.3748650  
N    -0.6966590   -0.0797130   -0.3114510  
C    -1.8978560   -2.2432870   -0.5352270  
C    -3.2132580   -2.8777090   -0.5066780  
O    -3.3706570   -4.0836900   -0.6013820  
C    -4.4752090   -1.9639490   -0.3435960  
O    -5.5813900   -2.4622760   -0.4506830  
C    -4.2771480   -0.5134970   -0.1039400  
H    -3.0405760    2.2041160    0.2470950  
H    -1.0307500   -2.8763760   -0.6809500  
H    -0.3765770    2.0098440    0.0332230  
C     2.8294020    0.4730640    2.2180110  
C     1.5575830    0.4303810    1.7424030  
C     1.6111720   -0.1778250    0.4345240  
C     3.0335710   -0.4986480    0.1820250  
N     3.7418660   -0.0554890    1.3016220  
C     3.5002390   -1.1484950   -0.9142910  
C     2.5453720   -1.5226560   -1.9517700  
O     2.8538490   -2.1446690   -2.9543350  
C     1.0409790   -1.1045490   -1.7695180  
O     0.2572360   -1.2935280   -2.6809670  
C     0.6442690   -0.4715880   -0.4899250  
H     0.6737630    0.7759070    2.2573670  
H     4.5409960   -1.4181030   -1.0522790  
H     3.2006690    0.8529380    3.1603350  
C     5.7317230   -0.7608710    2.6082830  
C     5.1210230   -0.1999060    1.5311370  
C     6.2097820    0.3550280    0.7111040  
C     7.4379020   -0.0093010    1.4814870  
N     7.1461870   -0.6495860    2.5814930  
C     8.7499290    0.3397830    1.0088300  
C     8.8419390    1.0491260   -0.1426680  
O     9.9985460    1.4482370   -0.6875460  
C     7.6186890    1.4608370   -0.9196110  
O     7.7806310    2.1084760   -1.9490980  
C     6.2777430    1.0678230   -0.4276230  
H     9.6252310    0.0477840    1.5781510  
H     9.7591870    1.9347880   -1.5064010  
H     5.4229420    1.3662780   -1.0263600  
H     5.2581080   -1.2571610    3.4473970  
C    -6.1481620    3.0982060   -2.0108050  
C    -5.2846840    2.0863000   -1.7530600  
C    -5.8376760    1.4029800   -0.5881780  
C    -7.0863650    2.1692370   -0.2820450  
N    -7.2593770    3.1579500   -1.1133120  
C    -7.9625520    1.7957840    0.7976700  
C    -7.6198210    0.7196110    1.5418830  
O    -8.3341760    0.2646450    2.5832900  
C    -6.3514820   -0.0516820    1.2888950  
O    -6.0615040   -0.9333510    2.0903990  
C    -5.4691120    0.3151040    0.1358100  
H    -4.3873890    1.8200780   -2.2927470  
H    -8.8625470    2.3692270    0.9896450  
H    -7.8242410   -0.4956000    2.9396580  
H    -6.0903350    3.8336080   -2.8047600  
