62


C     0.1422780   -1.6167930   -0.2112530  
C    -1.0602210   -0.9565370   -0.0820140  
C    -2.0827840   -1.8769070   -0.4639720  
C    -1.4379930   -3.0990930   -0.8004120  
N    -0.0778730   -2.9169720   -0.6254270  
C    -2.1228760   -4.2401420   -1.2123000  
C    -3.5088300   -4.1584760   -1.3032910  
O    -4.2160620   -5.2334130   -1.7500910  
C    -4.1866040   -2.9762480   -0.9429520  
O    -5.5497600   -3.0518040   -1.1018470  
C    -3.5124520   -1.8165850   -0.5019840  
H    -1.2033990    0.0569800    0.2537480  
H     0.6468130   -3.5461340   -0.9370970  
H    -1.6220320   -5.1651110   -1.4791700  
H    -5.1515280   -4.9654050   -1.7820420  
H    -5.9092360   -2.1473650   -1.1686980  
C     1.8530290    0.1325340   -0.3884230  
C     3.1947110    0.3032030   -0.1111390  
C     3.6489500   -0.9540980    0.4642670  
C     2.5301640   -1.8170110    0.5259060  
N     1.4368720   -1.1361630   -0.0263430  
C     2.5810760   -3.0928270    1.1019180  
C     3.8031350   -3.5195970    1.5997970  
O     3.9136830   -4.7572050    2.1590790  
C     4.9407930   -2.6758980    1.5307790  
O     6.0854120   -3.2372900    2.0587910  
C     4.8745100   -1.4078560    0.9855210  
H     1.7140750   -3.7363340    1.1947580  
H     4.8417240   -4.8673780    2.4306180  
H     6.8412480   -2.6575980    1.8803840  
H     5.7620590   -0.7874520    0.9308380  
H     1.1650400    0.7919010   -0.8958200  
C     2.0815430    4.5794160    0.3082980  
C     2.1133820    3.2233820    0.3673130  
C     3.3794030    2.7891990   -0.1897820  
C     4.0974920    4.0257860   -0.5710190  
N     3.2491710    5.0706030   -0.2684560  
C     5.3514150    4.0804520   -1.0997460  
C     6.0549980    2.8317940   -1.2943560  
O     7.1985730    2.7488830   -1.7216100  
C     5.3106380    1.4910410   -0.9234480  
O     5.9092310    0.4456930   -1.1164530  
C     3.9289750    1.5386890   -0.3726410  
H     1.3462050    2.5878890    0.7811210  
H     5.8487810    5.0081990   -1.3645420  
H     1.3126530    5.2652050    0.6380190  
H     3.4822850    6.0452660   -0.3749560  
C    -4.2483680   -0.6292100   -0.1321620  
C    -5.5661140   -0.5000180    0.2777400  
C    -5.7812880    0.9026250    0.4921830  
C    -4.4657920    1.5326470    0.1440780  
N    -3.5802880    0.6435470   -0.2018450  
C    -4.2698980    2.9564390    0.2113930  
C    -5.3149840    3.7095100    0.6284310  
O    -5.2864260    5.0412880    0.7502270  
C    -6.6524590    3.0997860    1.0080010  
O    -7.5285920    3.8878750    1.3744220  
C    -6.8298060    1.6571810    0.9166110  
H    -6.2532150   -1.2863270    0.5586140  
H    -3.3142450    3.3909920   -0.0597010  
H    -6.1876140    5.2822040    1.0704150  
H    -7.7994050    1.2527940    1.1898160  
