62


C    -2.1961640   -0.8697910    0.6667210  
C    -3.5019530   -0.4399400    0.5858060  
C    -3.4565930    0.8763330   -0.0231430  
C    -2.0980490    1.1731030   -0.2848980  
N    -1.3323710    0.0891010    0.1603910  
C    -1.6915370    2.3565850   -0.9112870  
C    -2.6732070    3.2809170   -1.2378130  
O    -2.3261390    4.4489540   -1.8465290  
C    -4.0360180    3.0212700   -0.9402560  
O    -4.8902570    4.0405980   -1.3044770  
C    -4.4337850    1.8385490   -0.3421620  
H    -0.6571000    2.5722390   -1.1509760  
H    -3.1432530    4.9573210   -1.9892500  
H    -5.8026910    3.7979400   -1.0874730  
H    -5.4836580    1.6640890   -0.1209550  
H    -1.8001570   -1.7976630    1.0529570  
C     0.7127020   -1.1853630   -0.4122650  
C     0.0509440   -0.0853030    0.0312560  
C     1.1001830    0.8391590    0.4928240  
C     2.3647470    0.1111900    0.2069040  
N     2.1208340   -1.0618080   -0.3085350  
C     3.6770960    0.6993700    0.5078270  
C     3.6349180    1.9265190    1.1340380  
O     4.7541040    2.6140680    1.4989470  
C     2.3967710    2.6331400    1.4741660  
O     2.4767350    3.7338730    2.0410020  
C     1.0945800    2.0279090    1.1204060  
H     4.4073700    3.4372780    1.9136450  
H     0.1985510    2.5857080    1.3741630  
H     0.2887480   -2.0967240   -0.8147660  
C     4.8998480    0.0090000    0.1767580  
C     5.1003560   -1.2182890   -0.4590500  
C     6.4974370   -1.4334750   -0.5455110  
C     7.1351360   -0.3047530    0.0532350  
N     6.1505020    0.5453200    0.4791500  
C     8.5277260   -0.1851700    0.1393050  
C     9.2885230   -1.2178690   -0.3846830  
O    10.6459490   -1.1566300   -0.3294310  
C     8.6689640   -2.3553940   -0.9868920  
O     9.5739020   -3.2871680   -1.4556480  
C     7.2999340   -2.4733800   -1.0720670  
H     4.3071370   -1.8625150   -0.8027990  
H     6.2716660    1.4370070    0.9373400  
H     9.0201490    0.6689160    0.5919990  
H    10.9905750   -1.9666040   -0.7448190  
H     9.0975160   -4.0317430   -1.8519050  
H     6.8459290   -3.3473090   -1.5344070  
C    -4.7661550   -1.9320110    2.2031760  
C    -4.6541710   -1.1827200    1.0701370  
C    -5.9577400   -1.3710030    0.3912840  
C    -6.7229710   -2.2674310    1.3042610  
N    -6.0180690   -2.5928930    2.3519100  
C    -8.0621070   -2.6952280    0.9932210  
C    -8.6053520   -2.2850620   -0.1784210  
O    -9.8427570   -2.6111670   -0.5940630  
C    -7.8468170   -1.4120140   -1.1331630  
O    -8.4052700   -1.0746240   -2.1770490  
C    -6.4733330   -0.9812150   -0.7895510  
H    -8.5987950   -3.3371050    1.6832230  
H    -9.9464100   -2.1745900   -1.4675460  
H    -5.9533530   -0.3617730   -1.5135960  
H    -4.0221070   -2.0515680    2.9817480  
