60


C    -1.6155550   -1.5761430    0.2568380  
C    -0.9013940   -0.3889990    0.1584330  
C    -1.9022470    0.6660840    0.0903040  
C    -3.1713660    0.0354360    0.1354760  
N    -2.9553070   -1.3279940    0.2247300  
C    -4.4014050    0.7244030    0.0250600  
C    -4.3025400    2.1237330   -0.0269460  
O    -5.4219990    2.8962090   -0.0055880  
C    -3.0424410    2.7650760   -0.0831560  
O    -3.1276720    4.1443100   -0.1709970  
C    -1.8535430    2.0648100   -0.0584810  
H    -3.6702880   -1.9429480    0.6018490  
H    -5.1259110    3.8217700   -0.0648380  
H    -2.2416230    4.5251040   -0.0827060  
H    -0.9062870    2.5888110   -0.1039200  
H    -1.2373240   -2.5815570    0.3431620  
C     2.0021330   -3.2950680   -1.3287700  
C     3.1841920   -2.6654140   -1.1247570  
C     2.8340040   -1.3843810   -0.5334010  
C     1.3387410   -1.4166030   -0.4384170  
N     0.8698550   -2.5351070   -0.9173430  
C     0.5543560   -0.3153850    0.1253440  
C     1.3092830    0.7216310    0.6133150  
O     0.7785080    1.8072210    1.2227930  
C     2.7895910    0.7978000    0.5182160  
O     3.3306590    1.8250540    0.9325180  
C     3.5667590   -0.3304970   -0.0839790  
H     4.1796070   -3.0301010   -1.3302880  
H     1.5593020    2.3647210    1.4447650  
H     1.8356000   -4.2800070   -1.7490070  
C     5.0177650   -0.2465700   -0.1728640  
C     5.8047570   -0.6420570   -1.2192860  
C     7.1659710   -0.3520990   -0.8154350  
C     7.0226430    0.2228050    0.5600230  
N     5.7786220    0.2895000    0.9293070  
C     8.1730000    0.6283170    1.3286050  
C     9.3927650    0.4901240    0.7582950  
O    10.5467340    0.8315700    1.3511890  
C     9.5658410   -0.0736590   -0.6309870  
O    10.7125930   -0.1640510   -1.0677290  
C     8.3788450   -0.4923390   -1.3942870  
H     5.4832290   -1.0326700   -2.1743300  
H     8.0432240    1.0368510    2.3244700  
H    11.2487450    0.6168470    0.6974110  
H     8.5449100   -0.9011080   -2.3864050  
C    -6.3129340   -2.5956560    2.2988170  
C    -7.5794520   -2.5578680    1.8299030  
C    -7.5707570   -1.5335760    0.7924640  
C    -6.1633350   -1.0051000    0.7979690  
N    -5.4376170   -1.6572640    1.6652470  
C    -5.7256460    0.0692210   -0.0833870  
C    -6.6406890    0.4395560   -1.0351690  
O    -6.3870540    1.3189140   -2.0104710  
C    -8.0430320   -0.0982150   -1.0855810  
O    -8.7844270    0.3215440   -1.9742160  
C    -8.4786620   -1.1037410   -0.1016960  
H    -8.4252020   -3.1604160    2.1301970  
H    -7.2273680    1.3948830   -2.5158700  
H    -9.4988200   -1.4680010   -0.1736420  
H    -5.9033030   -3.2360540    3.0707760  
