62


C    -0.0616230    1.6130340    0.1144220  
C    -1.1620840    0.7737060    0.2048620  
C    -0.6948460   -0.5740890    0.1548970  
C     0.7210640   -0.5054150    0.0448530  
N     1.0724330    0.8237770   -0.0118460  
C     1.5442100   -1.6491080   -0.0250290  
C     0.8807770   -2.8740900    0.1336410  
O     1.5863290   -4.0318660    0.1756820  
C    -0.5282500   -2.9648530    0.2706740  
O    -0.9836720   -4.2590460    0.3724620  
C    -1.3547430   -1.8384090    0.2258720  
H    -2.1814920    1.0844000    0.3729280  
H     1.9951520    1.1653250    0.2296730  
H     0.9192840   -4.7326830    0.3179150  
H    -1.6869680   -4.2597170    1.0636680  
C    -3.1165600    4.5652460   -1.0735880  
C    -2.4124710    5.6983580   -0.7640300  
C    -1.1326650    5.2756990   -0.2695340  
C    -1.1249570    3.8569320   -0.2887010  
N    -2.3541240    3.4523400   -0.7710220  
C    -0.0117950    3.0738530    0.1087340  
C     1.1223920    3.8037320    0.4860880  
O     2.2698990    3.1483070    0.8548050  
C     1.1262790    5.2190680    0.5144590  
O     2.3313350    5.7582000    0.9332690  
C     0.0196360    5.9636530    0.1569650  
H    -2.7599680    6.7163670   -0.8749680  
H    -2.5736830    2.5032930   -1.0345100  
H     2.9176650    3.8282980    1.1092420  
H     2.2513070    6.7216210    0.9876190  
H     0.0485270    7.0508480    0.1865310  
H    -4.1133130    4.4515170   -1.4763400  
C     4.7809580    0.5692240    2.0066070  
C     5.8881760    0.0964800    1.3909220  
C     5.3932300   -0.8352180    0.3829800  
C     3.9016070   -0.8054070    0.5542690  
N     3.5588240    0.0240720    1.4981570  
C     3.0044450   -1.6135010   -0.2571650  
C     3.6057090   -2.3514080   -1.2390910  
O     2.9363740   -3.0982730   -2.1255850  
C     5.0955380   -2.3911140   -1.4381220  
O     5.5304480   -3.0925800   -2.3513530  
C     5.9744380   -1.5947140   -0.5631760  
H     6.9227590    0.3422680    1.5859720  
H     3.6274910   -3.5173570   -2.6853400  
H     7.0437890   -1.6539900   -0.7415370  
H     4.7204330    1.2878670    2.8152830  
C    -4.4685460    0.0045090   -2.3449660  
C    -3.3003490   -0.4483930   -1.8161110  
C    -3.6262890   -1.2206990   -0.6359900  
C    -5.1024980   -1.1812660   -0.5216550  
N    -5.5497780   -0.3992660   -1.5690610  
C    -5.8303700   -1.7947140    0.4489200  
C    -5.1068690   -2.5821830    1.4268850  
O    -5.6340040   -3.1591400    2.3657530  
C    -3.5485860   -2.7349610    1.2487270  
O    -3.0011040   -3.5734690    1.9618150  
C    -2.8301450   -1.9140900    0.2531760  
H    -2.3110170   -0.2901940   -2.2153790  
H    -6.9087470   -1.7129130    0.5377740  
H    -4.6363390    0.5887930   -3.2402440  
H    -6.5200670   -0.2564510   -1.8014410  
