60


C    -3.3721320   -0.2727800   -0.2023390  
C    -2.1250170    0.2645760    0.1421140  
C    -2.1348340    1.6429720   -0.1724120  
C    -3.4348190    1.9302560   -0.6951060  
N    -4.1451620    0.7629700   -0.7136930  
C    -3.8369110    3.2167860   -1.0654550  
C    -2.9166040    4.2326210   -0.8718200  
O    -3.2354190    5.5100610   -1.1791260  
C    -1.6084920    3.9812640   -0.3445410  
O    -0.8454040    5.1145880   -0.2470080  
C    -1.1722880    2.6976740   -0.0259430  
H    -1.3267180   -0.2789180    0.6202150  
H    -5.1238290    0.6388370   -0.9366500  
H    -4.8241010    3.4398400   -1.4551450  
H    -2.4609300    6.0475310   -0.9182050  
H    -0.3514550    5.0554650    0.6076050  
C     1.8224550   -0.2797430   -1.3663580  
C     0.7419210    0.5328990   -1.2414230  
C     0.9665920    1.3865200   -0.0998280  
C     2.2917040    0.9986860    0.4413740  
N     2.7686950   -0.0379230   -0.3668930  
C     2.8944660    1.5907880    1.4999960  
C     2.1959500    2.6966270    2.1368280  
O     2.6199560    3.2882440    3.1155410  
C     0.8441260    3.1875170    1.5045040  
O     0.4027630    4.2580510    1.9229590  
C     0.2022290    2.4003690    0.4416810  
H    -0.1267220    0.5387980   -1.8804670  
H     3.8401720    1.2692370    1.9179910  
H     2.0190500   -1.0529550   -2.0968020  
C     6.0471540   -0.7295600   -3.1888600  
C     4.9121260   -0.2766920   -2.5890670  
C     4.8796140   -0.8404980   -1.2600010  
C     6.1006680   -1.6715610   -1.1294620  
N     6.7575990   -1.5657290   -2.3419900  
C     6.4627510   -2.3574100   -0.0157860  
C     5.5878080   -2.2900110    1.1480370  
O     5.8409920   -2.8282710    2.2127230  
C     4.2440060   -1.4797230    1.0265580  
O     3.4512770   -1.5053940    1.9501690  
C     3.9878740   -0.7337660   -0.2258180  
H     4.1875930    0.3962210   -3.0220950  
H     7.3717580   -2.9458050    0.0564260  
H     6.4269230   -0.5165810   -4.1793680  
H     7.6423590   -1.9991210   -2.5558080  
C    -1.5381540   -4.3024730    0.5985200  
C    -1.6525430   -2.9819540    0.2937660  
C    -3.0834040   -2.7313010    0.1866720  
C    -3.6873830   -4.0509630    0.4506840  
N    -2.7858800   -4.9684520    0.7019560  
C    -5.1116010   -4.2699590    0.4151320  
C    -5.9061650   -3.2239860    0.0978070  
O    -7.2503560   -3.3022900   -0.0071020  
C    -5.3398720   -1.8755000   -0.1928560  
O    -6.1484410   -1.0019040   -0.5321180  
C    -3.8589900   -1.6214840   -0.0687610  
H    -0.8488100   -2.2818130    0.1221840  
H    -5.5126480   -5.2568290    0.6186310  
H    -7.5465060   -2.4043810   -0.2640340  
H    -0.6292550   -4.8714300    0.7545360  
