60


C     1.7256410   -0.4446950    0.1795550  
C     1.1362360   -1.6730450    0.0090430  
C     2.2010880   -2.6109400   -0.3149820  
C     3.4123240   -1.8826960   -0.3148630  
N     3.0985850   -0.5399400   -0.0157820  
C     4.6427110   -2.4937520   -0.5685860  
C     4.6459590   -3.8531650   -0.8578930  
O     5.8271680   -4.4773630   -1.1088320  
C     3.4355120   -4.5852990   -0.9009890  
O     3.5941550   -5.9119230   -1.2225940  
C     2.2182690   -3.9786110   -0.6307040  
H     5.5900340   -1.9759300   -0.5406430  
H     5.6343490   -5.4106670   -1.3053040  
H     2.7305360   -6.3457810   -1.2933970  
H     1.2974280   -4.5526320   -0.6915970  
H     1.3028250    0.5073320    0.4552330  
C    -0.2734950   -1.9374900    0.1569150  
C    -1.3518820   -1.0975220   -0.0110370  
C    -2.5464160   -1.8223450    0.2958690  
C    -2.1044620   -3.1765980    0.6922600  
N    -0.7275340   -3.2137250    0.5148190  
C    -2.9132060   -4.1537740    1.1703210  
C    -4.3399220   -3.8709900    1.2801800  
O    -5.1374090   -4.6588820    1.7631940  
C    -4.8682530   -2.5063590    0.7129820  
O    -6.0700550   -2.3801390    0.5717640  
C    -3.8852880   -1.4664600    0.3075540  
H    -1.2941800   -0.0747220   -0.3485230  
H    -2.5519950   -5.1255580    1.4935830  
H    -0.1404420   -3.8626770    1.0202400  
C    -4.3552060   -0.1521540   -0.0775620  
C    -3.8549740    0.6899310   -1.0408530  
C    -4.6807520    1.8714400   -1.0021370  
C    -5.6626160    1.5934070    0.0964720  
N    -5.4794210    0.4225390    0.6264360  
C    -6.6632430    2.5616060    0.4722190  
C    -6.7036260    3.7239170   -0.2192590  
O    -7.5823470    4.7117700    0.0101830  
C    -5.7376000    4.0239360   -1.3424900  
O    -5.8553010    5.1133910   -1.9072650  
C    -4.7180170    3.0336840   -1.6979540  
H    -3.0629270    0.4864350   -1.7473530  
H    -7.3578660    2.3399840    1.2746750  
H    -7.3576900    5.4088660   -0.6468830  
H    -4.0342910    3.2897480   -2.5016270  
C     3.9368480    0.5538520    0.0733670  
C     5.2703210    0.6874190   -0.2240350  
C     5.5756670    2.0589750    0.0700650  
C     4.2747710    2.6416920    0.5500810  
N     3.3223940    1.7518470    0.5421110  
C     4.1597330    4.0143000    0.9520490  
C     5.2778130    4.7762760    0.8743870  
O     5.3335990    6.0657620    1.2085010  
C     6.6086890    4.2207410    0.3867230  
O     7.5519800    5.0127710    0.3607770  
C     6.6967440    2.8222150   -0.0109060  
H     5.9562940   -0.0355210   -0.6310530  
H     3.2112750    4.4087270    1.2985080  
H     6.2684980    6.3332610    1.0430320  
H     7.6594440    2.4560180   -0.3525490  
