62


C     3.9657460    0.5781430   -0.3811770  
C     4.6106010    1.7970630   -0.2267670  
C     3.6178630    2.7829680    0.0399120  
C     2.3590110    2.1172740    0.0453470  
N     2.6035050    0.7860150   -0.1996770  
C     1.1223240    2.7756230    0.2359730  
C     1.2203200    4.1547360    0.4179370  
O     0.0728030    4.9062910    0.5775750  
C     2.4628410    4.8377570    0.4373940  
O     2.3372320    6.1982210    0.6481540  
C     3.6593980    4.1755380    0.2598870  
H     5.6811050    1.9449410   -0.2611390  
H     1.8798000    0.1030090   -0.3657740  
H     0.3528320    5.8323830    0.6979480  
H     3.2112330    6.6149430    0.6242070  
H     4.6027360    4.7166640    0.2695350  
C    -0.3037120   -0.9794870    2.2678320  
C     0.4049240    0.1408600    1.9128670  
C    -0.3762620    0.8488600    0.9312820  
C    -1.5730290    0.1069070    0.7527170  
N    -1.4940750   -1.0024020    1.5694510  
C    -2.6089150    0.4901620   -0.1255770  
C    -2.4032930    1.6930610   -0.8033200  
O    -3.3723090    2.1848060   -1.6147340  
C    -1.2141080    2.4529840   -0.6440790  
O    -1.1802350    3.5924580   -1.4197770  
C    -0.1684810    2.0431590    0.1843960  
H     1.3574590    0.4435680    2.3230530  
H    -2.1943940   -1.7251790    1.6257610  
H    -3.0090410    3.0100020   -1.9900170  
H    -0.8425620    4.3250030   -0.8615810  
H    -0.0599810   -1.7691010    2.9643280  
C    -5.7759630   -0.9915400    2.6303550  
C    -4.6851300   -0.3855300    2.0957770  
C    -4.6786340   -0.6803790    0.6738920  
C    -5.8795220   -1.5133570    0.4242270  
N    -6.4870250   -1.6831720    1.6540200  
C    -6.2750470   -1.9692290   -0.7931710  
C    -5.4597880   -1.6272190   -1.9474900  
O    -5.7466370   -1.9451410   -3.0922560  
C    -4.1324280   -0.8180030   -1.7046920  
O    -3.3689890   -0.6697400   -2.6401600  
C    -3.8285590   -0.3129090   -0.3350370  
H    -3.9646010    0.2206450    2.6235540  
H    -7.1764120   -2.5539350   -0.9493130  
H    -6.1270600   -0.9947910    3.6538790  
H    -7.3694610   -2.1486740    1.7966030  
C     5.6752410   -1.0477890   -1.2972430  
C     4.5104660   -0.7270640   -0.6584920  
C     3.9467120   -2.0415830   -0.2589810  
C     4.9310380   -3.0291680   -0.7741700  
N     5.9344440   -2.4369920   -1.3675890  
C     4.7491610   -4.4429320   -0.5845510  
C     3.6617870   -4.8596530    0.1106870  
O     3.3752690   -6.1509850    0.3627040  
C     2.6758490   -3.8875260    0.6761380  
O     1.7190500   -4.3311020    1.3140490  
C     2.8775520   -2.4367740    0.4576400  
H     5.4781370   -5.1398820   -0.9832910  
H     2.5438620   -6.1338140    0.8843160  
H     2.1406900   -1.7751200    0.9050000  
H     6.3804760   -0.3629580   -1.7520200  
