64


C     2.7412970    2.8455430    0.2521630  
C     4.0237290    2.8478380   -0.2385740  
C     4.3136390    1.4998990   -0.6419130  
C     3.1549450    0.7242240   -0.3861850  
N     2.2048320    1.5721670    0.1522440  
C     3.0521190   -0.6587650   -0.6550460  
C     4.1958910   -1.2477740   -1.2057190  
O     4.1991200   -2.5763400   -1.5281750  
C     5.3628990   -0.4869130   -1.4686080  
O     6.3937170   -1.2312110   -2.0166210  
C     5.4388080    0.8677730   -1.2031290  
H     4.6609220    3.7149730   -0.3387300  
H     1.3591330    1.2671450    0.6123690  
H     5.0496720   -2.7561440   -1.9666710  
H     7.0949570   -0.6365580   -2.3208560  
H     6.3490980    1.4233820   -1.4179480  
C     2.4444990    4.8193930    1.7213880  
C     1.4326170    5.6681880    2.0707320  
C     0.2599500    5.2564330    1.3486620  
C     0.6300630    4.1410600    0.5564110  
N     1.9788610    3.8786400    0.8028830  
C    -0.2664050    3.5026520   -0.3104540  
C    -1.5682480    3.9763010   -0.3497390  
O    -2.4833750    3.3755480   -1.1703960  
C    -1.9626950    5.0796890    0.4498350  
O    -3.2896860    5.4314560    0.2988100  
C    -1.0673210    5.7235820    1.2851590  
H     1.5081930    6.4871100    2.7729390  
H     0.0248920    2.6822970   -0.9557760  
H    -3.3240190    3.8533730   -1.0618700  
H    -3.4954530    6.1823410    0.8749340  
H    -1.3870040    6.5770050    1.8799310  
H     3.4699850    4.7670070    2.0567090  
C     0.5495320   -0.9017280   -0.6607280  
C     1.8013980   -1.3875190   -0.3885630  
C     1.6068450   -2.6825300    0.2463910  
C     0.2161750   -2.9228830    0.3224540  
N    -0.4360340   -1.8031810   -0.2490930  
C    -0.3130610   -4.0729040    0.9137530  
C     0.5858580   -4.9964550    1.4327840  
O     0.1167330   -6.1380440    2.0115780  
C     1.9806640   -4.7664830    1.3676470  
O     2.7466930   -5.7691120    1.9259250  
C     2.4977420   -3.6215700    0.7862040  
H    -1.3773810   -4.2514590    0.9638010  
H     0.8886790   -6.6541120    2.3012360  
H     3.6854630   -5.5612870    1.8076760  
H     3.5697590   -3.4653310    0.7249430  
H     0.2648630   -0.0071710   -1.1914950  
C    -1.7777290   -1.5435540   -0.3610860  
C    -2.3776850   -0.3645910   -0.7644110  
C    -3.7738300   -0.6280320   -0.7095720  
C    -3.8725420   -2.0592650   -0.2427190  
N    -2.6940180   -2.5810240   -0.0393150  
C    -5.1376010   -2.7100700   -0.0615430  
C    -6.2472810   -1.9752530   -0.3180490  
O    -7.4960860   -2.4265640   -0.1969600  
C    -6.1842710   -0.5207360   -0.7805810  
O    -7.2791940    0.0230880   -0.9712810  
C    -4.8970420    0.1075540   -0.9609850  
H    -1.9234900    0.5769000   -1.0330720  
H    -5.1855800   -3.7414240    0.2693510  
H    -8.0584210   -1.6543590   -0.4532700  
H    -4.8708790    1.1409080   -1.2901380  
