60


C    -0.2203250   -0.4700290    3.1231340  
C     0.5134380    0.4398920    2.4055650  
C    -0.3461460    0.9698620    1.3814240  
C    -1.6104850    0.3495490    1.5516140  
N    -1.4998030   -0.5224300    2.6140480  
C    -2.7444800    0.6267150    0.7520990  
C    -2.5405130    1.6009150   -0.2320970  
O    -3.5654440    1.9862660   -1.0405990  
C    -1.2901420    2.2451510   -0.4194290  
O    -1.2994600    3.1643560   -1.4408270  
C    -0.1616340    1.9303310    0.3425390  
H     1.5373290    0.7192490    2.6065720  
H    -2.2304250   -1.1511170    2.9104840  
H    -3.2006730    2.7122230   -1.5865360  
H    -0.7951160    3.9521810   -1.1215840  
H     0.0594350   -1.0769650    3.9724720  
C     3.7784490    0.0375300   -0.2036750  
C     4.5551650    1.1724720   -0.2835800  
C     3.6859420    2.3114030   -0.1966820  
C     2.3143560    1.7750640   -0.0317790  
N     2.4383100    0.4094200   -0.0495060  
C     1.1677720    2.5307640    0.0891460  
C     1.3596710    3.9709480   -0.0883450  
O     0.4339380    4.7723080   -0.2281950  
C     2.8126990    4.5715560   -0.1372180  
O     2.9382700    5.7855230   -0.1190620  
C     3.9375760    3.6505430   -0.2310140  
H     5.6303660    1.2085750   -0.3557410  
H     4.9368600    4.0660020   -0.3113230  
H     1.7043510   -0.2518720    0.1704910  
C     7.4367730   -2.1429470   -1.6019770  
C     6.5236060   -1.1544570   -1.4173720  
C     5.4073430   -1.7860840   -0.7356910  
C     5.8388290   -3.2172200   -0.6027540  
N     7.0294670   -3.4115850   -1.0939520  
C     5.0008060   -4.2162960    0.0004640  
C     3.7709980   -3.8368960    0.4155450  
O     2.8724690   -4.6722840    0.9585570  
C     3.2911630   -2.4201190    0.2774010  
O     2.1254770   -2.2009590    0.6100630  
C     4.2031380   -1.3538510   -0.2457850  
H     6.5908580   -0.1322670   -1.7558500  
H     5.3504920   -5.2389170    0.0859330  
H     2.0677950   -4.1365440    1.1258860  
H     8.4018270   -2.0684010   -2.0890930  
C    -4.6029050   -0.3376400    2.1933260  
C    -4.0330000   -0.0239760    0.9914460  
C    -4.9905450   -0.5698970   -0.0007580  
C    -6.0719580   -1.1749930    0.8260550  
N    -5.8392440   -1.0287870    2.1020750  
C    -7.2081070   -1.8282690    0.2302070  
C    -7.2610690   -1.8996910   -1.1212900  
O    -8.2550300   -2.4849870   -1.8113020  
C    -6.1767280   -1.3162690   -1.9807570  
O    -6.2909730   -1.4249200   -3.2010780  
C    -5.0259250   -0.6386360   -1.3441750  
H    -7.9818160   -2.2504620    0.8619540  
H    -8.0126150   -2.3750270   -2.7570090  
H    -4.2814160   -0.2012180   -1.9985430  
H    -4.2349100   -0.0767380    3.1792510  
