58


C    -3.4462810   -0.3048350    0.0451110  
C    -4.5856240    0.4408770    0.2152760  
C    -4.1528880    1.8103100    0.3027400  
C    -2.6602290    1.7510790    0.1674180  
N    -2.2652780    0.5261070    0.0168270  
C    -1.8145670    2.9547050    0.1983780  
C    -2.5021620    4.1410660    0.3636720  
O    -1.9456900    5.3446520    0.4346960  
C    -4.0090200    4.2070530    0.5012860  
O    -4.4976590    5.3307320    0.6468790  
C    -4.8042310    2.9852160    0.4615810  
H    -5.5961780    0.0715740    0.2716340  
H    -2.7085320    5.9622370    0.5547180  
H    -5.8808590    3.0803790    0.5619790  
C    -6.5357650   -3.4068880    0.1372390  
C    -5.8197300   -4.5392250   -0.0384490  
C    -4.4384720   -4.0960040   -0.1619580  
C    -4.5071500   -2.6017440   -0.0306500  
N    -5.7385120   -2.2187520    0.1433060  
C    -3.3173400   -1.7446600   -0.0965350  
C    -2.1235600   -2.4167310   -0.2985630  
O    -0.9295700   -1.8482550   -0.4000830  
C    -2.0494000   -3.9273840   -0.4262480  
O    -0.9398110   -4.4248040   -0.5912080  
C    -3.2718210   -4.7368680   -0.3500150  
H    -6.1726900   -5.5599830   -0.0816290  
H    -0.2538890   -2.5590850   -0.5535440  
H    -3.1648120   -5.8126150   -0.4501940  
H    -7.6061450   -3.3042630    0.2690590  
C    -0.3815370    2.8484930    0.0508830  
C     0.3504370    1.6842830   -0.0144720  
C     1.7103720    2.0791260   -0.2110270  
C     1.6633970    3.5692910   -0.2123680  
N     0.4519530    4.0207350   -0.0679020  
C     2.8631580    4.3556210   -0.3525140  
C     4.0348870    3.6888870   -0.4643170  
O     5.2311640    4.2897420   -0.5772840  
C     4.1159130    2.1797930   -0.4706050  
O     5.2467340    1.6954470   -0.5638120  
C     2.8789230    1.3698940   -0.3838310  
H    -0.0491630    0.6896930    0.0732290  
H     2.8136470    5.4387530   -0.3513350  
H     5.8833260    3.5571730   -0.6403040  
C     1.8442810   -0.8060160   -1.0303070  
C     2.8861750   -0.0757000   -0.5178540  
C     3.8385790   -1.1085840   -0.0459600  
C     3.1379380   -2.4002330   -0.3223680  
N     1.9784250   -2.1992930   -0.9006350  
C     3.7071930   -3.6719090    0.0194140  
C     4.9265040   -3.6780790    0.6121750  
O     5.5803770   -4.7865950    0.9854480  
C     5.6625470   -2.3986770    0.9046720  
O     6.7625990   -2.4864750    1.4461400  
C     5.0517190   -1.1023400    0.5393180  
H     3.1623730   -4.5841950   -0.1968440  
H     6.4242180   -4.4722210    1.3799870  
H     5.6242120   -0.2062070    0.7434350  
H     0.9597270   -0.4172630   -1.5143020  
