58


C     0.0835640   -2.8448800   -0.3384310  
C    -0.5808690   -3.7194000   -1.1518850  
C    -1.9454660   -3.2643020   -1.2735020  
C    -2.0458540   -2.0413880   -0.4504820  
N    -0.7685490   -1.7963670    0.0536780  
C    -3.1839040   -1.3190490   -0.2412290  
C    -4.3785240   -1.7555680   -1.0171750  
O    -5.3857970   -1.0798020   -1.0958890  
C    -4.3040340   -3.0878550   -1.8452420  
O    -5.3200870   -3.5027840   -2.3793070  
C    -3.0147890   -3.7670610   -1.9504880  
H    -0.1422850   -4.5605380   -1.6698300  
H    -2.9625850   -4.6735340   -2.5453380  
H    -0.6396140   -1.3187670    0.9375630  
C     1.4738140   -2.8067430    0.0513180  
C     2.3762830   -3.8234610    0.2021120  
C     3.6330520   -3.2387070    0.6008780  
C     3.4023680   -1.7743350    0.6678790  
N     2.0580330   -1.5714570    0.3834840  
C     4.3627250   -0.8619900    0.9534100  
C     5.7131470   -1.3411010    1.2461060  
O     6.6394300   -0.5918780    1.5119260  
C     5.9690530   -2.8924130    1.2247040  
O     7.0866930   -3.3115930    1.4801630  
C     4.8504000   -3.7767880    0.8848900  
H     2.1659020   -4.8781370    0.0966340  
H     4.1797220    0.2074320    0.9911330  
H     5.0431570   -4.8448090    0.8545630  
H     1.7070430   -0.7008220   -0.0035600  
C    -0.7585880    2.4203640    0.1188230  
C    -1.5217920    3.0446310    1.0747810  
C    -2.5980520    2.1595540    1.4302040  
C    -2.4356500    0.9434210    0.5990360  
N    -1.3068350    1.1564720   -0.1611440  
C    -3.2882910   -0.1306450    0.6150790  
C    -4.3769330   -0.0896540    1.6230940  
O    -5.0635900   -1.0610860    1.8812620  
C    -4.6055130    1.2250790    2.4465240  
O    -5.5746410    1.2980500    3.1848000  
C    -3.6316900    2.3057160    2.3054700  
H    -1.3371830    4.0308000    1.4683570  
H    -3.7768100    3.2049570    2.8960450  
H    -0.9391640    0.5210500   -0.8533440  
C     1.1013030    6.4166780    0.0622980  
C     2.1479350    6.2230970   -0.7685170  
C     2.0774460    4.8177110   -1.1540750  
C     0.8723420    4.2982970   -0.4325690  
N     0.3122720    5.2348070    0.2678820  
C     0.4372990    2.8985700   -0.5534650  
C     1.2339680    2.1156790   -1.3443160  
O     1.0418470    0.7839120   -1.5413530  
C     2.4273460    2.6219730   -2.0870670  
O     3.0304730    1.8104620   -2.7926090  
C     2.8227440    4.0309710   -1.9528610  
H     2.8905070    6.9390780   -1.0914830  
H     1.7238610    0.5426960   -2.2174240  
H     3.6983240    4.3606820   -2.5033420  
H     0.8010460    7.3250450    0.5689830  
