58


C     0.8570050   -1.2232540   -0.7362360  
C     2.1981190   -1.0650980   -0.6312720  
C     2.4449290    0.0925920    0.1938870  
C     1.1163760    0.6370020    0.5478440  
N     0.1628980   -0.2116130   -0.0564260  
C     0.9220810    1.7142400    1.3433140  
C     2.0978460    2.4287930    1.8414470  
O     2.0095200    3.4412320    2.5150400  
C     3.5182070    1.8571480    1.5147220  
O     4.4798080    2.3529090    2.0680480  
C     3.6174160    0.6745730    0.6156860  
H     2.9469820   -1.6736810   -1.1143340  
H    -0.0509720    2.1154320    1.5935560  
H     0.2905370   -1.9604490   -1.2876790  
C    -2.8561600   -3.2433910    0.9299610  
C    -1.6592850   -2.6513760    0.7034540  
C    -1.9795660   -1.2940850    0.2863670  
C    -3.4663530   -1.2414120    0.2733020  
N    -3.9598330   -2.3868490    0.6755290  
C    -4.2170380   -0.0517400   -0.1147740  
C    -3.4561710    1.0806150   -0.2708900  
O    -3.9849220    2.2945180   -0.4657810  
C    -1.9658570    1.0846210   -0.2520930  
O    -1.3873080    2.1369170   -0.5125500  
C    -1.2305290   -0.1853160    0.0458430  
H    -0.6747020   -3.0715270    0.8499500  
H    -3.2354370    2.8968140   -0.6618310  
H    -3.0491750   -4.2497650    1.2802920  
C    -7.7817570   -1.9500260    1.8125960  
C    -8.7615540   -1.3311560    1.1043140  
C    -8.1103450   -0.4961260    0.1200630  
C    -6.6486950   -0.6654430    0.3433670  
N    -6.5197830   -1.5339820    1.4025800  
C    -5.6655900   -0.0195410   -0.3709240  
C    -6.1433850    0.7144700   -1.5742470  
O    -5.4005710    1.0622180   -2.4744400  
C    -7.6761920    1.0058280   -1.7374970  
O    -8.0314090    1.7797990   -2.6124570  
C    -8.6057170    0.3218180   -0.8470010  
H    -9.8275950   -1.4424620    1.2389260  
H    -9.6688430    0.4905960   -0.9886990  
H    -7.8691900   -2.6700850    2.6159140  
H    -5.6529070   -2.0718250    1.4961890  
C     4.9326830    0.1531330    0.2739760  
C     5.3410280   -1.1517090    0.2050470  
C     6.7371350   -1.1060200   -0.1770220  
C     7.0260120    0.3568800   -0.3245440  
N     5.9835700    1.0847770   -0.0583150  
C     8.3279180    0.8298120   -0.7236560  
C     9.2937390   -0.0932020   -0.9410150  
O    10.5498530    0.2001240   -1.3076440  
C     9.0351750   -1.5729250   -0.7854290  
O     9.9729250   -2.3380720   -1.0071720  
C     7.6954300   -2.0347810   -0.3911060  
H     4.7745580   -2.0367010    0.4587390  
H     8.5096150    1.8934890   -0.8285010  
H    11.0077510   -0.6663630   -1.3853200  
H     7.5468070   -3.1065060   -0.3000360  
