58


C    -0.9782730    1.2695440   -0.1719710  
C    -0.9354500    2.6241220    0.0757950  
C    -2.2866470    3.1061110    0.0950520  
C    -3.1552820    1.9287610   -0.1409450  
N    -2.3022830    0.8567820   -0.2859460  
C    -4.5278810    1.9601780   -0.2182660  
C    -5.1393550    3.3138330   -0.1527600  
O    -6.3258460    3.5134230   -0.3462200  
C    -4.2336430    4.5582410    0.1796200  
O    -4.7778900    5.6412240    0.3383630  
C    -2.7965150    4.3631450    0.2666550  
H    -0.0454700    3.2201660    0.2170410  
H    -2.1706300    5.2301610    0.4525110  
H    -2.5429380   -0.0866540   -0.5553630  
C     0.0666940    0.2956720   -0.3244490  
C     1.4298870    0.4475680   -0.2325020  
C     1.9785030   -0.8568570   -0.4725240  
C     0.7777880   -1.7292930   -0.6838340  
N    -0.3314030   -1.0467070   -0.6035330  
C     0.8914260   -3.1389450   -0.9209620  
C     2.1374330   -3.6684870   -0.9402440  
O     2.3945550   -4.9613020   -1.1515120  
C     3.3838700   -2.8242400   -0.7601510  
O     4.4535700   -3.4047430   -0.8972220  
C     3.2563430   -1.3616220   -0.4956110  
H     1.9767280    1.3488760    0.0000170  
H     0.0042160   -3.7433940   -1.0716070  
H     3.3759050   -5.0403260   -1.1468810  
C     4.4532640   -0.5621510   -0.3086660  
C     4.6696360    0.7237320   -0.7323710  
C     6.0094070    1.0568750   -0.2972090  
C     6.4783660   -0.1735920    0.4156130  
N     5.5789320   -1.1123190    0.4018280  
C     7.7818760   -0.2384540    1.0253620  
C     8.5834060    0.8476400    0.9164720  
O     9.8197270    0.9245980    1.4265170  
C     8.1431350    2.0965930    0.1909980  
O     8.9359650    3.0348760    0.1423060  
C     6.8014570    2.1456180   -0.4149880  
H     4.0139560    1.3414760   -1.3293940  
H     8.0960820   -1.1388230    1.5410660  
H    10.1485810    1.8201430    1.1897250  
H     6.5178580    3.0634790   -0.9209440  
C    -6.5665150    0.7270180   -1.0869280  
C    -5.3835090    0.7986250   -0.3983060  
C    -5.2367860   -0.5530250    0.1917330  
C    -6.4262390   -1.3041920   -0.3172520  
N    -7.1870270   -0.5463570   -1.0577780  
C    -6.6659790   -2.6775900    0.0313540  
C    -5.8026520   -3.2768240    0.8871220  
O    -5.9099420   -4.5486440    1.3030100  
C    -4.6319730   -2.5355270    1.4647550  
O    -3.8997660   -3.1363990    2.2488360  
C    -4.3963070   -1.1276620    1.0753770  
H    -7.5302360   -3.1927710   -0.3729630  
H    -5.1589590   -4.6868040    1.9210170  
H    -3.5456720   -0.6359550    1.5355850  
H    -7.0468440    1.5274940   -1.6302610  
