58


C    -1.8019220    2.4744340    0.0587270  
C    -0.6044450    1.7981270   -0.0555990  
C    -0.9592560    0.3796710   -0.1732290  
C    -2.4319380    0.3187360   -0.1098660  
N    -2.8638800    1.6123690    0.0271630  
C    -3.2100900   -0.8270590   -0.1809280  
C    -2.4609760   -2.0967440   -0.3365680  
O    -2.9927310   -3.1903470   -0.4127920  
C    -0.8914480   -2.0434530   -0.4107240  
O    -0.2817000   -3.0929920   -0.5244460  
C    -0.2149990   -0.7455460   -0.3345680  
H     0.8651660   -0.7158010   -0.4038990  
H    -1.9707970    3.5363660    0.1768070  
H    -3.8693320    1.7965690    0.0974180  
C     0.7054840    2.3877800   -0.0512090  
C     1.0626610    3.7139610   -0.1005090  
C     2.4924820    3.7363040   -0.0631920  
C     2.8952450    2.2865130    0.0190970  
N     1.8467020    1.5169360    0.0194160  
C     4.2915650    1.8600700    0.0710400  
C     5.2123990    2.8862070    0.0383510  
O     6.5261480    2.7374020    0.1192000  
C     4.8175770    4.3539830   -0.0540760  
O     5.7484530    5.1637070   -0.0715890  
C     3.4169610    4.7286550   -0.1043410  
H     0.4154680    4.5762530   -0.1820270  
H     6.8837600    3.6590180    0.0699800  
H     3.1766270    5.7849090   -0.1695140  
C     4.6484320    0.4541920    0.1482970  
C     3.8624870   -0.6059260    0.5180590  
C     4.7019660   -1.7760430    0.4107990  
C     6.0190760   -1.2407920   -0.0621800  
N     5.9891140    0.0478510   -0.2127720  
C     7.1422720   -2.1113890   -0.3077750  
C     6.9689180   -3.4347890   -0.0863810  
O     7.9200550   -4.3638600   -0.2641880  
C     5.6519350   -4.0025700    0.3954300  
O     5.5992010   -5.2208130    0.5681360  
C     4.5193920   -3.0996700    0.6286830  
H     2.8346980   -0.5729270    0.8391390  
H     8.0843710   -1.7001260   -0.6526990  
H     7.4906570   -5.2161150   -0.0238090  
H     3.5849370   -3.5438290    0.9577740  
C    -4.6453800   -0.8058880   -0.1128900  
C    -5.5475910   -1.8432550   -0.1703050  
C    -6.8465790   -1.2478330   -0.0516660  
C    -6.5831880    0.2249670    0.0777400  
N    -5.3072890    0.4768700    0.0419650  
C    -7.6484930    1.1782610    0.2197980  
C    -8.9141120    0.6948210    0.2329760  
O   -10.0063610    1.4502620    0.3572590  
C    -9.2178350   -0.7901250    0.1043760  
O   -10.4080950   -1.1069760    0.1301030  
C    -8.1162410   -1.7339300   -0.0385020  
H    -5.3148980   -2.8895250   -0.2817170  
H    -7.4354820    2.2374810    0.3117820  
H   -10.7608280    0.8154010    0.3318190  
H    -8.3627770   -2.7869430   -0.1281170  
