58


C     0.3764280    0.2928300   -1.2324050  
C     0.1802820    1.4532370   -0.5285740  
C     1.4654720    1.7416520    0.1227770  
C     2.3824200    0.6319510   -0.2479830  
N     1.6457240   -0.2136100   -1.0524860  
C     3.6770040    0.4761680    0.1930280  
C     4.2023380    1.5935960    1.0219660  
O     5.3649970    1.6758000    1.3746640  
C     3.2261700    2.7379030    1.4677870  
O     3.6410780    3.5826130    2.2420930  
C     1.8589420    2.7402290    0.9507310  
H     1.2125470    3.5590110    1.2394520  
H    -0.3141340   -0.2109040   -1.8955890  
H     2.1165930   -0.8253530   -1.7107440  
C    -4.0480920    0.1007990   -0.1772160  
C    -2.6667350    0.1904810   -0.1901730  
C    -2.3054270    1.5592110   -0.4004980  
C    -3.5795420    2.3058460   -0.4966090  
N    -4.5833670    1.3716220   -0.3895900  
C    -3.6850840    3.6528310   -0.6466980  
C    -2.4624220    4.4310490   -0.7069480  
O    -2.4340280    5.6477000   -0.8108330  
C    -1.0865510    3.6692890   -0.6268160  
O    -0.0627310    4.3265220   -0.7070370  
C    -1.0765030    2.1892080   -0.4826770  
H    -1.9857880   -0.6174780    0.0217990  
H    -4.6354980    4.1724800   -0.7105550  
H    -5.5696440    1.5610160   -0.2725000  
C    -3.4421530   -4.3468610   -0.2863420  
C    -3.2280110   -3.0157560   -0.4701360  
C    -4.4510390   -2.3667450   -0.0381980  
C    -5.3272300   -3.5051890    0.3733650  
N    -4.7259800   -4.6563410    0.2398340  
C    -6.6682250   -3.3054820    0.8487270  
C    -7.1453290   -2.0399540    0.8821720  
O    -8.3914040   -1.7211030    1.2697390  
C    -6.3094580   -0.8714290    0.4570250  
O    -6.8655500    0.2314270    0.4579610  
C    -4.8779690   -1.0639920    0.0587950  
H    -2.3523150   -2.5495850   -0.8943620  
H    -7.2711820   -4.1565260    1.1448950  
H    -8.4689460   -0.7488890    1.1696410  
H    -2.7618330   -5.1619560   -0.5034940  
C     6.4995010   -1.9694510    2.6459550  
C     5.5441370   -1.0820670    2.2930270  
C     5.3926960   -1.2261640    0.8453220  
C     6.3829180   -2.2908170    0.4952030  
N     7.0272040   -2.7184290    1.5400540  
C     6.5594940   -2.7573700   -0.8551010  
C     5.7527080   -2.2345730   -1.8034750  
O     5.7836030   -2.5975220   -3.0993450  
C     4.6946570   -1.2252990   -1.4694300  
O     3.9316870   -0.9181520   -2.3945760  
C     4.5749990   -0.6583160   -0.0912720  
H     5.0102320   -0.3988510    2.9344250  
H     7.3042320   -3.5129970   -1.0780900  
H     5.0719020   -2.0852490   -3.5374850  
H     6.8951750   -2.1665690    3.6346190  
