60


C    -1.7132530   -2.9439170    0.0201440  
C    -2.8685650   -3.7138360    0.0841350  
C    -3.9740360   -2.8193950    0.0940350  
C    -3.4414990   -1.5020350    0.0301090  
N    -2.0822090   -1.6077850   -0.0025060  
C    -4.2403360   -0.3223200    0.0062950  
C    -5.6281270   -0.5485880    0.0674250  
O    -6.4916330    0.4956220    0.0548920  
C    -6.1701070   -1.8617840    0.1408150  
O    -7.5485140   -1.8721770    0.1934500  
C    -5.3746290   -2.9881260    0.1543620  
H    -2.9041240   -4.7927870    0.1413160  
H    -1.5290830   -0.7594680   -0.1197130  
H    -7.3935030    0.1272680    0.0965980  
H    -7.8739160   -2.7839890    0.2243810  
H    -5.8193630   -3.9791720    0.2080380  
C    -0.3343820   -3.3470790   -0.0059100  
C     0.2275440   -4.5906340   -0.1665440  
C     1.6546730   -4.4419380   -0.1475600  
C     1.9195820   -3.0012580    0.0570550  
N     0.6920380   -2.4006150    0.1507940  
C     3.1637450   -2.4118520    0.0952980  
C     4.3262730   -3.3266730   -0.0275620  
O     5.4767720   -2.9676570    0.1336410  
C     4.0571920   -4.8498020   -0.3077200  
O     5.0146370   -5.5847820   -0.5009470  
C     2.6799110   -5.3286820   -0.3113480  
H    -0.3126750   -5.5138110   -0.3168460  
H     2.5141860   -6.3888880   -0.4770860  
H     0.5805890   -1.3987780    0.2096670  
C     3.3406370   -0.9826280    0.2572180  
C     2.5774430   -0.1041310    0.9957760  
C     3.1620460    1.1982200    0.7861600  
C     4.2907670    0.9384990   -0.1675480  
N     4.3969970   -0.3228140   -0.4646030  
C     5.1194410    2.0093300   -0.6599100  
C     4.8664080    3.2588370   -0.2051220  
O     5.5587210    4.3489470   -0.5643030  
C     3.7554680    3.5472050    0.7812360  
O     3.6185870    4.7167660    1.1427080  
C     2.9095650    2.4469830    1.2501520  
H     1.8010140   -0.3436980    1.7107110  
H     5.9219550    1.7972900   -1.3573820  
H     5.1439930    5.0888390   -0.0650030  
H     2.1137070    2.6938150    1.9460260  
C    -3.6526320    0.9984630   -0.0782240  
C    -4.2278110    2.2459260   -0.0849180  
C    -3.1467650    3.1873430   -0.1871500  
C    -1.9093660    2.3399360   -0.2427460  
N    -2.2058260    1.0766230   -0.1767530  
C    -0.5954240    2.9096570   -0.3515710  
C    -0.5074550    4.2605020   -0.3929980  
O     0.6406980    4.9320820   -0.4893050  
C    -1.7375680    5.1528910   -0.3310010  
O    -1.5363810    6.3666740   -0.3701100  
C    -3.0606790    4.5421530   -0.2298450  
H    -5.2780860    2.4772050   -0.0232520  
H     0.2822320    2.2741370   -0.3930910  
H     0.3917270    5.8851400   -0.4782590  
H    -3.9171260    5.2076140   -0.1900620  
