62


C     0.3335830    0.4331320    0.8049760  
C    -0.0211100    1.7512120    1.0116700  
C     1.1592560    2.5470430    0.8646990  
C     2.2236000    1.6611620    0.5606520  
N     1.7082090    0.3867210    0.5640960  
C     3.5586080    2.0908920    0.3108340  
C     3.7681120    3.4828120    0.4219580  
O     5.0025430    4.0099460    0.2091080  
C     2.7140070    4.3686970    0.7482890  
O     3.1103500    5.6912070    0.8135780  
C     1.4225730    3.9261600    0.9663370  
H    -1.0041160    2.0990750    1.2960480  
H     2.2586840   -0.3806930    0.1828880  
H     4.9252550    4.9745810    0.3251820  
H     2.3511680    6.2520190    1.0302070  
H     0.6308030    4.6327400    1.2064600  
C    -3.8381710   -0.4873290   -0.5405820  
C    -2.6415970    0.1346660   -0.2842830  
C    -1.8061860   -0.8259900    0.3771990  
C    -2.5599750   -2.0217710    0.4979760  
N    -3.8034650   -1.7873610   -0.0590450  
C    -2.0536810   -3.1890420    1.0784450  
C    -0.7497720   -3.1446220    1.5462530  
O    -0.2022610   -4.2469140    2.1295060  
C     0.0254550   -1.9608900    1.4418480  
O     1.2930450   -2.0900590    1.9743350  
C    -0.4727180   -0.7884720    0.8680670  
H    -2.3977970    1.1578050   -0.5280110  
H    -4.5144460   -2.4823710   -0.2289330  
H    -2.6313210   -4.1021980    1.1746740  
H     0.6901580   -3.9975670    2.4283650  
H     1.6911710   -1.2099890    2.0887690  
C    -4.9398750    0.6288350   -2.4643280  
C    -6.1735550    1.0414670   -2.8439370  
C    -7.0975430    0.6671240   -1.7941440  
C    -6.2841250    0.0015360   -0.7462420  
N    -4.9692490   -0.0066240   -1.2145740  
C    -6.7820950   -0.4737020    0.4233030  
C    -8.2174020   -0.3425650    0.6696660  
O    -8.7531860   -0.7390220    1.6930320  
C    -9.1021340    0.3384310   -0.4373530  
O   -10.3045350    0.4434470   -0.2530700  
C    -8.4394270    0.8258300   -1.6498490  
H    -6.4244860    1.5466090   -3.7653570  
H    -6.1693670   -0.9346480    1.1904710  
H    -9.0561710    1.3098040   -2.4011580  
H    -3.9907050    0.7103030   -2.9765520  
C     4.6136690    1.1673230   -0.0420270  
C     5.9520470    1.3748830   -0.2804190  
C     6.5084340    0.0912290   -0.5947030  
C     5.3464840   -0.8574040   -0.5100340  
N     4.2536130   -0.2321640   -0.1905880  
C     5.4934930   -2.2657050   -0.7630160  
C     6.7315360   -2.7106860   -1.0827820  
O     7.0316760   -3.9859310   -1.3442870  
C     7.9297240   -1.7785010   -1.1773020  
O     9.0049170   -2.3021770   -1.4773170  
C     7.7510530   -0.3565680   -0.9167280  
H     6.4805190    2.3123600   -0.2406540  
H     4.6391870   -2.9301130   -0.6948800  
H     7.9984760   -3.9829240   -1.5389290  
H     8.6252200    0.2820970   -0.9935500  
