62


C    -1.5499730   -1.5356090   -3.3209930  
C    -0.5395860   -1.5186610   -2.3952530  
C    -1.1404520   -1.2296420   -1.1242810  
C    -2.5353130   -1.0917350   -1.3435150  
N    -2.7546900   -1.2930220   -2.6894530  
C    -3.4701860   -0.7858830   -0.3247460  
C    -2.9238660   -0.6176500    0.9521570  
O    -3.7352690   -0.3230260    2.0116920  
C    -1.5352720   -0.7643970    1.1927930  
O    -1.1823220   -0.5684790    2.5123270  
C    -0.6206510   -1.0766840    0.1866450  
H     0.5091970   -1.6901880   -2.5893250  
H    -3.6454120   -1.1665300   -3.1453030  
H    -3.1603950   -0.2421070    2.7939310  
H    -0.2122210   -0.5390760    2.5775510  
H    -1.5167660   -1.7113000   -4.3869130  
C     2.9749850    1.3084390   -1.0510250  
C     1.7151670    0.8181630   -0.8948550  
C     1.8070650   -0.3410300   -0.0465300  
C     3.1729300   -0.5226560    0.2767330  
N     3.8931270    0.5032730   -0.3602550  
C     3.6066380   -1.5157700    1.1603950  
C     2.6475780   -2.3672890    1.6871820  
O     3.0245270   -3.3676090    2.5321240  
C     1.2780310   -2.2150740    1.3559530  
O     0.4499930   -3.1433040    1.9446840  
C     0.8286290   -1.2071950    0.4992550  
H     0.8180460    1.2127260   -1.3496560  
H     4.6449020   -1.6663770    1.4245270  
H     2.2258820   -3.8794660    2.7494280  
H    -0.4351820   -3.0715040    1.5467750  
H     3.3392140    2.1375140   -1.6387260  
C    -5.6442230   -1.4713390   -1.4434710  
C    -4.9038260   -0.6817920   -0.6109700  
C    -5.8729350    0.3371420   -0.1428010  
C    -7.1494440   -0.0317760   -0.8189070  
N    -7.0067460   -1.0890370   -1.5698160  
C    -8.3571160    0.7289770   -0.6281620  
C    -8.2998630    1.8182280    0.1744140  
O    -9.3440390    2.6225510    0.4364390  
C    -7.0232620    2.2272180    0.8521970  
O    -7.0469730    3.2307480    1.5634270  
C    -5.7989210    1.4219140    0.6498460  
H    -9.2708010    0.4268800   -1.1280190  
H    -8.9939800    3.3134010    1.0408730  
H    -4.9060460    1.7332390    1.1785390  
H    -5.3099460   -2.3575070   -1.9712290  
C     6.2312160    4.1981060    0.2686660  
C     5.1725440    3.3565230    0.1685280  
C     5.7559090    2.0467090   -0.1064600  
C     7.2180540    2.3029160   -0.1414930  
N     7.4922260    3.5597930    0.0801160  
C     8.1791010    1.2514370   -0.3672860  
C     7.7115440   -0.0028950   -0.5511550  
O     8.4934610   -1.0779620   -0.7619800  
C     6.2425850   -0.3095860   -0.5484310  
O     5.9009960   -1.4597190   -0.8034280  
C     5.2567630    0.7926800   -0.2801980  
H     4.1240870    3.5853980    0.2924700  
H     9.2387230    1.4807110   -0.3799590  
H     7.8801800   -1.8299020   -0.9062960  
H     6.2170090    5.2606930    0.4795280  
