60


C    -1.2856840    0.1653950    0.1596330  
C    -1.3392920    1.5511020    0.1699250  
C    -2.6307970    1.9004740   -0.4116060  
C    -3.2725620    0.6908470   -0.7648430  
N    -2.4313490   -0.3699670   -0.3865360  
C    -4.5391910    0.6396820   -1.3520620  
C    -5.1702940    1.8476570   -1.6154640  
O    -6.4073530    1.8560170   -2.1823700  
C    -4.5344350    3.0717510   -1.2935900  
O    -5.2750250    4.1887880   -1.6147620  
C    -3.2859330    3.1107170   -0.6987500  
H    -5.0426010   -0.2885690   -1.5912380  
H    -6.6828650    2.7862130   -2.2606810  
H    -4.8374970    4.9795810   -1.2644160  
H    -2.8423310    4.0582250   -0.4175000  
H    -0.5014200   -0.4866060    0.5100140  
C     3.0881020    1.0559560    0.0496640  
C     1.7249280    0.9559960   -0.1585160  
C     1.0833230    2.0311050    0.5320170  
C     2.1674820    2.8159490    1.1620400  
N     3.3389460    2.1676930    0.8606490  
C     1.9955240    3.9587100    1.8825280  
C     0.6511380    4.4685770    2.0317030  
O     0.3708150    5.5019700    2.6232440  
C    -0.5342170    3.6544910    1.3843520  
O    -1.6605890    4.1009380    1.5294760  
C    -0.2534740    2.3883020    0.6542500  
H     1.2668950    0.2016580   -0.7745010  
H     2.8160670    4.5089290    2.3316700  
H     4.2672460    2.4746360    1.1117580  
C     2.9599160   -2.6078690   -2.3947080  
C     4.2750930   -2.8913390   -2.5272440  
C     4.9680760   -1.8428820   -1.7902040  
C     3.8703130   -0.9759700   -1.2597610  
N     2.7063690   -1.4348220   -1.6137580  
C     4.1531770    0.2153220   -0.4478690  
C     5.4861600    0.4558870   -0.2064280  
O     5.9434520    1.4995760    0.5206480  
C     6.5870050   -0.3998280   -0.7227380  
O     7.7440180   -0.0698350   -0.4357300  
C     6.2652420   -1.5781890   -1.5381230  
H     4.7344690   -3.7133830   -3.0580990  
H     6.9256130    1.3968450    0.5083220  
H     7.0954730   -2.1797700   -1.8956810  
H     2.1117310   -3.1481000   -2.7966740  
C    -3.3128150   -2.3985570   -1.5392140  
C    -2.6852730   -1.7335770   -0.5289300  
C    -2.3438280   -2.7719970    0.4673600  
C    -2.8396910   -4.0254240   -0.1577680  
N    -3.4008030   -3.7951930   -1.3156150  
C    -2.6951600   -5.2965170    0.4982060  
C    -2.1255180   -5.3192190    1.7289050  
O    -1.9347010   -6.4383070    2.4503340  
C    -1.6537450   -4.0666370    2.3993040  
O    -1.1453210   -4.1583800    3.5163230  
C    -1.7993480   -2.7694490    1.6979090  
H    -3.0530090   -6.1981440    0.0133930  
H    -1.5144610   -6.1419570    3.2866930  
H    -1.4506460   -1.8854530    2.2226920  
H    -3.7125000   -1.9870360   -2.4561040  
