58


C     1.7039830   -2.5945160   -0.0447240  
C     2.0261280   -1.2125570    0.0203150  
C     3.4087740   -1.0667260   -0.0674470  
C     3.9586690   -2.4349010   -0.1758880  
N     2.8859180   -3.2960450   -0.1553450  
C     5.2752460   -2.7442060   -0.2718190  
C     6.2442500   -1.6565120   -0.2779510  
O     7.4469460   -1.8431000   -0.3614090  
C     5.7230740   -0.1813300   -0.1704310  
O     6.5698150    0.6972030   -0.1837560  
C     4.2605880    0.0749700   -0.0610350  
H     1.3474580   -0.3941050    0.1665020  
H     5.6431280   -3.7632150   -0.3407830  
H     2.8879610   -4.3124290   -0.1606040  
C    -2.5485290   -1.0836020   -0.2670650  
C    -1.1409750   -1.2266640   -0.3507260  
C    -0.7963690   -2.5427780   -0.0531130  
C    -2.0662640   -3.2526390    0.1926890  
N    -3.0772710   -2.3057430    0.1130810  
C    -2.1895770   -4.5797880    0.4298160  
C    -0.9845360   -5.4019190    0.4319250  
O    -1.0050310   -6.6052490    0.6283850  
C     0.3883690   -4.7045580    0.1704880  
O     1.3756930   -5.4375110    0.1146490  
C     0.4415890   -3.2426250    0.0229300  
H    -0.4779930   -0.4162710   -0.6054750  
H    -3.1422350   -5.0691990    0.6078050  
H    -4.0493430   -2.5517310    0.0003160  
C    -2.8896710    1.2610640   -1.0934860  
C    -3.3283430    0.0597750   -0.5092500  
C    -4.7597720    0.2931310   -0.2592450  
C    -4.9883750    1.6636720   -0.7706610  
N    -3.8617130    2.2000660   -1.2536730  
C    -6.2565270    2.2935610   -0.7135590  
C    -7.2855430    1.5929570   -0.1491500  
O    -8.5283480    2.0643930   -0.0339140  
C    -7.0935930    0.2140170    0.4066510  
O    -8.0745890   -0.3442600    0.9085550  
C    -5.7634440   -0.4017930    0.3316350  
H    -6.3882310    3.2980590   -1.0995670  
H    -9.0388650    1.3515980    0.4150010  
H    -5.6670490   -1.3823920    0.7866570  
H    -1.8820780    1.4750760   -1.4336270  
C     3.7756240    1.4011840    0.0375700  
C     4.5008880    2.6039070    0.0559300  
C     3.5475490    3.6434120    0.1776490  
C     2.2243500    2.9391250    0.2273330  
N     2.3609710    1.6454250    0.1408120  
C     0.9946910    3.6656640    0.3567120  
C     1.0772120    5.0195440    0.4254260  
O     0.0259700    5.8285610    0.5468890  
C     2.4002180    5.7658530    0.3742200  
O     2.3266370    6.9987440    0.4482500  
C     3.6271640    5.0099570    0.2465620  
H     5.5719500    2.6980110   -0.0071940  
H     0.0437530    3.1461790    0.4018730  
H     0.4159660    6.7370430    0.5693680  
H     4.5624190    5.5591300    0.2106310  
