58


C     1.5896590   -0.4983040   -0.8497060  
C     2.8774860   -0.0538280   -0.7710050  
C     2.8094330    1.3268120   -0.3033600  
C     1.3721940    1.6363630   -0.1134510  
N     0.6669080    0.4887920   -0.4933790  
C     0.9075500    2.8092530    0.3803600  
C     1.8708940    3.8619590    0.7045000  
O     1.5368640    4.9413760    1.1672200  
C     3.3906620    3.5828340    0.4373480  
O     4.2069280    4.4617020    0.6640130  
C     3.7683890    2.2588390   -0.0647710  
H    -0.1424420    3.0236080    0.5287340  
H     4.8243260    2.0675260   -0.2241280  
H     1.2320200   -1.4802270   -1.1187880  
C    -1.5231830   -2.8289310    1.1815510  
C    -2.8057360   -2.4388910    0.9913550  
C    -2.7220700   -1.1385630    0.3347030  
C    -1.2577040   -0.9042480    0.2004690  
N    -0.5641390   -1.8902120    0.6914800  
C    -0.7251070    0.2911440   -0.4353060  
C    -1.6286150    1.1724910   -0.9511520  
O    -1.2880260    2.2990140   -1.5951120  
C    -3.1031740    0.9801020   -0.7895130  
O    -3.8273710    1.8917300   -1.1774540  
C    -3.6411830   -0.2642560   -0.1491340  
H    -3.7100140   -2.9664690    1.2576010  
H    -2.1390710    2.7468910   -1.8036390  
H    -1.1614190   -3.7427580    1.6365830  
C    -6.5321730   -0.8794060    3.1977180  
C    -5.4017060   -0.7090870    2.4591790  
C    -5.8008290   -0.6264260    1.0737170  
C    -7.2805870   -0.7587110    1.0660080  
N    -7.6552880   -0.9234700    2.3868370  
C    -8.0617990   -0.7007950   -0.0411580  
C    -7.4148010   -0.4936140   -1.3325990  
O    -8.0316750   -0.3978440   -2.3804040  
C    -5.8495220   -0.4023080   -1.3687260  
O    -5.2892020   -0.3673540   -2.4496880  
C    -5.0996960   -0.4252720   -0.0886090  
H    -4.3945660   -0.6483940    2.8420110  
H    -9.1440920   -0.7813280   -0.0149390  
H    -6.6377650   -0.9782100    4.2700900  
H    -8.6074870   -0.9946470    2.7102510  
C     4.2247400   -1.6396490   -2.2132620  
C     4.0576250   -0.8255760   -1.1333220  
C     5.3147970   -0.9807860   -0.3708140  
C     6.1193980   -1.9394050   -1.1862630  
N     5.4730470   -2.3191360   -2.2532770  
C     7.4336430   -2.3608600   -0.7776250  
C     7.9164590   -1.8858400    0.3955000  
O     9.1205250   -2.2005170    0.9001830  
C     7.1154090   -0.9485790    1.2557330  
O     7.6149020   -0.5701860    2.3130660  
C     5.7725300   -0.5172170    0.8072380  
H     7.9983910   -3.0476500   -1.3982850  
H     9.1841080   -1.7126450    1.7504140  
H     5.2300250    0.1608700    1.4582680  
H     3.5228340   -1.7972170   -3.0240260  
