62


C    -0.4979630    2.0353710    0.3156810  
C     0.8651190    1.7364480    0.2910300  
C     1.0160300    0.3675220   -0.0482580  
C    -0.2937510   -0.1487070   -0.2258400  
N    -1.1844300    0.8846180   -0.0342300  
C    -0.6030800   -1.5000590   -0.4973600  
C     0.5038840   -2.3513240   -0.5619950  
O     0.3340920   -3.6766930   -0.8150940  
C     1.8376490   -1.8830830   -0.4094920  
O     2.7551510   -2.8642100   -0.5407480  
C     2.1460950   -0.5136230   -0.1884420  
H     1.6397450    2.4571780    0.4974150  
H    -2.1700430    0.7280520    0.1203920  
H     1.2323250   -4.0571580   -0.8667300  
H     3.6674240   -2.4415310   -0.4073670  
C    -0.6873930    4.3516530    1.3162250  
C    -1.1642520    3.2669280    0.6273130  
C    -2.5466540    3.6632150    0.2501540  
C    -2.7047250    5.0210190    0.8292990  
N    -1.6105040    5.4083390    1.4371010  
C    -3.9224580    5.7663680    0.6806060  
C    -4.9349010    5.2066250   -0.0301270  
O    -6.1258750    5.7988680   -0.2398350  
C    -4.7971160    3.8581070   -0.6531610  
O    -5.7490390    3.4021410   -1.2904270  
C    -3.5296200    3.1107770   -0.4857330  
H    -4.0097610    6.7523180    1.1237730  
H    -6.6398380    5.1643390   -0.7842560  
H    -3.4715900    2.1498850   -0.9874560  
H     0.2881050    4.4569740    1.7749570  
C     3.5081780   -0.0723820   -0.1185780  
C     4.0683980    1.1913550   -0.0389510  
C     5.4799740    1.0147130   -0.0101110  
C     5.6822620   -0.4715060   -0.0821040  
N     4.5349460   -1.0866670   -0.1494950  
C     6.9843960   -1.0672750   -0.0772160  
C     8.0423530   -0.2207660   -0.0089770  
O     9.3156820   -0.6085140    0.0042600  
C     7.8803520    1.2948180    0.0608420  
O     8.9347680    1.9395410    0.1184080  
C     6.5523880    1.8616900    0.0560990  
H     3.5599570    2.1411330   -0.0429830  
H     7.1052060   -2.1435940   -0.1273550  
H     9.8277810    0.2364260    0.0577920  
H     6.4618150    2.9418350    0.1059280  
C    -2.9250270   -1.2627710   -1.4599180  
C    -1.9873160   -1.9415200   -0.6971150  
C    -2.6693080   -3.1005320   -0.1588760  
C    -4.0041920   -3.0563770   -0.6317540  
N    -4.1249650   -1.9305240   -1.4255250  
C    -4.9685780   -4.0114230   -0.2866770  
C    -4.5741020   -5.0367110    0.5571040  
O    -5.4667340   -5.9988920    0.9241960  
C    -3.2408370   -5.0953120    1.0464780  
O    -3.0022430   -6.1744470    1.8750350  
C    -2.2953640   -4.1478290    0.7065130  
H    -4.9535660   -1.6612390   -1.9332800  
H    -5.9906630   -3.9750220   -0.6492420  
H    -4.9960230   -6.6223910    1.5041560  
H    -2.0709490   -6.1771710    2.1416090  
H    -1.2776770   -4.2256400    1.0758200  
H    -2.7966340   -0.3895560   -2.0844320  
