60


C    -2.5853560    1.6428140   -0.0493210  
C    -1.2156790    1.3743200   -0.1362190  
C    -0.5158610    2.5956530    0.0230850  
C    -1.5033650    3.6010560    0.2199250  
N    -2.7342180    3.0040090    0.1594700  
C    -1.1978370    4.9467950    0.4585660  
C     0.1395060    5.2904250    0.5169630  
O     0.5068210    6.5731970    0.7584380  
C     1.1704270    4.3199400    0.3239660  
O     2.4088420    4.8467180    0.4153320  
C     0.8773130    2.9617290    0.0463910  
H    -0.8155220    0.3875740   -0.2801310  
H    -3.6312630    3.4617870    0.2331160  
H    -1.9594520    5.7049380    0.6083000  
H     1.4828690    6.5842260    0.7618360  
H     3.0666030    4.0853010    0.3083760  
C    -2.8253340   -2.7370840   -0.2153950  
C    -4.1666600   -2.9377510   -0.4047400  
C    -4.7388850   -1.6206190   -0.3982380  
C    -3.5692470   -0.6964530   -0.2108530  
N    -2.4594390   -1.3676740   -0.0965040  
C    -3.7253370    0.7595730   -0.1624330  
C    -5.0281340    1.1938680   -0.2147660  
O    -5.3762820    2.5009620   -0.1487410  
C    -6.2039870    0.2998550   -0.3782290  
O    -7.3184780    0.8390090   -0.4325560  
C    -6.0037000   -1.1442140   -0.4779110  
H    -4.7078320   -3.8692680   -0.4774440  
H    -6.3608980    2.4920160   -0.2275140  
H    -6.8833380   -1.7671750   -0.6037990  
C    -2.0040030   -5.0078630   -0.6162390  
C    -0.8973840   -5.7580990   -0.4221270  
C     0.0972320   -4.9191080    0.2115540  
C    -0.5250060   -3.5824110    0.3763930  
N    -1.8252250   -3.6881660   -0.1630820  
C     0.0929820   -2.5382180    0.9783900  
C     1.4690090   -2.7251460    1.4568950  
O     2.1020980   -1.8279260    1.9884230  
C     2.1466280   -4.1264420    1.2718530  
O     3.2881090   -4.2953190    1.6679190  
C     1.3612590   -5.1831590    0.6286760  
H    -0.7722800   -6.7944760   -0.7016460  
H    -0.3734550   -1.5724920    1.1166170  
H     1.8216440   -6.1600320    0.5165660  
H    -2.9416290   -5.2768510   -1.0803890  
C     1.9406170    2.0285900   -0.2193170  
C     1.9289580    0.7253520   -0.6700620  
C     3.2916630    0.3076230   -0.7551280  
C     4.0871840    1.5005640   -0.3093840  
N     3.2958620    2.4904030   -0.0125520  
C     5.5193660    1.4881080   -0.2498770  
C     6.1370150    0.3417860   -0.6265320  
O     7.4573670    0.1646080   -0.6321400  
C     5.3665070   -0.8843690   -1.1035390  
O     6.0542980   -1.8529170   -1.4393320  
C     3.9183670   -0.8391960   -1.1431740  
H     1.0759720    0.1282650   -0.9457950  
H     6.0695550    2.3605500    0.0841550  
H     7.5822140   -0.7607120   -0.9555810  
H     3.3962280   -1.7278210   -1.4817530  
