60


C     1.3890760    1.1640370   -1.8732810  
C     2.7212360    1.2282700   -1.5865140  
C     2.9447330    0.5053300   -0.3608560  
C     1.6940370    0.0008620    0.0660250  
N     0.7545720    0.4190320   -0.8746660  
C     1.5201750   -0.7800470    1.2094810  
C     2.6593420   -1.0537930    1.9536270  
O     2.5586110   -1.7890760    3.0925750  
C     3.9271340   -0.5637190    1.5502100  
O     4.9524320   -0.9161330    2.4088730  
C     4.1074390    0.2084640    0.4011940  
H     3.4685430    1.7279350   -2.1857690  
H     0.5554470   -1.1541760    1.5329750  
H     3.4441450   -1.8184670    3.4965800  
H     5.6860230   -0.2887700    2.3095320  
H     0.8101390    1.5734710   -2.6881400  
C    -1.2078990   -0.9279270   -1.4472860  
C    -2.5556020   -0.8626100   -1.2714340  
C    -2.8475550    0.3240600   -0.5049430  
C    -1.5479990    0.9777550   -0.2515760  
N    -0.5834970    0.1478410   -0.8226060  
C    -1.3561440    2.1468580    0.4062360  
C    -2.5393660    2.8470820    0.8823510  
O    -2.5006210    3.8951610    1.5041700  
C    -3.9469770    2.2261100    0.5626560  
O    -4.9270490    2.9117360    0.8215740  
C    -4.0325650    0.8732880   -0.0429940  
H    -3.2725840   -1.5568620   -1.6786090  
H    -0.3766370    2.5732930    0.5915640  
H    -0.6033790   -1.6524460   -1.9757130  
C    -5.3185930    0.2057360   -0.1414940  
C    -5.6034640   -1.1384620   -0.2902830  
C    -7.0299680   -1.2950150   -0.2794940  
C    -7.5916840    0.0677690   -0.1054240  
N    -6.5135260    0.9216850   -0.0457070  
C    -8.9191680    0.3421660   -0.0296610  
C    -9.8651470   -0.7651680   -0.1300170  
O   -11.0765160   -0.6152650   -0.0743730  
C    -9.2913860   -2.2178670   -0.3205850  
O   -10.0695420   -3.1562570   -0.4097070  
C    -7.8396320   -2.3875100   -0.3835960  
H    -4.8878450   -1.9443660   -0.3289440  
H    -9.3134730    1.3450290    0.1006670  
H    -7.4541910   -3.3947130   -0.5111620  
H    -6.5208420    1.8992920    0.2167520  
C     5.7790380    1.9550750   -0.4132600  
C     5.4333290    0.7028330    0.0039620  
C     6.6877390   -0.0709920   -0.1324470  
C     7.6796600    0.9231270   -0.6451420  
N     7.1393000    2.0997190   -0.8005730  
C     9.0447370    0.5579100   -0.9168160  
C     9.4081900   -0.7319250   -0.7170760  
O    10.6421380   -1.2100840   -0.9356820  
C     8.4273650   -1.7603530   -0.2213870  
O     8.8302760   -2.9103310   -0.0663370  
C     7.0318910   -1.3582660    0.0659510  
H     9.7421780    1.3044140   -1.2802090  
H    10.6018000   -2.1648600   -0.7086080  
H     6.3596700   -2.1271010    0.4327880  
H     5.1334020    2.8238990   -0.4643440  
