58


C     1.9227390   -0.4423020   -0.1272550  
C     1.1768480    0.6953930   -0.0535510  
C     2.0741920    1.8227670   -0.2490420  
C     3.4174580    1.2340560   -0.4481680  
N     3.2676480   -0.1541380   -0.3609790  
C     4.5328670    1.9607310   -0.7030500  
C     4.4184690    3.4206930   -0.7513830  
O     5.3733620    4.1499240   -0.9608300  
C     3.0028010    4.0622090   -0.5252570  
O     2.8866880    5.2754600   -0.5567130  
C     1.8660690    3.1635040   -0.2887770  
H     5.5063610    1.5187900   -0.8833810  
H     0.8850500    3.6120400   -0.1675970  
H     1.6117810   -1.4721860   -0.0194670  
C    -0.8021130    1.5285020    1.2009540  
C    -2.1524300    1.4131190    1.1681120  
C    -2.4945820    0.5413500    0.0658130  
C    -1.2124250    0.1428570   -0.5493960  
N    -0.2066640    0.7865510    0.1709090  
C    -1.0804260   -0.6923830   -1.6148600  
C    -2.2849320   -1.2673640   -2.1805560  
O    -2.2875070   -2.0411150   -3.1262750  
C    -3.6674780   -0.8904920   -1.5299750  
O    -4.6674510   -1.4151440   -1.9884930  
C    -3.7096230    0.0860070   -0.4057780  
H    -2.8405660    1.8649100    1.8654870  
H    -0.1258410   -0.9498420   -2.0592250  
H    -0.1710280    2.0709320    1.8915730  
C    -5.2587960    1.8385440    0.5385070  
C    -4.9828290    0.5650580    0.1072470  
C    -6.2615270   -0.1578770    0.3222570  
C    -7.1636530    0.8734630    0.9123080  
N    -6.5670990    2.0336370    1.0186400  
C    -8.5166670    0.5808990    1.2974150  
C    -8.9634590   -0.6863710    1.1242710  
O   -10.1962780   -1.1054260    1.4432510  
C    -8.0770680   -1.7551080    0.5467960  
O    -8.5458190   -2.8851530    0.4324670  
C    -6.6927780   -1.4205580    0.1423250  
H    -9.1392930    1.3630610    1.7171530  
H   -10.2185140   -2.0592000    1.2070130  
H    -6.1058550   -2.2122400   -0.3056780  
H    -4.5915090    2.6912170    0.5023100  
C     4.2380030   -2.1895490   -1.4012710  
C     4.2672230   -1.1221040   -0.5594120  
C     5.5108040   -1.2691700    0.2146530  
C     6.1184250   -2.5124760   -0.3491070  
N     5.3679760   -3.0382830   -1.2795610  
C     7.3785610   -3.0133850    0.1279920  
C     7.9844510   -2.3469940    1.1411830  
O     9.1523400   -2.7119860    1.6868800  
C     7.3748080   -1.1143300    1.7542890  
O     7.9772230   -0.5686670    2.6737570  
C     6.0888160   -0.5998200    1.2282880  
H     7.8061720   -3.9074770   -0.3116810  
H     9.3412310   -2.0518750    2.3890470  
H     5.6930980    0.3025660    1.6836420  
H     3.4649500   -2.4414180   -2.1180470  
