60


C    -3.6575470    1.9089450   -0.0978960  
C    -2.2994780    2.0137440   -0.1212920  
C    -1.7495640    0.6831580   -0.0973910  
C    -2.8454850   -0.2070710   -0.0739860  
N    -4.0219210    0.5594640   -0.0471100  
C    -2.6917200   -1.5949650   -0.1681780  
C    -1.4039010   -2.0979900   -0.2541890  
O    -1.2114550   -3.4392800   -0.3541260  
C    -0.2742940   -1.2423560   -0.2484970  
O     0.8992310   -1.9056850   -0.3309850  
C    -0.4147920    0.1708290   -0.1495080  
H    -1.7633700    2.9464990   -0.1918620  
H    -3.5224860   -2.2849480   -0.2148630  
H    -0.2487400   -3.5834130   -0.4053350  
H     1.6329020   -1.2286490   -0.3955030  
H    -4.4325560    2.6572370   -0.1049730  
C     0.7482250    1.0201370   -0.0816340  
C     0.8963070    2.3518800    0.2385660  
C     2.2921230    2.6480930    0.1525490  
C     2.9269040    1.3529520   -0.2511040  
N     2.0339320    0.4181790   -0.3740660  
C     4.3537050    1.2241110   -0.4572560  
C     5.0992240    2.3502460   -0.2641700  
O     6.4187630    2.4039700   -0.4277890  
C     4.4849270    3.6652720    0.1773880  
O     5.2766560    4.6002050    0.3227080  
C     3.0484510    3.7588610    0.3713920  
H     0.1342700    3.0427880    0.5593950  
H     6.6626760    3.3348570   -0.2009640  
H     2.6424830    4.7164170    0.6796100  
C     4.4798370   -0.7911090   -1.9157630  
C     5.1826010   -1.9443660   -2.0147820  
C     6.1345010   -1.9690090   -0.9249640  
C     5.9279650   -0.7109290   -0.1661840  
N     4.9072840   -0.0193730   -0.8235330  
C     6.6115350   -0.3787540    0.9560480  
C     7.6337180   -1.3028710    1.4468910  
O     8.2941240   -1.0846330    2.4506100  
C     7.8847350   -2.6300390    0.6442580  
O     8.7415070   -3.4069870    1.0353220  
C     7.0663690   -2.8814480   -0.5443230  
H     5.0574680   -2.7062060   -2.7706120  
H     6.4509260    0.5391380    1.5080190  
H     7.2305950   -3.8097790   -1.0829970  
H     3.6850730   -0.4123250   -2.5425830  
C    -5.3290700    0.1415370    0.0693510  
C    -5.8488750   -1.0902220    0.3863270  
C    -7.2708460   -0.9091710    0.3513230  
C    -7.4581250    0.5402690   -0.0103370  
N    -6.3151870    1.1462670   -0.1645860  
C    -8.7615780    1.1250690   -0.1506760  
C    -9.8273950    0.3180320    0.0689740  
O   -11.0994820    0.7094930   -0.0187190  
C    -9.6737130   -1.1492330    0.4466340  
O   -10.7205460   -1.7765350    0.6200930  
C    -8.3405490   -1.7175870    0.5756810  
H    -5.3319390   -1.9918150    0.6699320  
H    -8.8693890    2.1700570   -0.4182890  
H   -11.6278440   -0.0957610    0.1958720  
H    -8.2643620   -2.7663350    0.8438220  
