60


C    -0.9211900    1.6957660    0.0808070  
C     0.4219260    1.3030010    0.0459930  
C     0.4658100   -0.1143670   -0.0222920  
C    -0.8854630   -0.5536600   -0.0190340  
N    -1.6912860    0.5533370    0.0408350  
C    -1.2675470   -1.9131140   -0.0088460  
C    -0.2290560   -2.8418330   -0.0123490  
O    -0.5099810   -4.1661920   -0.0503720  
C     1.1380240   -2.4482910   -0.0243820  
O     1.9835910   -3.4983730   -0.0343610  
C     1.5298930   -1.0834240   -0.0507010  
H     1.2583620    1.9793400    0.0010800  
H    -2.7013270    0.5963520   -0.0402230  
H     0.3461380   -4.6338100   -0.0181990  
H     2.9236110   -3.1287670    0.0036010  
C     0.6855280    5.5874820    1.3674860  
C    -0.3695440    6.3774760    1.0450340  
C    -1.4052690    5.5188800    0.5106520  
C    -0.8518050    4.1507890    0.5284770  
N     0.4343310    4.2598150    1.0223940  
C    -1.5193680    3.0144400    0.1280590  
C    -2.9397120    3.2131890   -0.2315110  
O    -3.7158240    2.2866220   -0.4304060  
C    -3.5088490    4.6761110   -0.3603430  
O    -4.6427230    4.8096750   -0.7938280  
C    -2.6647900    5.7829360    0.0592010  
H    -0.4330870    7.4488330    1.1680190  
H    -3.0743890    6.7864900    0.0079710  
H     1.6359930    5.8539350    1.8104390  
H     0.9415490    3.4698510    1.3958090  
C     2.9203770   -0.7283390   -0.1232710  
C     3.5555380    0.4866060   -0.3055840  
C     4.9568430    0.2248260   -0.2989970  
C     5.0679430   -1.2586650   -0.0946710  
N     3.8852140   -1.7963420   -0.0012650  
C     6.3318550   -1.9293300   -0.0256060  
C     7.4405660   -1.1598440   -0.1611600  
O     8.6871330   -1.6252850   -0.1223600  
C     7.3706820    0.3484080   -0.3760120  
O     8.4580170    0.9250520   -0.4828650  
C     6.0765180    0.9941040   -0.4383920  
H     3.1065680    1.4497520   -0.4815860  
H     6.3854540   -3.0014900    0.1262230  
H     9.2556940   -0.8271570   -0.2510350  
H     6.0547400    2.0676630   -0.5950960  
C    -4.8726410   -1.2783270   -2.5936740  
C    -3.6063710   -1.2116910   -2.1172460  
C    -3.6199020   -2.0039900   -0.8920030  
C    -5.0326530   -2.4934880   -0.7961180  
N    -5.7556030   -2.0695390   -1.7923970  
C    -5.4698300   -3.3445490    0.2793980  
C    -4.5586780   -3.6885000    1.2174840  
O    -4.8270270   -4.4635930    2.2807590  
C    -3.1365510   -3.1922840    1.1709590  
O    -2.4128390   -3.4803920    2.1179010  
C    -2.6778770   -2.3462700    0.0238010  
H    -2.7596720   -0.6930110   -2.5428890  
H    -6.4988430   -3.6838660    0.3194420  
H    -3.9889090   -4.5044290    2.7916940  
H    -5.2697060   -0.8149660   -3.4889300  
