64


C     3.2286380   -1.8100440    0.5633660  
C     1.9130380   -1.4347200    0.5713140  
C     1.8715710   -0.0222600    0.3159140  
C     3.2155210    0.4030940    0.1451170  
N     4.0378720   -0.7073770    0.3080990  
C     3.5603910    1.7275770   -0.1674230  
C     2.5203150    2.6387890   -0.2854330  
O     2.7925310    3.9452740   -0.5724790  
C     1.1745440    2.2353490   -0.1052540  
O     0.2631750    3.2679250   -0.2345110  
C     0.8175620    0.9179210    0.1843580  
H     1.0678550   -2.0887250    0.7308090  
H     4.5811540    2.0446580   -0.3526460  
H     1.9425190    4.4189590   -0.5679670  
H    -0.6113970    2.9499200    0.0455840  
H     3.6860030   -2.7741150    0.7320710  
C     6.9414910   -3.0209020   -2.1283030  
C     5.7859850   -2.4924230   -1.6147480  
C     6.1706330   -1.5645600   -0.5885590  
C     7.5889910   -1.5699820   -0.5267420  
N     8.0296740   -2.4703430   -1.4754280  
C     8.3180020   -0.7574740    0.3504550  
C     7.5974100    0.0746450    1.1922720  
O     8.2500920    0.8899130    2.0695820  
C     6.1773500    0.0856060    1.1749070  
O     5.6094930    0.9215340    2.1118180  
C     5.4603380   -0.7206330    0.2949280  
H     4.7804230   -2.7288610   -1.9314900  
H     8.9954480   -2.6802710   -1.6719700  
H     9.4024520   -0.7504080    0.3863300  
H     7.5666000    1.4015680    2.5380280  
H     4.6933670    1.1313990    1.8603580  
H     7.0848670   -3.7493610   -2.9138310  
C    -1.1214240   -0.1706880    1.4246740  
C    -0.5969130    0.5411800    0.3672380  
C    -1.7135250    0.8221750   -0.5149660  
C    -2.8726390    0.2572140    0.0747660  
N    -2.4770260   -0.3477720    1.2479490  
C    -4.1455120    0.2897070   -0.5404920  
C    -4.2199790    0.9488000   -1.7713610  
O    -5.4237750    1.0923260   -2.3852030  
C    -3.0668930    1.5156080   -2.3722830  
O    -3.3216700    2.1235390   -3.5846410  
C    -1.8246640    1.4536840   -1.7716800  
H    -3.0999850   -0.7835640    1.9111170  
H    -5.2619390    1.5099220   -3.2495240  
H    -2.4907670    2.4295040   -3.9778480  
H    -0.9533330    1.8860160   -2.2566330  
H    -0.6248090   -0.5526740    2.3050240  
C    -6.2360900    0.4705400    3.4220700  
C    -5.3610150    0.7221140    2.4170700  
C    -5.7773400   -0.1518360    1.3229100  
C    -6.9634000   -0.8722690    1.8740780  
N    -7.2245590   -0.5066920    3.0990320  
C    -7.7026800   -1.8300330    1.0931940  
C    -7.2798640   -2.0682670   -0.1685920  
O    -7.8641870   -2.9388310   -1.0078980  
C    -6.0604470   -1.3936200   -0.7441900  
O    -5.6881980   -1.7705510   -1.8492990  
C    -5.3278990   -0.3555370    0.0560920  
H    -4.5488710    1.4348170    2.4014920  
H    -8.5639880   -2.3313860    1.5203680  
H    -7.3085950   -2.9314630   -1.8182100  
H    -6.2673910    0.9277860    4.4042610  
