60


C     1.2171380   -3.2468580    0.1961100  
C     0.2921590   -2.2297170    0.2281490  
C     0.9879080   -1.0088950   -0.0505260  
C     2.3446360   -1.3544440   -0.2441250  
N     2.4503850   -2.7220290   -0.1039700  
C     3.3894960   -0.4195310   -0.4709180  
C     2.9947180    0.9214010   -0.4616660  
O     3.9091350    1.9100410   -0.6726440  
C     1.6440120    1.3145520   -0.2823700  
O     1.4735900    2.6540490   -0.3378260  
C     0.5953280    0.3713960   -0.1107510  
H    -0.7520700   -2.3562860    0.4652100  
H     3.3242020   -3.2258240   -0.0993760  
H     3.4049020    2.7466980   -0.6698130  
H     0.4918060    2.8396400   -0.1826360  
H     1.0923340   -4.3078630    0.3585760  
C    -0.7689390    0.8095570   -0.0234290  
C    -1.9594500    0.1029440   -0.0223720  
C    -3.0080090    1.0615530    0.0760600  
C    -2.3083730    2.3850300    0.1184420  
N    -1.0149180    2.2247220    0.0564790  
C    -3.0111910    3.6300440    0.1907890  
C    -4.3642860    3.5643440    0.2184990  
O    -5.1642100    4.6262710    0.2920580  
C    -5.1204370    2.2442460    0.2050810  
O    -6.3401230    2.3324310    0.3497590  
C    -4.3834900    0.9784320    0.0910830  
H    -2.0909510   -0.9591050   -0.1370990  
H    -2.4747410    4.5717640    0.2169550  
H    -6.0774620    4.2516270    0.3273330  
C    -4.3288210   -2.8305090    2.4241770  
C    -4.0704180   -1.5827530    1.9512560  
C    -4.9609420   -1.3502580    0.8333930  
C    -5.7765580   -2.5815140    0.6989430  
N    -5.3292830   -3.4449430    1.6812340  
C    -6.7745340   -2.7655050   -0.2041040  
C    -7.0736430   -1.6795110   -1.1250290  
O    -7.9782230   -1.7222070   -1.9445960  
C    -6.1752370   -0.3928300   -1.0650920  
O    -6.3024930    0.4437600   -1.9402500  
C    -5.1549670   -0.2677120    0.0128790  
H    -3.3344090   -0.8938420    2.3356820  
H    -7.3736020   -3.6693200   -0.2574400  
H    -3.8733440   -3.3568590    3.2526360  
H    -5.7376000   -4.3440400    1.8829730  
C     5.1622740   -1.9558660   -1.4266930  
C     4.7608470   -0.8581740   -0.7129920  
C     6.0333660   -0.2832170   -0.2146610  
C     7.0816330   -1.1983140   -0.7489730  
N     6.5610990   -2.1635960   -1.4596420  
C     8.4795860   -0.9959580   -0.4778140  
C     8.8271360    0.0531030    0.3058390  
O    10.0892130    0.3580090    0.6469040  
C     7.7928960    0.9816980    0.8765990  
O     8.1829820    1.9083760    1.5847270  
C     6.3621390    0.7572750    0.5731580  
H     9.2145260   -1.6780720   -0.8905900  
H    10.0204880    1.1584520    1.2125710  
H     5.6504960    1.4661360    0.9782800  
H     4.5296250   -2.6320910   -1.9906820  
