62


C     0.5893230    1.7407680   -0.2361680  
C    -0.7901550    1.7921000   -0.4290480  
C    -1.2577580    0.4562730   -0.4502690  
C    -0.1311360   -0.3977090   -0.2501700  
N     0.9614520    0.4082770   -0.1268550  
C    -0.2119680   -1.8137610   -0.2155960  
C    -1.5006680   -2.3453120   -0.3943920  
O    -1.7151430   -3.6719220   -0.3244810  
C    -2.6378000   -1.5080580   -0.6165060  
O    -3.7967320   -2.2152240   -0.8218800  
C    -2.5383720   -0.1260550   -0.6424350  
H    -1.3813960    2.6898700   -0.5366630  
H     1.9286340    0.1256070   -0.0414340  
H    -2.6714750   -3.8145270   -0.4578550  
H    -4.5762630   -1.6520780   -0.6672550  
C     1.5894130    2.7532010   -0.1399720  
C     1.4928900    4.1236860   -0.2071990  
C     2.8285790    4.6133870   -0.0476100  
C     3.6665200    3.3722460    0.1128400  
N     2.9399430    2.2933160    0.0585940  
C     5.0905630    3.4425880    0.2996920  
C     5.6533040    4.6739770    0.3269970  
O     6.9592180    4.9040120    0.4922210  
C     4.8361020    5.9463720    0.1686390  
O     5.4678330    7.0066080    0.2115690  
C     3.3986920    5.8502520   -0.0196790  
H     0.6000800    4.7162340   -0.3490270  
H     5.6749240    2.5362060    0.4119680  
H     7.0440240    5.8867350    0.4652510  
H     2.8430990    6.7760390   -0.1301540  
C     0.9669270   -2.6395380   -0.0062890  
C     2.0786270   -2.3489500    0.7449380  
C     2.9707580   -3.4713220    0.5804980  
C     2.2345120   -4.3871980   -0.3514810  
N     1.0732070   -3.9088950   -0.6841380  
C     2.8070380   -5.6357710   -0.7883600  
C     4.0284520   -5.9666710   -0.3092240  
O     4.6830500   -7.0950900   -0.6181730  
C     4.7872270   -5.0699460    0.6454570  
O     5.8920110   -5.4647060    1.0218040  
C     4.1924820   -3.7987550    1.0650130  
H     2.2338670   -1.5065080    1.4047620  
H     2.2584040   -6.2764510   -1.4695850  
H     5.5292720   -7.0430900   -0.1181080  
H     4.7699930   -3.1773650    1.7425140  
C    -3.8035090    1.6022480   -1.9198420  
C    -5.0603620    2.1376460   -1.9187590  
C    -5.7793290    1.5379800   -0.8293770  
C    -4.8896910    0.6349350   -0.1922860  
N    -3.6767180    0.6813140   -0.8778810  
C    -5.2507370   -0.1045590    0.9460410  
C    -6.5436530    0.0540310    1.4287850  
O    -6.9420690   -0.6404810    2.5306570  
C    -7.4508660    0.9400030    0.7914350  
O    -8.6949760    0.9847560    1.3869540  
C    -7.0818170    1.6827410   -0.3161470  
H    -5.4363280    2.8712890   -2.6186330  
H    -4.5565730   -0.7427240    1.4829280  
H    -7.8603860   -0.3815620    2.7212730  
H    -9.2517980    1.6344520    0.9329120  
H    -7.7893080    2.3682690   -0.7783700  
H    -2.9710190    1.7629350   -2.5890850  
