58


C     2.1347570   -0.1334020   -0.2202120  
C     3.4845380    0.0697690   -0.2700550  
C     4.1047120   -1.2550090   -0.1816700  
C     3.0059530   -2.2400590   -0.0954180  
N     1.7986690   -1.4892980   -0.1168860  
C     3.1940860   -3.5748860    0.0002320  
C     4.5749560   -4.0850460    0.0226160  
O     4.8247170   -5.2754920    0.0896860  
C     5.7498450   -3.0559940   -0.0308200  
O     6.9014530   -3.4513160    0.0138670  
C     5.4049910   -1.6308370   -0.1330760  
H     2.3745780   -4.2766670    0.0644830  
H     6.2253570   -0.9223820   -0.1492740  
H     1.3443790    0.5955700   -0.3019940  
C     0.5113050   -1.9436910   -0.0584870  
C    -0.6533700   -1.1638960   -0.0376900  
C    -1.7112140   -2.0880270    0.0303420  
C    -1.0290230   -3.4290100    0.0534830  
N     0.2791380   -3.3180790   -0.0101800  
C    -1.7471770   -4.6556840    0.1489390  
C    -3.0955730   -4.5648380    0.2665850  
O    -3.8992050   -5.6141040    0.3977500  
C    -3.8337750   -3.2326270    0.2708790  
O    -5.0609900   -3.3331590    0.4344790  
C    -3.1052180   -1.9840810    0.0849810  
H    -0.7223880   -0.0899200   -0.0061580  
H    -1.2262890   -5.6061130    0.1511140  
H    -4.8084080   -5.2372830    0.4768270  
C    -3.8314750   -0.7372420   -0.0376860  
C    -3.3948310    0.4973320   -0.4865660  
C    -4.5015940    1.4056860   -0.4510830  
C    -5.6577690    0.6257450    0.0551890  
N    -5.1862140   -0.6450470    0.2934440  
C    -6.9058940    1.1322240    0.2237230  
C    -7.1385470    2.5351590   -0.1076870  
O    -8.2274440    3.0762980    0.0122400  
C    -5.9263470    3.3825100   -0.6431840  
O    -6.1036160    4.5595440   -0.9233490  
C    -4.6295970    2.7233480   -0.7845000  
H    -2.4132740    0.7269520   -0.8673100  
H    -7.7418990    0.5466590    0.5933700  
H    -3.8006180    3.3170880   -1.1581190  
H    -5.7327430   -1.4589440    0.5398570  
C     5.3728780    1.6157290   -0.9759270  
C     4.1581160    1.3385680   -0.4041390  
C     3.6565190    2.6613980    0.0226110  
C     4.7269260    3.6111490   -0.4044680  
N     5.7194190    2.9826060   -0.9801110  
C     4.6292290    5.0217710   -0.1622480  
C     3.5312800    5.4789060    0.4910080  
O     3.3103070    6.7676970    0.7751300  
C     2.4493480    4.5455300    0.9629400  
O     1.4885350    5.0269340    1.5557450  
C     2.5781540    3.0938400    0.7011330  
H     5.4210340    5.6842810   -0.4932190  
H     2.4530740    6.7985400    1.2537440  
H     1.7901640    2.4587880    1.0937700  
H     6.0527790    0.9149210   -1.4438160  
