62


C    -1.1281480   -2.9932580   -1.0181750  
C    -0.2239240   -1.9705480   -0.8755220  
C    -0.9325140   -0.8620250   -0.3064250  
C    -2.2757990   -1.2774940   -0.1263050  
N    -2.3597150   -2.5843840   -0.5555810  
C    -3.3092580   -0.4434540    0.3621820  
C    -2.9242310    0.8698190    0.6623310  
O    -3.8373410    1.7436950    1.1780010  
C    -1.5946140    1.3155850    0.4932040  
O    -1.4117260    2.6224770    0.8884280  
C    -0.5696150    0.4784690    0.0192070  
H     0.8181070   -2.0098580   -1.1579010  
H    -3.2211620   -3.1037030   -0.6298920  
H    -3.3525800    2.5588090    1.4023740  
H    -0.4563370    2.8124190    0.9577990  
H    -0.9917270   -3.9923330   -1.4070220  
C     0.7938980    0.9527750   -0.1021650  
C     1.9818860    0.2836460    0.0399500  
C     3.0666220    1.2045200   -0.1405390  
C     2.4412290    2.5138380   -0.4108930  
N     1.0524280    2.3411210   -0.3114700  
C     3.1138420    3.6481820   -0.7095370  
C     4.5701300    3.5868830   -0.6853510  
O     5.2871450    4.5307920   -0.9732450  
C     5.2447480    2.2494350   -0.2126910  
O     6.4514210    2.3059300    0.0319650  
C     4.4372130    1.0315530   -0.0779450  
H     2.0848750   -0.7530150    0.3171040  
H     2.6363590    4.5914560   -0.9549900  
H     0.4627640    2.8472190   -0.9654300  
C     3.8334880   -2.8619030   -2.2399300  
C     3.7884440   -1.5471540   -1.8483640  
C     4.6625030   -1.4050080   -0.7145930  
C     5.2249040   -2.6870220   -0.4763570  
N     4.6874910   -3.5557440   -1.4060920  
C     6.1770690   -2.9325500    0.5181410  
C     6.5911990   -1.8440250    1.2686160  
O     7.5328830   -1.9974620    2.2374780  
C     6.0551780   -0.5452850    1.0521560  
O     6.5677710    0.4091920    1.8988330  
C     5.0613340   -0.3004990    0.0987350  
H     3.2132040   -0.7696230   -2.3290060  
H     4.9466880   -4.5240660   -1.5099350  
H     6.6110900   -3.9115250    0.6941990  
H     7.6895660   -1.0996910    2.5900720  
H     6.7385940    1.2112850    1.3497820  
H     3.3313450   -3.3633280   -3.0553450  
C    -5.0302190   -2.1782930    1.0423460  
C    -4.6666990   -0.9495090    0.5653230  
C    -5.9603060   -0.3006670    0.2496020  
C    -6.9819090   -1.3232760    0.6169640  
N    -6.4280200   -2.4099370    1.0830960  
C    -8.3910100   -1.0842510    0.4500760  
C    -8.7738770    0.1037540   -0.0761710  
O   -10.0500050    0.4591040   -0.2933760  
C    -7.7673720    1.1467640   -0.4744010  
O    -8.1893360    2.1992150   -0.9499290  
C    -6.3246810    0.8799900   -0.2831200  
H    -9.1063170   -1.8474960    0.7356760  
H   -10.0087880    1.3626130   -0.6769270  
H    -5.6336040    1.6679010   -0.5574280  
H    -4.3709230   -2.9519350    1.4198680  
