58


C     2.3373810   -1.1169670   -0.6472870  
C     3.4453460   -0.3763270   -0.3322270  
C     2.9457560    0.9637330    0.0075190  
C     1.4719600    0.8999550   -0.1030710  
N     1.1762520   -0.3850820   -0.4777930  
C     0.5935230    1.9482270    0.0850250  
C     1.1970640    3.2455300    0.4727930  
O     0.5510900    4.2076310    0.8400620  
C     2.7592050    3.3565060    0.4774940  
O     3.2720500    4.4494510    0.6515740  
C     3.5606560    2.1420340    0.2884980  
H     4.6344930    2.2345040    0.3780010  
H     2.2858680   -2.1416490   -0.9824550  
H     0.2497490   -0.6822520   -0.7521960  
C    -0.8359110    1.8068240   -0.0774390  
C    -1.6247000    0.6999830    0.1701720  
C    -2.9624180    1.0816440   -0.1911030  
C    -2.8141770    2.4881520   -0.6931820  
N    -1.5847260    2.9055040   -0.6177300  
C    -3.9327790    3.2328360   -1.2044270  
C    -5.1436740    2.6288180   -1.1931070  
O    -6.2758090    3.2059630   -1.6146060  
C    -5.3397870    1.2277170   -0.6652570  
O    -6.4942030    0.8048870   -0.6290440  
C    -4.1744410    0.4491890   -0.1873700  
H    -1.3390130   -0.2136260    0.6724730  
H    -3.7919620    4.2453560   -1.5651430  
H    -6.9819200    2.5391500   -1.4579640  
C    -3.3813800   -1.8938300    3.5569600  
C    -3.4271010   -0.8718970    2.6684810  
C    -4.0491650   -1.4346270    1.4748660  
C    -4.3270570   -2.8572080    1.8508400  
N    -3.9333880   -3.1185970    3.0647750  
C    -4.9722320   -3.7714350    0.9448980  
C    -5.3233970   -3.3048700   -0.2752030  
O    -5.9182950   -4.0464570   -1.2229520  
C    -5.0316850   -1.8904850   -0.7005230  
O    -5.2839890   -1.5906080   -1.8630930  
C    -4.4013780   -0.9334330    0.2625600  
H    -3.0881290    0.1451700    2.8017100  
H    -5.1614230   -4.7947440    1.2494670  
H    -6.0156490   -3.4531060   -1.9996140  
H    -2.9914330   -1.8769710    4.5678680  
C     7.0781580    0.4853270    2.0662280  
C     8.0044030   -0.2832490    1.4538100  
C     7.2894910   -0.9553810    0.3722950  
C     5.8866940   -0.4378760    0.4804490  
N     5.7749920    0.3948570    1.4713220  
C     4.8232800   -0.8691260   -0.4264280  
C     5.1921750   -1.8184990   -1.3410370  
O     4.3369460   -2.3738230   -2.2236150  
C     6.5883880   -2.3356290   -1.4785760  
O     6.8062770   -3.1542950   -2.3730320  
C     7.6390550   -1.8566500   -0.5626350  
H     9.0501320   -0.4008490    1.7012650  
H     4.8960690   -2.9661780   -2.7771790  
H     8.6372080   -2.2645910   -0.6886380  
H     7.2040410    1.1370820    2.9219400  
