60


C    -3.7441780    0.1886430    0.0081370  
C    -4.3664960    1.4403680   -0.0529260  
C    -3.3555480    2.4266880   -0.1035950  
C    -2.1027340    1.7418970   -0.0811360  
N    -2.3690750    0.4029850   -0.0144070  
C    -0.8590410    2.4104590   -0.1007760  
C    -0.9185710    3.8039650   -0.1518830  
O     0.2276060    4.5198490   -0.2242170  
C    -2.1650840    4.5019110   -0.1778290  
O    -2.0167430    5.8709310   -0.2384110  
C    -3.3703130    3.8403100   -0.1562870  
H    -5.4306170    1.6114710   -0.1024840  
H    -1.7034930   -0.3580250   -0.0319900  
H    -0.0078490    5.4628080   -0.1631820  
H    -2.8792680    6.2996090   -0.1338510  
H    -4.3085490    4.3898620   -0.1774350  
C     1.0164610   -0.7380300   -2.6150440  
C     0.1985500    0.2212600   -2.1103540  
C     0.8337870    0.7485070   -0.9187270  
C     2.1149490    0.0179520   -0.7808240  
N     2.1609960   -0.8691700   -1.8388560  
C     3.0372640    0.2058750    0.2113400  
C     2.7287310    1.2627080    1.1933540  
O     3.5299420    1.6399150    2.0298400  
C     1.3311720    1.9749210    1.1299840  
O     1.0219080    2.7116080    2.0481100  
C     0.4360240    1.7047330   -0.0216990  
H    -0.7494360    0.5352840   -2.5195060  
H     0.8861700   -1.3602490   -3.4905410  
H     2.9124410   -1.5212080   -2.0002950  
C     6.5193340   -0.4372740   -2.5134590  
C     5.3377170   -0.0387460   -1.9728970  
C     5.2465800   -0.6266690   -0.6498700  
C     6.4949100   -1.4048460   -0.4630600  
N     7.2092660   -1.2679030   -1.6400750  
C     6.8355300   -2.0759250    0.6672200  
C     5.9071130   -2.0457100    1.7886810  
O     6.1339150   -2.5816450    2.8622160  
C     4.5372700   -1.3017750    1.5936870  
O     3.6855230   -1.4166420    2.4547660  
C     4.2956510   -0.5438300    0.3337470  
H     4.6169380    0.6211520   -2.4315680  
H     7.7712120   -2.6138010    0.7847170  
H     6.9489310   -0.1935290   -3.4762650  
H     8.1426240   -1.6193690   -1.7866420  
C    -7.8375620   -1.4881750    0.8175860  
C    -6.7993330   -0.6129940    0.7529380  
C    -5.6499830   -1.4045090    0.3340360  
C    -6.1974070   -2.7689560    0.2044020  
N    -7.4787790   -2.8169600    0.4723870  
C    -5.3804900   -3.8973720   -0.1664570  
C    -4.0619100   -3.6839670   -0.3688450  
O    -3.1781310   -4.6562950   -0.6819210  
C    -3.4626580   -2.3237610   -0.2396760  
O    -2.2375550   -2.2468980   -0.3943390  
C    -4.3301300   -1.1275220    0.0569940  
H    -6.8127680    0.4338680    1.0160490  
H    -5.8244820   -4.8833810   -0.2488080  
H    -2.3064830   -4.2107480   -0.7273170  
H    -8.8615800   -1.2838070    1.1068600  
