60


C     3.4882790   -0.1769210    0.0330580  
C     2.1649160    0.2793290    0.0050100  
C     2.1803750    1.6887550    0.1216750  
C     3.5554000    2.0734830    0.1980260  
N     4.3109710    0.9350190    0.1565680  
C     3.9682130    3.4068230    0.2640110  
C     2.9726670    4.3686020    0.2193480  
O     3.2931220    5.6814240    0.2559270  
C     1.5873150    4.0203900    0.1312570  
O     0.7614420    5.1132450    0.1198170  
C     1.1558970    2.6944410    0.1223860  
H     1.2989560   -0.3456070   -0.1387690  
H     5.3180600    0.8643540    0.0936170  
H     5.0104660    3.7020430    0.3164010  
H     2.4484940    6.1665980    0.1701500  
H     0.0472460    4.9324410   -0.5374630  
C    -1.1759670   -0.1156570    2.6478500  
C    -0.2159450    0.6790170    2.1052770  
C    -0.7983170    1.3609220    0.9725080  
C    -2.1979230    0.8852360    0.9001580  
N    -2.3712520    0.0089850    1.9472230  
C    -3.1017420    1.2662020   -0.0580310  
C    -2.6650580    2.2992510   -0.9982470  
O    -3.3718760    2.7406770   -1.8883850  
C    -1.2292960    2.9206960   -0.8126240  
O    -1.0127280    3.9411540   -1.4648360  
C    -0.2726250    2.3091780    0.1130610  
H     0.7913420    0.8035420    2.4688300  
H    -1.1254370   -0.7641750    3.5120780  
H    -3.1802560   -0.5827650    2.0672610  
C    -5.5579670    1.5007760   -0.3828390  
C    -6.6619080    0.7227640   -0.4518500  
C    -6.2375550   -0.6542580   -0.3209820  
C    -4.7604880   -0.6183190   -0.1741480  
N    -4.3945960    0.7273820   -0.1862930  
C    -3.9805940   -1.7295480   -0.0865260  
C    -4.6289110   -3.0420430   -0.0920930  
O    -4.0015380   -4.0859870   -0.0096820  
C    -6.1937650   -3.0958120   -0.1999780  
O    -6.7536680   -4.1793770   -0.1737440  
C    -6.9189490   -1.8284590   -0.3348640  
H    -7.6771480    1.0664090   -0.5874690  
H    -2.8972020   -1.7048990   -0.0594920  
H    -7.9971930   -1.8763560   -0.4533400  
H    -5.4635060    2.5734610   -0.4547010  
C     1.7512600   -4.3113010    0.3601300  
C     1.8744870   -2.9601990    0.4515990  
C     3.2504390   -2.6696260    0.0722950  
C     3.8229940   -4.0028260   -0.2066290  
N     2.9444570   -4.9610970   -0.0512970  
C     5.1993910   -4.1862300   -0.5930900  
C     5.9878200   -3.0911950   -0.6673410  
O     7.3006460   -3.1274900   -0.9778780  
C     5.4565560   -1.7266770   -0.3797700  
O     6.2741350   -0.7988790   -0.4151030  
C     3.9966180   -1.5219230   -0.0690310  
H     1.1264670   -2.2582940    0.7887040  
H     5.5777020   -5.1830860   -0.7910540  
H     7.6089110   -2.1984670   -0.9350570  
H     0.8760600   -4.9145890    0.5703500  
