62


C    -0.9975140   -1.5243650   -0.9673610  
C     0.3705080   -1.6339180   -1.0245450  
C     0.8956150   -0.3225390   -0.7775550  
C    -0.2040780    0.5431150   -0.5563140  
N    -1.3506550   -0.2123730   -0.6949700  
C    -0.0692750    1.9166390   -0.2609100  
C     1.2403800    2.3985730   -0.1835830  
O     1.4608810    3.6948030    0.1499900  
C     2.3591440    1.5576790   -0.4166100  
O     3.5657210    2.2114260   -0.3479210  
C     2.2044560    0.2065050   -0.7141190  
H     0.9310880   -2.5434000   -1.1832560  
H    -2.2946210    0.1362210   -0.6206430  
H     2.4255340    3.8326620    0.1452200  
H     4.2916950    1.5749980   -0.2239120  
C    -1.9498960   -3.4499180   -2.2045320  
C    -2.9875210   -4.3156290   -2.1161770  
C    -3.7709680   -3.9380450   -0.9582120  
C    -3.0857070   -2.7658070   -0.3599910  
N    -1.9802380   -2.4996270   -1.1720750  
C    -3.5013320   -2.1320820    0.7654490  
C    -4.7123990   -2.6125720    1.4288350  
O    -5.1571720   -2.0976020    2.4431980  
C    -5.4640170   -3.8414150    0.8021130  
O    -6.4798200   -4.2533000    1.3389710  
C    -4.9036850   -4.4489750   -0.4089700  
H    -3.2004020   -5.1303980   -2.7928920  
H    -2.9888580   -1.2849140    1.2057680  
H    -5.4217740   -5.3065630   -0.8273620  
H    -1.1550360   -3.3900670   -2.9354150  
C    -3.6834380    1.8398200    2.3815730  
C    -2.4781590    1.5320480    1.8404800  
C    -2.2370280    2.5611620    0.8329860  
C    -3.4377710    3.4461970    0.9330530  
N    -4.2793220    3.0169340    1.8313560  
C    -3.5839090    4.6213770    0.1138320  
C    -2.5992950    4.8938290   -0.7721580  
O    -2.6031220    5.9499510   -1.6017200  
C    -1.4037690    3.9908710   -0.9434720  
O    -0.6282730    4.2607630   -1.8538490  
C    -1.2363380    2.7944410   -0.0561940  
H    -1.8109620    0.7268420    2.1131470  
H    -4.4601070    5.2514960    0.2182670  
H    -1.7932590    5.8538270   -2.1495500  
H    -4.2174150    1.3036580    3.1571890  
C     3.5756140   -1.3092120   -2.1468110  
C     4.7932640   -1.9275140   -2.0870390  
C     5.3681830   -1.6133160   -0.8091570  
C     4.4344430   -0.7925570   -0.1249560  
N     3.3361140   -0.6112120   -0.9632660  
C     4.6571990   -0.3181720    1.1780480  
C     5.8560010   -0.6630600    1.7881770  
O     6.1198270   -0.2286550    3.0523040  
C     6.8069160   -1.4710970    1.1113200  
O     7.9467660   -1.7232460    1.8480460  
C     6.5737290   -1.9509600   -0.1650490  
H     5.2359770   -2.5319300   -2.8669190  
H     3.9231010    0.2581620    1.7313630  
H     6.9877510   -0.5867850    3.3073510  
H     8.5350310   -2.3092440    1.3492470  
H     7.3118340   -2.5800060   -0.6587750  
H     2.8445340   -1.2703570   -2.9411890  
