60


C    -2.2009000   -1.3332970    0.5634860  
C    -1.1459090   -0.4711680    0.6187610  
C    -1.6067850    0.8144840    0.1645950  
C    -2.9797550    0.6658500   -0.1551810  
N    -3.3280640   -0.6716870    0.0752860  
C    -3.7885300    1.7419930   -0.5227820  
C    -3.1904200    2.9939270   -0.5702140  
O    -3.9281740    4.0843760   -0.9115730  
C    -1.8190670    3.1751970   -0.2655130  
O    -1.3904030    4.4752930   -0.3887910  
C    -0.9899640    2.0958540    0.0714080  
H    -0.1531360   -0.7230820    0.9610430  
H    -4.8409930    1.6424850   -0.7515860  
H    -3.3201080    4.8449550   -0.8352540  
H    -0.8118630    4.6593090    0.3874760  
H    -2.2686680   -2.3736180    0.8373640  
C     2.5204490   -0.0771520   -1.5252580  
C     1.2811670    0.4159990   -1.2863990  
C     1.4025070    1.4310810   -0.2639200  
C     2.8415590    1.4905250    0.0822150  
N     3.4821690    0.5415750   -0.7110710  
C     3.3826300    2.3128390    1.0182570  
C     2.4901810    3.2342450    1.6956350  
O     2.8429830    3.9954170    2.5831210  
C     0.9882570    3.2863260    1.2297770  
O     0.3226480    4.2345990    1.6403250  
C     0.4603670    2.2471320    0.3247440  
H     0.3683350    0.1182880   -1.7776770  
H     4.4294820    2.2986330    1.2994670  
H     2.8406690   -0.8292130   -2.2337460  
C     5.8796650    1.1091620   -0.9747770  
C     4.8560310    0.2443130   -0.7190000  
C     5.4415940   -1.0582320   -0.4369470  
C     6.9069680   -0.8714490   -0.5576170  
N     7.1003510    0.4632650   -0.8739360  
C     7.8197350   -1.8575160   -0.3766400  
C     7.3372560   -3.1960180   -0.0362520  
O     8.0835000   -4.1451990    0.1395730  
C     5.7855460   -3.4109450    0.1067720  
O     5.3642680   -4.5187390    0.3942720  
C     4.9001470   -2.2611560   -0.1159310  
H     8.8907090   -1.7062250   -0.4698920  
H     3.8312680   -2.4177370   -0.0089260  
H     5.8313880    2.1611260   -1.2214740  
H     7.9997630    0.9059440   -0.9812590  
C    -5.5403690   -3.3035940    2.7161680  
C    -6.6803190   -3.4962510    2.0163880  
C    -6.5055220   -2.7348880    0.7821610  
C    -5.1467200   -2.1253520    0.9234140  
N    -4.5901960   -2.4611580    2.0479710  
C    -4.5852510   -1.2659480   -0.1141910  
C    -5.3392610   -1.0852910   -1.2391200  
O    -4.9361140   -0.3671410   -2.3032330  
C    -6.7004490   -1.6786120   -1.3878060  
O    -7.3055710   -1.4619720   -2.4390660  
C    -7.2600360   -2.5209940   -0.3105020  
H    -7.5479710   -4.0786770    2.2933090  
H    -5.6857230   -0.4124940   -2.9383340  
H    -8.2520620   -2.9330000   -0.4681110  
H    -5.2748100   -3.7001240    3.6884390  
