60


C     1.6542820   -0.2339240   -0.3349110  
C     1.2221290    1.0687050   -0.1903600  
C     2.3840350    1.8360430    0.2346160  
C     3.4699160    0.9336610    0.3289340  
N     2.9953980   -0.3396970   -0.0281930  
C     4.7603880    1.3311690    0.6834700  
C     4.9574290    2.6699430    0.9934220  
O     6.2001220    3.1076190    1.3511110  
C     3.8779350    3.5811960    0.9428040  
O     4.2157390    4.8765080    1.2872550  
C     2.6046060    3.1828270    0.5724810  
H     5.5932870    0.6437330    0.7436400  
H     6.1296470    4.0639720    1.5144170  
H     3.4463990    5.4515420    1.1617800  
H     1.8022910    3.9088320    0.5075850  
H     1.0955680   -1.1042880   -0.6292340  
C    -2.4781260   -1.1126730    0.4864850  
C    -3.4568440   -0.2363140    0.0998500  
C    -2.6962490    0.9544270   -0.3489970  
C    -1.2683380    0.5892130   -0.1309180  
N    -1.1661470   -0.6219650    0.3524330  
C    -0.1556920    1.4979220   -0.4193560  
C    -0.5263940    2.7246620   -0.9071840  
O     0.3490990    3.6862270   -1.2790350  
C    -1.9396700    3.1215860   -1.1132830  
O    -2.1664090    4.2509410   -1.5613400  
C    -3.0309700    2.1713110   -0.8097760  
H    -0.2216730    4.4191860   -1.6047390  
H    -4.0438390    2.4981290   -1.0083540  
H    -2.6159740   -2.1277500    0.8384440  
C    -5.9950710   -2.3438950    3.0625200  
C    -4.9634200   -1.7424370    2.4132470  
C    -5.4870420   -1.1773760    1.1883440  
C    -6.9326280   -1.4952240    1.1830310  
N    -7.1703570   -2.2231890    2.3312940  
C    -7.8199000   -1.1193510    0.2222880  
C    -7.3232580   -0.3244870   -0.8825400  
O    -8.0250150    0.0891400   -1.7936840  
C    -5.7898170    0.0403850   -0.9082850  
O    -5.3908690    0.7225240   -1.8368800  
C    -4.8933460   -0.4579830    0.1706080  
H    -3.9460390   -1.6769850    2.7655960  
H    -8.8747070   -1.3739190    0.2490240  
H    -6.0003690   -2.8621370    4.0120790  
H    -8.0787940   -2.5435650    2.6278710  
C     3.1506330   -3.2385760   -3.2413700  
C     4.0523190   -4.1265560   -2.7662090  
C     4.4379030   -3.6151960   -1.4536210  
C     3.6332950   -2.3634440   -1.3040480  
N     2.8866620   -2.1499480   -2.3450400  
C     3.7350950   -1.5320960   -0.1100260  
C     4.5668840   -1.9695860    0.8809010  
O     4.7277120   -1.3398540    2.0576680  
C     5.3819690   -3.2128330    0.7401370  
O     6.1004230   -3.5334160    1.6888260  
C     5.2817820   -4.0250640   -0.4892370  
H     4.4259940   -5.0231980   -3.2407390  
H     5.3827080   -1.8843850    2.5494930  
H     5.8924730   -4.9212300   -0.5417470  
H     2.6247260   -3.2580700   -4.1880310  
