58


C     2.0655590   -0.4070260    0.1279790  
C     3.3745800   -0.0766460   -0.0980670  
C     3.3905760    1.3647690   -0.3667720  
C     1.9817240    1.8159130   -0.2822840  
N     1.2174230    0.6851660    0.0372240  
C     1.5687640    3.0941450   -0.4463160  
C     2.5698460    4.1124240   -0.7639570  
O     2.2923090    5.2915080   -0.9120230  
C     4.0610150    3.6518250   -0.9120410  
O     4.9125320    4.4752490   -1.2038320  
C     4.3806690    2.2374640   -0.6787870  
H     0.5321670    3.4020990   -0.3765450  
H     5.4228670    1.9492660   -0.7379730  
H     1.6536420   -1.3780160    0.3674510  
C    -1.1419490   -0.6653680    3.4714410  
C    -0.1242180   -0.2958220    2.6453360  
C    -0.7204250    0.1770400    1.4197560  
C    -2.1826270    0.0620680    1.5961470  
N    -2.3710240   -0.4307690    2.8780630  
C    -3.1352290    0.3933580    0.6707150  
C    -2.6299290    0.9080350   -0.6190720  
O    -3.3622770    1.2993400   -1.5097360  
C    -1.0768720    0.9826100   -0.8647740  
O    -0.6780070    1.2895640   -1.9736470  
C    -0.1783990    0.6454110    0.2500330  
H     0.9299310   -0.3313000    2.8755540  
H    -1.0948200   -1.0722650    4.4729290  
H    -3.2591780   -0.7720120    3.2148520  
C    -5.2097900    0.8225780    2.0424560  
C    -4.5749200    0.3277340    0.9347480  
C    -5.6227110   -0.2638410    0.0944300  
C    -6.8990920   -0.0674650    0.8222070  
N    -6.5721010    0.5878790    1.9980020  
C    -8.1152300   -0.4740840    0.3812070  
C    -8.1876520   -1.1761150   -0.8980510  
O    -9.2337540   -1.5844290   -1.3762160  
C    -6.8450570   -1.4214350   -1.6760950  
O    -6.8738750   -2.0316260   -2.7312270  
C    -5.5934450   -0.9102860   -1.0969420  
H    -9.0361840   -0.3125280    0.9329050  
H    -4.6839750   -1.0581820   -1.6676620  
H    -4.7841330    1.3703930    2.8737190  
H    -7.2434500    0.9509360    2.6572750  
C     3.8487880   -4.2362030   -1.6383330  
C     3.3435200   -2.9976030   -1.4170120  
C     4.3637240   -2.3023540   -0.6372040  
C     5.4495860   -3.3111320   -0.4929120  
N     5.1417510   -4.4405240   -1.0689860  
C     6.6771920   -3.0163560    0.2016220  
C     6.8238880   -1.7761970    0.7189490  
O     7.9199660   -1.3584720    1.3762140  
C     5.7433210   -0.7367560    0.6097480  
O     5.9559350    0.3482120    1.1464550  
C     4.4615860   -1.0525400   -0.0998870  
H     2.4104140   -2.5884860   -1.7769760  
H     7.4494110   -3.7729650    0.2848650  
H     7.7315250   -0.4335630    1.6452450  
H     3.3960550   -5.0492700   -2.1932800  
