64


C     2.3850960   -0.9534090   -1.8327910  
C     3.3949850   -0.2013590   -1.2794170  
C     2.7983350    0.6531040   -0.2866840  
C     1.4109530    0.3614980   -0.2843790  
N     1.1893000   -0.5956850   -1.2535230  
C     0.4759050    1.0208700    0.5497510  
C     1.0240540    2.0017080    1.3750700  
O     0.2041850    2.7178740    2.2277950  
C     2.4061250    2.3109490    1.3817290  
O     2.7421870    3.3182450    2.2681420  
C     3.3031990    1.6527040    0.5656490  
H     0.3047920   -1.0620170   -1.3931830  
H     0.7792190    3.3225390    2.7320130  
H     3.7062690    3.3990040    2.3171380  
H     4.3612730    1.9000730    0.5763820  
H     2.4344030   -1.7129700   -2.5995090  
C     5.2314820    0.0371660   -2.9434830  
C     6.5942350   -0.0850590   -2.9702960  
C     7.0114550   -0.4416480   -1.6437080  
C     5.8384990   -0.5264790   -0.8487950  
N     4.7520030   -0.2263210   -1.6641940  
C     5.8687050   -0.8790120    0.5071680  
C     7.1076550   -1.1337310    1.0746790  
O     7.1953590   -1.4766130    2.3961770  
C     8.2922890   -1.0434230    0.2981970  
O     9.4495170   -1.3221280    1.0059800  
C     8.2579780   -0.7060200   -1.0423220  
H     7.2286380    0.0683050   -3.8327920  
H     4.9710110   -0.9614930    1.1094810  
H     8.1357620   -1.6353040    2.5865030  
H    10.2069500   -1.2947510    0.4031960  
H     9.1797160   -0.6491100   -1.6188430  
H     4.5334060    0.3093820   -3.7222990  
C    -1.7660780   -2.8653340    0.7744570  
C    -0.7918940   -1.9015700    0.7988170  
C    -1.4409270   -0.6406180    0.5477880  
C    -2.8210580   -0.9242010    0.3681410  
N    -2.9842210   -2.2900680    0.4723640  
C    -3.7968510    0.0695140    0.1125190  
C    -3.3219210    1.3873200    0.1883000  
O    -4.1782010    2.4361740    0.0988270  
C    -1.9458100    1.6906660    0.3691600  
O    -1.6753320    3.0442760    0.3448370  
C    -0.9720100    0.7023860    0.4987170  
H     0.2566080   -2.0617740    1.0051360  
H    -3.8869320   -2.6700540    0.7463800  
H    -3.6141870    3.2311690    0.1763980  
H    -1.0461470    3.2371550    1.0737540  
H    -1.6935130   -3.9293570    0.9522820  
C    -6.8751880   -2.6617530    1.8336130  
C    -7.9900350   -2.2599500    1.1848960  
C    -7.5358050   -1.2479790    0.2388140  
C    -6.0581460   -1.1327820    0.4905570  
N    -5.6887810   -1.9853570    1.4080880  
C    -5.2108160   -0.1948960   -0.2349520  
C    -5.8278340    0.4466530   -1.2792120  
O    -5.1900060    1.2499620   -2.1386000  
C    -7.2936570    0.3232710   -1.5741950  
O    -7.7430330    0.9596780   -2.5282180  
C    -8.1370560   -0.5530740   -0.7429070  
H    -9.0043830   -2.6116180    1.3113280  
H    -5.8856050    1.5782600   -2.7511610  
H    -9.1925220   -0.6154110   -0.9894570  
H    -6.7854650   -3.4128330    2.6093060  
