60


C     1.6043050   -1.7668190   -0.0248380  
C     2.9463830   -1.5474950    0.0020510  
C     3.1574030   -0.1237940    0.0108600  
C     1.8797520    0.4839490   -0.0239230  
N     0.9200990   -0.5430700   -0.0561210  
C     1.6957490    1.8646400    0.0795690  
C     2.8335470    2.6450220    0.2099490  
O     2.7204480    3.9949570    0.3190920  
C     4.1273550    2.0662040    0.2433140  
O     5.1472230    2.9858700    0.3435670  
C     4.3225130    0.6829690    0.1184310  
H     3.7056460   -2.3138340   -0.0212870  
H     0.7243480    2.3396360    0.0512500  
H     3.6323420    4.3321260    0.4031900  
H     5.7638270    2.6874190    1.0450240  
H     1.0471360   -2.6886460   -0.0958790  
C    -2.1213070   -2.5907150    2.3291560  
C    -0.9445990   -2.1371160    1.8269200  
C    -1.2642790   -1.2149780    0.7565940  
C    -2.7304120   -1.1742900    0.6673520  
N    -3.1900180   -2.0516570    1.6186430  
C    -3.4859730   -0.3548940   -0.1548400  
C    -2.7214870    0.5114000   -1.0697600  
O    -3.2175140    1.2309360   -1.9140700  
C    -1.1444090    0.4696600   -1.0208630  
O    -0.5289280    1.1484310   -1.8191970  
C    -0.4700250   -0.4307160   -0.0480750  
H     0.0438610   -2.3926790    2.1758030  
H    -2.3066920   -3.2714570    3.1487330  
H    -4.1626460   -2.0935070    1.8917530  
C    -4.9304990   -0.3415410   -0.1238010  
C    -5.7931170   -1.3805390    0.1646820  
C    -7.1182890   -0.8218900    0.1003350  
C    -6.8866600    0.6253160   -0.2178410  
N    -5.6227190    0.8986400   -0.3547790  
C    -7.9821850    1.5527020   -0.3401060  
C    -9.2356290    1.0647700   -0.1886350  
O   -10.3511250    1.8014500   -0.2846330  
C    -9.5011820   -0.3950130    0.1109430  
O   -10.6810710   -0.7328600    0.2331580  
C    -8.3735860   -1.3147690    0.2504800  
H    -5.5531520   -2.4308190    0.2654940  
H    -7.7881420    2.5962440   -0.5610530  
H   -11.0877010    1.1669390   -0.1289840  
H    -8.6014160   -2.3518350    0.4772840  
C     6.2503210   -2.1648300   -2.6606450  
C     7.4909120   -2.2828620   -2.1394390  
C     7.4944130   -1.4133400   -0.9653930  
C     6.1082970   -0.8446010   -0.9245300  
N     5.3961950   -1.2826150   -1.9175080  
C     5.6827070    0.1057050    0.1098780  
C     6.6590310    0.4523570    0.9961650  
O     6.4649730    1.3449060    2.0086940  
C     8.0432110   -0.0964940    0.9809310  
O     8.8215000    0.2873890    1.8576350  
C     8.4263720   -1.0679960   -0.0590480  
H     8.3215030   -2.8703050   -2.5054260  
H     7.3301920    1.3764540    2.4810490  
H     9.4455990   -1.4418340   -0.0433460  
H     5.8445630   -2.6416480   -3.5444580  
