62


C    -0.2798640    0.3177730   -0.7842670  
C    -0.0947950   -0.9003580   -1.4020310  
C    -1.3482600   -1.5964630   -1.3873540  
C    -2.2840750   -0.7540520   -0.7396240  
N    -1.6283420    0.4154380   -0.4072450  
C    -3.6304050   -1.1011650   -0.5236680  
C    -4.0285970   -2.3484100   -1.0167410  
O    -5.3287830   -2.7349030   -0.9218380  
C    -3.1046790   -3.2016400   -1.6737410  
O    -3.6648850   -4.3895400   -2.1055650  
C    -1.7823200   -2.8474330   -1.8654490  
H     0.8215660   -1.2298030   -1.8708390  
H    -1.9463900    1.0301190    0.3296620  
H    -5.3873760   -3.6361760   -1.2840570  
H    -2.9842730   -4.9328140   -2.5291860  
H    -1.0984460   -3.5216360   -2.3769260  
C     4.1360040    0.5997070    0.0712890  
C     2.8333660    0.1491070   -0.1553670  
C     2.0123570    1.2857680   -0.3550000  
C     2.8508930    2.4338420   -0.2306840  
N     4.1218550    1.9911360    0.0196710  
C     2.3684710    3.7415050   -0.3431540  
C     1.0126300    3.8918930   -0.5902590  
O     0.4849940    5.1370990   -0.7308390  
C     0.1501430    2.7660180   -0.7182110  
O    -1.1614280    3.1196780   -0.9763970  
C     0.6171470    1.4562030   -0.6057620  
H     2.5428090   -0.8880480   -0.1539700  
H     4.9454880    2.5576590    0.1618780  
H     3.0022440    4.6170810   -0.2527760  
H    -0.4585870    5.0199650   -0.9437220  
H    -1.6630150    2.3464950   -1.2976180  
C     4.8455050   -3.7400140    0.3267270  
C     6.1688520   -3.7841590    0.5970610  
C     6.5946020   -2.3895850    0.6423200  
C     5.3477220   -1.6120080    0.3679720  
N     4.3373050   -2.4096220    0.1829660  
C     5.3469210   -0.1408950    0.3267670  
C     6.5717760    0.4469620    0.5496610  
O     6.7617570    1.7968730    0.5467270  
C     7.8086930   -0.3002870    0.8177310  
O     8.8541250    0.3407590    1.0055080  
C     7.7720890   -1.7755070    0.8566140  
H     6.7952910   -4.6520750    0.7498140  
H     7.7229650    1.9039620    0.7339240  
H     8.7071910   -2.2903080    1.0572290  
H     4.1548720   -4.5665380    0.2119330  
C    -6.0940880   -1.7166400    3.0685960  
C    -6.7891940   -0.5605410    3.1515810  
C    -6.3078610    0.2497580    2.0355410  
C    -5.3080550   -0.6295290    1.3489740  
N    -5.1749610   -1.7634570    1.9669730  
C    -4.5747860   -0.1937870    0.1623590  
C    -4.7964030    1.0939690   -0.2292320  
O    -4.1836140    1.6812190   -1.2816630  
C    -5.7846250    1.9956690    0.4488710  
O    -5.9335590    3.1271350   -0.0148940  
C    -6.5408140    1.5069020    1.6158450  
H    -7.5279820   -0.2704370    3.8856910  
H    -4.5875580    2.5778020   -1.3334050  
H    -7.2373060    2.1974310    2.0817700  
H    -6.1514540   -2.5793230    3.7215230  
