60


C    -0.3145690    0.0518630    3.0963200  
C    -1.5072860   -0.3063470    2.5155240  
C    -1.6435050    0.4495840    1.3044450  
C    -0.4871540    1.2572210    1.2074540  
N     0.3152400    0.9785390    2.2955150  
C    -0.2643360    2.2083750    0.1829180  
C    -1.2796510    2.3351260   -0.7611540  
O    -1.1323960    3.1911240   -1.8008600  
C    -2.4600040    1.5418410   -0.7065410  
O    -3.3108720    1.8019440   -1.7208180  
C    -2.6656780    0.5616680    0.3009070  
H    -2.2102440   -1.0020760    2.9443550  
H     1.1385040    1.5053540    2.5440310  
H    -1.9663880    3.1616220   -2.3065460  
H    -4.1326470    1.2331350   -1.5793720  
H     0.1371040   -0.2803410    4.0201870  
C     3.9402800    1.0239580   -0.1974440  
C     4.5195890    2.2639640   -0.2225840  
C     3.4730730    3.2458550   -0.0817440  
C     2.2110060    2.4850880    0.0334220  
N     2.5565640    1.1360670    0.0210600  
C     0.9617940    3.0261770    0.1081010  
C     0.8895970    4.5088170    0.1531450  
O    -0.1510840    5.1116080    0.3312930  
C     2.2237300    5.3337870    0.0267670  
O     2.1568410    6.5525520    0.0104340  
C     3.4892040    4.6076920   -0.0674020  
H     5.5791570    2.4668690   -0.2859170  
H     4.4024840    5.1875000   -0.1574440  
H     1.8995190    0.4374000   -0.3041050  
C     4.5502520   -0.2804630   -0.2931630  
C     5.7499580   -0.6436050   -0.8428900  
C     5.8933740   -2.0694030   -0.6886780  
C     4.6704780   -2.5339890    0.0105240  
N     3.8630670   -1.4145000    0.1727900  
C     4.4462110   -3.8142380    0.3915230  
C     5.4584990   -4.8213970    0.0705300  
O     5.3421460   -5.9975660    0.3737580  
C     6.7438720   -4.3587660   -0.7079010  
O     7.5929950   -5.1872710   -0.9951770  
C     6.8760280   -2.9393880   -1.0494060  
H     6.4382870    0.0163290   -1.3511360  
H     3.5493050   -4.1371330    0.9111020  
H     7.7754520   -2.6272990   -1.5712750  
H     3.1525630   -1.3583030    0.8898970  
C    -3.8398240   -0.2706470    0.2775600  
C    -4.1983480   -1.3741840    1.0258700  
C    -5.4784020   -1.7932950    0.5536310  
C    -5.8183490   -0.8240050   -0.5422440  
N    -4.8611760    0.0452020   -0.6952270  
C    -7.0429080   -0.9032020   -1.2824590  
C    -7.8933640   -1.9064610   -0.9524600  
O    -9.0683100   -2.1198340   -1.5414470  
C    -7.5831040   -2.9134690    0.1499520  
O    -8.4439120   -3.7762820    0.3462960  
C    -6.3357300   -2.8028550    0.8802740  
H    -3.6253050   -1.8692490    1.7919320  
H    -7.2660950   -0.1883180   -2.0664110  
H    -9.4391140   -2.9120160   -1.0820280  
H    -6.1401240   -3.5326280    1.6591560  
