62


C    -0.7728860    0.6573100   -0.3560310  
C    -1.9221710   -0.0619420   -0.0904480  
C    -3.0374470    0.8221760   -0.2188230  
C    -2.5121990    2.0907750   -0.5846820  
N    -1.1350840    1.9749720   -0.6205770  
C    -3.3154600    3.1986390   -0.8496710  
C    -4.6910190    3.0297430   -0.7550180  
O    -5.5171220    4.0876010   -1.0000160  
C    -5.2497620    1.7786390   -0.4039290  
O    -6.6245860    1.8161550   -0.3141080  
C    -4.4499070    0.6612590   -0.1081830  
H    -1.9406410   -1.0946690    0.2249520  
H    -0.5199590    2.6336940   -1.0744860  
H    -2.9134140    4.1678790   -1.1271210  
H    -6.4288340    3.7633810   -0.8939820  
H    -6.9877780    0.9157670   -0.2887010  
C     1.0822330   -0.9910600   -0.8004970  
C     0.6162340    0.2406960   -0.3914410  
C     1.7866930    1.0106500   -0.0236920  
C     2.9131450    0.1731700   -0.2192810  
N     2.4493430   -1.0514690   -0.6607830  
C     4.2388810    0.5739100    0.0720100  
C     4.3894440    1.9092970    0.4755900  
O     5.6302550    2.4331320    0.6648940  
C     3.2666820    2.7498730    0.6865670  
O     3.6021900    4.0189340    1.1231120  
C     1.9746630    2.3156500    0.4692340  
H     3.0552090   -1.6560710   -1.2084320  
H     5.5091540    3.3342270    1.0126730  
H     2.7986120    4.4996720    1.3703120  
H     1.1299450    2.9684960    0.6771570  
H     0.5299090   -1.8284560   -1.2030180  
C     5.6407620   -2.3667690   -2.9612110  
C     6.8591280   -2.7000990   -2.4818060  
C     6.9776100   -1.9884900   -1.2150130  
C     5.6980280   -1.2081180   -1.1014870  
N     4.9189620   -1.4633180   -2.1174880  
C     5.4151990   -0.3258540    0.0223500  
C     6.3232150   -0.3901420    1.0471760  
O     6.1805150    0.2511580    2.2116480  
C     7.5946760   -1.1900070    0.9740180  
O     8.3447920   -1.1581760    1.9492070  
C     7.8929460   -1.9840370   -0.2294900  
H     7.5936500   -3.3631300   -2.9169540  
H     6.9863870    0.0291280    2.7303310  
H     8.8200160   -2.5487650   -0.2418620  
H     5.1682940   -2.6980940   -3.8781520  
C    -7.6616350   -1.9718720   -1.7931120  
C    -6.7520390   -0.9710460   -1.6612240  
C    -6.0677010   -1.2439560   -0.3989140  
C    -6.7172650   -2.4881050    0.0938690  
N    -7.6492850   -2.9069320   -0.7215570  
C    -6.3158840   -3.1199870    1.3240320  
C    -5.3151410   -2.5427120    2.0255550  
O    -4.8305090   -3.0240200    3.1833930  
C    -4.6481850   -1.2692360    1.5711460  
O    -3.7982490   -0.7976110    2.3199350  
C    -5.0643400   -0.6156490    0.2824640  
H    -6.5327720   -0.1743540   -2.3584360  
H    -6.8076730   -4.0276620    1.6558220  
H    -4.1484580   -2.3761930    3.4673890  
H    -8.3564750   -2.1312580   -2.6095240  
