60


C     0.3661240    1.5502850    0.0509990  
C    -0.9836740    1.2290340    0.0719950  
C    -1.0998880   -0.1837240   -0.0358840  
C     0.2187300   -0.6928830   -0.1142860  
N     1.0868730    0.3734720   -0.1011540  
C     0.5472130   -2.0745490   -0.1129230  
C    -0.5452910   -2.9489690   -0.0368470  
O    -0.3701300   -4.2812410   -0.0765510  
C    -1.8932760   -2.4708660    0.0095020  
O    -2.7935020   -3.4732930    0.0485260  
C    -2.2135610   -1.0946560   -0.0236880  
H    -1.7753070    1.9557480    0.1569240  
H     2.0716760    0.2740200    0.1079760  
H    -1.2599960   -4.6808140   -0.0130690  
H    -3.7113130   -3.0554530    0.1226670  
C     1.0148410    2.8291160    0.1283000  
C     0.5578610    4.0180510    0.6367400  
C     1.5907390    5.0040580    0.4735860  
C     2.7205870    4.3079150   -0.1871590  
N     2.3469200    2.9712350   -0.3135490  
C     3.8693210    4.9100430   -0.5740060  
C     4.0344010    6.3375680   -0.2931000  
O     5.0379950    6.9591730   -0.6042300  
C     2.8700120    7.0856190    0.4523130  
O     3.0014160    8.2748180    0.7045070  
C     1.6721530    6.3254570    0.7996940  
H    -0.3912260    4.1674660    1.1315160  
H     4.6840870    4.3879780   -1.0667970  
H     0.8656670    6.8558280    1.2968070  
H     2.7050160    2.4066550   -1.0729030  
C    -3.5877670   -0.6639190   -0.0561760  
C    -4.1549780    0.5765470   -0.2574090  
C    -5.5723400    0.3937550   -0.1948970  
C    -5.7587560   -1.0738950    0.0586030  
N    -4.6045980   -1.6730230    0.1299820  
C    -7.0547320   -1.6710430    0.1886600  
C    -8.1244840   -0.8463920    0.0669320  
O    -9.3916300   -1.2430200    0.1611430  
C    -7.9776680    0.6476150   -0.1958240  
O    -9.0281780    1.2861260   -0.2870270  
C    -6.6474740    1.2203510   -0.3206030  
H    -3.6567210    1.5074220   -0.4721930  
H    -7.1612080   -2.7336880    0.3752280  
H    -9.9267540   -0.4240470    0.0288760  
H    -6.5732120    2.2863670   -0.5092350  
C     1.9275070   -2.5292200   -0.1663030  
C     2.9815460   -1.9404490   -0.8231370  
C     4.1324330   -2.7669810   -0.5403060  
C     3.5951520   -3.8406390    0.3573380  
N     2.3191270   -3.7037440    0.5671110  
C     4.4473780   -4.8714050    0.8918390  
C     5.7531630   -4.8543420    0.5347880  
O     6.6593930   -5.7509200    0.9453160  
C     6.3195900   -3.7949120   -0.3846050  
O     7.5190630   -3.8649730   -0.6506190  
C     5.4357400   -2.7444340   -0.9042580  
H     2.9498480   -1.1028610   -1.5063870  
H     4.0359630   -5.6312530    1.5466140  
H     7.5050650   -5.4782910    0.5230220  
H     5.8811380   -1.9968580   -1.5535530  
