62


C     1.1992710    1.9798200   -0.1393660  
C     1.8794680    3.1596350   -0.3535450  
C     3.2777330    2.8569410   -0.3609110  
C     3.4077230    1.4576730   -0.1405780  
N     2.1343820    0.9606520    0.0020490  
C     4.6600790    0.8036930   -0.0437590  
C     5.7890560    1.6168900   -0.2361940  
O     7.0398470    1.0734140   -0.2152210  
C     5.6658980    3.0062310   -0.4845400  
O     6.8813230    3.6464070   -0.6545880  
C     4.4373290    3.6342050   -0.5363870  
H     1.4229240    4.1236750   -0.5300600  
H     1.8993990   -0.0103800    0.1266360  
H     7.6627260    1.7888770   -0.4348040  
H     6.7297970    4.5545350   -0.9548910  
H     4.3715140    4.7062660   -0.7106100  
C    -1.1834480    2.4866480    0.5361300  
C    -0.2264660    1.6998970   -0.0667780  
C    -0.9276890    0.5588260   -0.6142190  
C    -2.2992200    0.7229140   -0.3131460  
N    -2.4251960    1.9114460    0.3727090  
C    -3.2987610   -0.2243530   -0.6574550  
C    -2.8467210   -1.3614630   -1.3545150  
O    -3.7198000   -2.2972260   -1.7894180  
C    -1.4739960   -1.5133830   -1.6881060  
O    -1.2093700   -2.6659550   -2.4014030  
C    -0.5190410   -0.5798240   -1.3375090  
H    -3.2765240    2.2126280    0.8234670  
H    -3.2029300   -2.9775440   -2.2575920  
H    -0.2830420   -2.6695360   -2.6841080  
H     0.5191790   -0.7208910   -1.6310830  
H    -1.0674730    3.4123400    1.0810190  
C    -4.6930880   -0.0137300   -0.3079060  
C    -5.3714530    1.1800030   -0.2240630  
C    -6.7067590    0.8481820    0.2047550  
C    -6.6741390   -0.6431380    0.3689610  
N    -5.5128620   -1.1403030    0.0640080  
C    -7.8312880   -1.3761260    0.8169190  
C    -8.9620060   -0.6738360    1.0606960  
O   -10.1165360   -1.2160880    1.4731660  
C    -9.0299160    0.8285020    0.8850740  
O   -10.1090470    1.3694820    1.1358760  
C    -7.8389120    1.5544500    0.4448170  
H    -5.0253150    2.1583010   -0.5287080  
H    -7.7796740   -2.4524050    0.9373970  
H   -10.7370680   -0.4562910    1.5569070  
H    -7.9231170    2.6316780    0.3383320  
C     6.9973930   -1.5505060    2.9546800  
C     6.4462270   -0.5177540    2.2790720  
C     5.6314550   -1.1309210    1.2321450  
C     5.8267470   -2.5944550    1.4438850  
N     6.6229100   -2.8387070    2.4440800  
C     5.1790400   -3.5772980    0.6123280  
C     4.3524410   -3.1236890   -0.3541160  
O     3.6652070   -3.9204630   -1.1961240  
C     4.0932620   -1.6561190   -0.5584070  
O     3.2587800   -1.3626570   -1.4192960  
C     4.8202740   -0.6340320    0.2576100  
H     6.5693060    0.5399010    2.4551550  
H     5.3540690   -4.6343910    0.7784010  
H     3.1623180   -3.3049620   -1.7712460  
H     7.6630730   -1.5120420    3.8084800  
