64


C    -0.8194570   -0.4784720    1.6834220  
C    -0.1960960    0.0961090    0.6035020  
C    -1.2188510    0.4209100   -0.3584840  
C    -2.4464570   -0.0075420    0.2029760  
N    -2.1705820   -0.5904400    1.4260260  
C    -3.6876000    0.1262500   -0.4666030  
C    -3.6401610    0.8148980   -1.6885840  
O    -4.7883250    1.1122830   -2.3543190  
C    -2.4101900    1.2421370   -2.2543620  
O    -2.5547250    1.8679520   -3.4798430  
C    -1.2012640    1.0326870   -1.6250080  
H    -2.8861840   -0.6034660    2.1479350  
H    -4.5294050    1.5852220   -3.1651130  
H    -1.7203820    2.2953830   -3.7237360  
H    -0.2687920    1.3597600   -2.0777230  
H    -0.3958800   -0.8215590    2.6165290  
C     2.1414410   -0.7368740    0.4840750  
C     3.4120590   -0.2263260    0.3196190  
C     3.2484800    1.2022900    0.1652340  
C     1.8619030    1.4814760    0.2510000  
N     1.1953390    0.2766430    0.4490130  
C     1.3418480    2.7792980    0.1500350  
C     2.2417650    3.8114430   -0.0624450  
O     1.7932630    5.0987620   -0.1714080  
C     3.6325760    3.5474550   -0.1663720  
O     4.4033810    4.6782580   -0.3809470  
C     4.1416570    2.2681420   -0.0557980  
H     0.2827130    2.9922430    0.2396970  
H     2.5785020    5.6626780   -0.2790330  
H     5.3398320    4.4339440   -0.3428440  
H     5.2116300    2.0901520   -0.1094880  
H     1.8211550   -1.7545580    0.6588190  
C     4.2744170   -3.8853610   -1.9537730  
C     5.5602290   -4.0901310   -1.5234460  
C     5.8754620   -3.0246070   -0.6138670  
C     4.7247590   -2.1991980   -0.5269190  
N     3.7628770   -2.7550150   -1.3464560  
C     4.6481790   -1.0272330    0.2594460  
C     5.8084690   -0.7082770    0.9683860  
O     5.8404440    0.3994110    1.7748920  
C     6.9702040   -1.5193890    0.8908250  
O     8.0254910   -1.0509710    1.6603830  
C     7.0215120   -2.6664470    0.1231000  
H     6.2077160   -4.9046940   -1.8185360  
H     2.8716720   -2.3239300   -1.5391270  
H     6.7049550    0.3915550    2.2216050  
H     8.7248560   -1.7203670    1.6804770  
H     7.9288040   -3.2662070    0.0832780  
H     3.6692200   -4.4592410   -2.6416150  
C    -5.6606120    0.1792180    3.5257390  
C    -6.8772570   -0.3336340    3.2394190  
C    -6.8156690   -0.6948540    1.8282820  
C    -5.4396030   -0.2748050    1.3924670  
N    -4.7715590    0.2084290    2.4044980  
C    -4.9688660   -0.4329800    0.0228880  
C    -5.8064330   -1.1479410   -0.7937320  
O    -5.5013010   -1.5035370   -2.0464360  
C    -7.1734900   -1.6096920   -0.3730400  
O    -7.8465230   -2.2274310   -1.1980740  
C    -7.6542080   -1.3304330    0.9906500  
H    -7.7203350   -0.4725260    3.9015540  
H    -6.2939520   -1.9802870   -2.3808250  
H    -8.6465090   -1.6822480    1.2554520  
H    -5.2982640    0.5543210    4.4753540  
