60


C     0.5082300    1.7216490   -0.1942300  
C    -0.8754580    1.7132020   -0.3648740  
C    -1.2928340    0.3600020   -0.3775970  
C    -0.1260790   -0.4421450   -0.1907790  
N     0.9357590    0.4066880   -0.0890050  
C    -0.1453890   -1.8592110   -0.1530650  
C    -1.4122870   -2.4441970   -0.3060330  
O    -1.5627710   -3.7798910   -0.2304540  
C    -2.5861810   -1.6523920   -0.5020010  
O    -3.7123360   -2.4256210   -0.6696340  
C    -2.5647810   -0.2655180   -0.5403540  
H    -1.5002750    2.5904110   -0.4519510  
H     1.9147400    0.1633320   -0.0171510  
H    -2.5095270   -3.9749650   -0.3588350  
H    -4.5098150   -1.8729390   -0.6919260  
C    -3.9358890    1.5175200   -1.7047930  
C    -3.7842260    0.5246490   -0.7755500  
C    -5.0670390    0.4211800   -0.0820740  
C    -5.9653860    1.4258220   -0.7055140  
N    -5.2091320    2.0594910   -1.6745690  
C    -7.2542970    1.6366080   -0.3425890  
C    -7.8139320    0.8285310    0.7407420  
O    -8.9669330    0.9393650    1.1239170  
C    -6.8752520   -0.2206790    1.4385720  
O    -7.3129970   -0.8872770    2.3612340  
C    -5.4971770   -0.3582680    0.9493360  
H    -7.8930470    2.3796670   -0.8101730  
H    -4.8548250   -1.0683980    1.4613940  
H    -3.2090710    1.8803670   -2.4194840  
H    -5.5479110    2.7830820   -2.2896020  
C     1.0724880   -2.6351560    0.0290080  
C     2.1797670   -2.3045550    0.7686590  
C     3.1184990   -3.3854140    0.5781220  
C     2.4106020   -4.3209480   -0.3558420  
N     1.2251910   -3.8895180   -0.6674010  
C     3.0311700   -5.5375890   -0.8163290  
C     4.2724590   -5.8207470   -0.3578550  
O     4.9707670   -6.9155330   -0.6905600  
C     5.0041050   -4.9034410    0.5978940  
O     6.1301170   -5.2521620    0.9548410  
C     4.3594880   -3.6640310    1.0420480  
H     2.3070970   -1.4633850    1.4361430  
H     2.5016910   -6.1935250   -1.4981760  
H     5.8210830   -6.8346450   -0.2017210  
H     4.9187890   -3.0264080    1.7197540  
C     1.4667690    2.7747220   -0.1152490  
C     1.3130000    4.1404440   -0.1798310  
C     2.6298960    4.6847850   -0.0428880  
C     3.5205770    3.4790370    0.1016190  
N     2.8377890    2.3710630    0.0591200  
C     4.9433540    3.6074850    0.2635390  
C     5.4557710    4.8609720    0.2826440  
O     6.7536800    5.1436540    0.4252400  
C     4.5845880    6.0989610    0.1399990  
O     5.1726890    7.1841800    0.1727240  
C     3.1491300    5.9440090   -0.0232480  
H     0.3944200    4.6966120   -0.3035220  
H     5.5662410    2.7258080    0.3647510  
H     6.7989050    6.1289710    0.3984750  
H     2.5544140    6.8464980   -0.1223740  
