60


C     2.9014280    0.2612810   -2.4385750  
C     1.6141700    0.1363550   -1.9986570  
C     1.6462150    0.2553620   -0.5670820  
C     2.9966550    0.4613410   -0.1899070  
N     3.7613180    0.4480400   -1.3568320  
C     3.3868580    0.7021810    1.1324260  
C     2.3945470    0.6922810    2.1022120  
O     2.7167310    0.9143580    3.4038780  
C     1.0383780    0.4389440    1.7654350  
O     0.1859490    0.3828900    2.8442000  
C     0.6588280    0.2242550    0.4413380  
H     0.7447840   -0.0215440   -2.6209030  
H     4.4107500    0.9129660    1.4174030  
H     1.8829610    0.8910260    3.9083840  
H    -0.6975010    0.7177490    2.6032360  
H     3.3110720    0.2096490   -3.4368260  
C    -1.1520700   -1.2075570   -0.5302190  
C    -2.5010930   -1.2207700   -0.6371820  
C    -2.9967270   -0.0060210   -0.0261780  
C    -1.7963410    0.7334690    0.4377830  
N    -0.6986220   -0.0428030    0.1131810  
C    -1.8194550    1.9577290    1.0406800  
C    -3.1121740    2.5928610    1.2533670  
O    -3.2418770    3.7078760    1.7338760  
C    -4.4030680    1.8005560    0.8404330  
O    -5.4876040    2.2634520    1.1415740  
C    -4.2567670    0.5017850    0.1260910  
H    -3.1018730   -2.0079900   -1.0636070  
H    -0.9217790    2.5234470    1.2722490  
H    -0.4230530   -1.9418130   -0.8441050  
C    -5.9124400   -3.4795950    1.0794500  
C    -7.0961450   -3.4609190    0.4263710  
C    -7.1391850   -2.1656470   -0.2445330  
C    -5.8409250   -1.5140350    0.1350570  
N    -5.1338520   -2.2877370    0.9054800  
C    -5.4864690   -0.1789570   -0.3224830  
C    -6.3946810    0.4384120   -1.1322890  
O    -6.1992010    1.6441410   -1.6759740  
C    -7.7012290   -0.1979000   -1.5292950  
O    -8.4429140    0.4462130   -2.2679020  
C    -8.0359710   -1.5442260   -1.0331360  
H    -7.8606960   -4.2247220    0.3989150  
H    -7.0186560    1.8441620   -2.1811540  
H    -8.9912460   -1.9634250   -1.3339730  
H    -5.5048880   -4.2689510    1.6997660  
C     5.8007270    1.4760210   -2.3226160  
C     5.1428130    0.6534810   -1.4647860  
C     6.1995450   -0.1006640   -0.7642460  
C     7.4593080    0.4516990   -1.3423630  
N     7.2167980    1.3593350   -2.2474050  
C     8.7498250   -0.0153470   -0.9090490  
C     8.7899980   -1.0096350    0.0106790  
O     9.9232000   -1.5455380    0.4919590  
C     7.5351660   -1.6125170    0.5776780  
O     7.6504450   -2.5155540    1.4028450  
C     6.2174130   -1.0981020    0.1379230  
H     9.6505120    0.4164250   -1.3311460  
H     9.6393860   -2.2345280    1.1315840  
H     5.3344430   -1.5451290    0.5836300  
H     5.3656450    2.1754060   -3.0260410  
