62


C     0.1345510    1.4342920    0.1925950  
C     1.3237240    0.7223820    0.0805760  
C     2.4089510    1.6381200    0.1947540  
C     1.8285750    2.9193290    0.3748510  
N     0.4611260    2.7728670    0.3487580  
C     2.5754650    4.0952450    0.5204560  
C     3.9520610    3.9839610    0.4711560  
O     4.7329040    5.0880160    0.6010870  
C     4.5878630    2.7234140    0.2822070  
O     5.9332720    2.8134550    0.2559440  
C     3.8438170    1.5174410    0.1501920  
H     1.3675350   -0.3320540   -0.1315570  
H    -0.2164110    3.4961700    0.5409400  
H     2.1167730    5.0687630    0.6610460  
H     5.6565700    4.7813390    0.5341150  
H     6.2941880    1.8814650    0.1019050  
C    -1.8029310   -2.4182230    1.4254070  
C    -0.8997300   -1.4168090    1.1893360  
C    -1.6217500   -0.3249680    0.5969120  
C    -2.9820950   -0.7300440    0.5139170  
N    -3.0557660   -2.0125490    1.0072470  
C    -4.0130180    0.0795310   -0.0121810  
C    -3.6216140    1.3585590   -0.4295310  
O    -4.5555760    2.2302940   -0.8874330  
C    -2.2778810    1.7792960   -0.3489080  
O    -2.0662670    3.0922900   -0.7905080  
C    -1.2487380    0.9707310    0.1469420  
H     0.1502300   -1.4430890    1.4370250  
H    -3.9111860   -2.5340540    1.1252660  
H    -4.0709160    3.0318780   -1.1592830  
H    -1.3633350    3.0833950   -1.4625320  
H    -1.6622890   -3.3953200    1.8651440  
C    -7.0793820   -1.7125480    2.7316400  
C    -5.9263570   -1.1600050    2.2777430  
C    -6.1514200   -0.9272570    0.8533800  
C    -7.5441770   -1.4127950    0.6292800  
N    -8.0794650   -1.8719380    1.7277840  
C    -8.1790100   -1.3370690   -0.6611680  
C    -7.4639710   -0.8117800   -1.6810830  
O    -7.9232200   -0.6845230   -2.9373800  
C    -6.0401070   -0.3515520   -1.5042470  
O    -5.4370410   -0.0127020   -2.5165570  
C    -5.4026650   -0.3833190   -0.1446540  
H    -5.0404730   -0.9060410    2.8422680  
H    -9.1950830   -1.6934650   -0.7889640  
H    -7.1679620   -0.3276160   -3.4543900  
H    -7.3132290   -2.0206630    3.7441480  
C     4.5226330    0.2590160    0.0000140  
C     4.0569550   -1.0411750   -0.0665700  
C     5.1975020   -1.8820870   -0.2147270  
C     6.3683100   -0.9413750   -0.2256520  
N     5.9650790    0.2898490   -0.0976050  
C     7.7188430   -1.4009890   -0.3596970  
C     7.8994060   -2.7400340   -0.4749970  
O     9.0855630   -3.3304450   -0.6063610  
C     6.7374650   -3.7289010   -0.4656280  
O     7.0494020   -4.9194410   -0.5782740  
C     5.3863980   -3.2300890   -0.3301060  
H     3.0391940   -1.3856990    0.0016710  
H     8.5470360   -0.7013040   -0.3665470  
H     8.8765050   -4.2950710   -0.6643830  
H     4.5777170   -3.9535980   -0.3265900  
