62


C    -1.5932980   -0.5065000   -0.5897290  
C    -1.0267100   -1.7402010   -0.4283270  
C    -1.9584190   -2.5198580    0.3797720  
C    -3.0718200   -1.6952040    0.6642880  
N    -2.8404240   -0.4519170    0.0480310  
C    -4.1151580   -2.1189240    1.4914310  
C    -4.0476530   -3.4056380    2.0139340  
O    -5.0501170   -3.8530800    2.8185150  
C    -2.9440240   -4.2441610    1.7291640  
O    -3.0122600   -5.4845160    2.3213500  
C    -1.8977290   -3.8114860    0.9289600  
H    -4.9501450   -1.4925670    1.7712910  
H    -4.8162970   -4.7525260    3.1066080  
H    -2.2050900   -5.9858620    2.1309490  
H    -1.0432480   -4.4563550    0.7424470  
H    -1.2495850    0.3598540   -1.1300110  
C     3.0483490    0.1857860   -0.3793710  
C     1.7005240   -0.1033530   -0.2157050  
C     1.4424670   -1.3610310   -0.8313250  
C     2.6788530   -1.8227950   -1.3649810  
N     3.6410030   -0.8845440   -1.0505350  
C     2.8070010   -3.0343070   -2.0476080  
C     1.6601120   -3.8019880   -2.1888520  
O     1.7158310   -4.9832310   -2.8631490  
C     0.4187110   -3.3723210   -1.6475640  
O    -0.6170620   -4.2524340   -1.8944400  
C     0.2768310   -2.1682910   -0.9612560  
H     0.9990750    0.5042770    0.3376460  
H     4.5453200   -0.8332320   -1.4949990  
H     3.7452640   -3.3850480   -2.4643190  
H     0.8095930   -5.3373220   -2.8963520  
H    -1.4603580   -3.8336140   -1.6555430  
C     3.3591170    2.6052520    0.2956080  
C     3.8020410    1.3357090    0.0386310  
C     5.2585670    1.3993410    0.3268730  
C     5.4876190    2.8113430    0.7252980  
N     4.3714970    3.4956800    0.7120960  
C     6.7921430    3.2876680    1.0921380  
C     7.8203880    2.4019130    1.0938810  
O     9.0894830    2.7191960    1.4150450  
C     7.6161740    0.9669810    0.7351270  
O     8.5899000    0.2116760    0.7585110  
C     6.2611840    0.5009430    0.3598180  
H     6.9300730    4.3274960    1.3676990  
H     9.5940070    1.8811700    1.3323450  
H     6.1563270   -0.5579220    0.1432480  
H     2.3468190    2.9764280    0.1930230  
C    -3.6638310    0.6465650   -0.0147520  
C    -4.9877940    0.7929290    0.3332860  
C    -5.2950750    2.1599430    0.0444630  
C    -4.0094190    2.7306460   -0.4942220  
N    -3.0644890    1.8335370   -0.5303000  
C    -3.9012150    4.1019860   -0.9029450  
C    -5.0145000    4.8669230   -0.7952750  
O    -5.0798200    6.1549220   -1.1349250  
C    -6.3337280    4.3196810   -0.2638510  
O    -7.2702870    5.1223940   -0.2187300  
C    -6.4130440    2.9306880    0.1485260  
H    -5.6809380    0.0487130    0.6878460  
H    -2.9630140    4.4910150   -1.2820550  
H    -6.0115960    6.4174890   -0.9400670  
H    -7.3646460    2.5698700    0.5251660  
