60


C    -1.4337200   -2.7420730   -1.8787020  
C    -2.6734010   -2.5852800   -1.3167640  
C    -2.6232660   -1.3998150   -0.5102000  
C    -1.3122010   -0.8763580   -0.6212060  
N    -0.6085630   -1.7216290   -1.4473280  
C    -0.8888990    0.3461450   -0.0338040  
C    -1.8816950    1.0259050    0.7100600  
O    -1.5786530    2.1442680    1.4000380  
C    -3.1920160    0.5058380    0.8292410  
O    -4.0192700    1.2887630    1.6226250  
C    -3.6040740   -0.6900710    0.2385400  
H    -3.5257620   -3.2294710   -1.4737130  
H     0.3156190   -1.5212490   -1.7981320  
H    -2.3857600    2.4005810    1.8848900  
H    -4.6667350    0.7212180    2.0701600  
H    -1.0604970   -3.5056060   -2.5460460  
C     0.4618560    0.8379570   -0.1799650  
C     1.6219270    0.1020750   -0.3568730  
C     2.6819350    1.0621700   -0.4515530  
C     1.9919800    2.3850740   -0.3539700  
N     0.7085660    2.2505900   -0.1864270  
C     2.7134210    3.6294760   -0.4191610  
C     4.0583900    3.5675010   -0.5441860  
O     4.8614130    4.6386300   -0.5958650  
C     4.8004450    2.2549930   -0.6529700  
O     6.0165690    2.3132980   -0.8308460  
C     4.0424750    0.9909580   -0.5736750  
H     1.7381190   -0.9690900   -0.2685680  
H     2.1802310    4.5704840   -0.3477270  
H     5.7690950    4.2807890   -0.7199730  
C     4.3904080   -1.1821410   -1.7201150  
C     5.1985670   -2.2672630   -1.6594740  
C     6.1410670   -2.0453440   -0.5837820  
C     5.8131580   -0.7155890   -0.0137350  
N     4.7347140   -0.2217910   -0.7584260  
C     6.4438550   -0.1747650    1.0558890  
C     7.5434710   -0.9218610    1.6680460  
O     8.1658760   -0.5070530    2.6329760  
C     7.9288400   -2.3162040    1.0560050  
O     8.8491850   -2.9481870    1.5500290  
C     7.1491590   -2.8059900   -0.0830590  
H     5.1594670   -3.1323540   -2.3057690  
H     6.1934950    0.7915550    1.4767350  
H     7.4013540   -3.7824260   -0.4854520  
H     3.5763760   -0.9633720   -2.3976590  
C    -5.3509230   -2.4973450    0.6154520  
C    -4.9657800   -1.2035030    0.3963460  
C    -6.2486810   -0.4741230    0.2647570  
C    -7.2897810   -1.5297370    0.4515810  
N    -6.7516470   -2.7006710    0.6630200  
C    -8.6943140   -1.2298740    0.3860880  
C    -9.0583380    0.0479360    0.1188020  
O   -10.3288400    0.4656190    0.0215850  
C    -8.0348460    1.1288400   -0.0989020  
O    -8.4405530    2.2633280   -0.3389180  
C    -6.5943280    0.7986110   -0.0114860  
H    -9.4229310   -2.0188840    0.5353910  
H   -10.2781010    1.4256310   -0.1805840  
H    -5.8903640    1.6098340   -0.1627730  
H    -4.6990540   -3.3493010    0.7670010  
