58


C    -0.7117600   -0.2301980   -1.6422410  
C    -0.2459060   -0.9615840   -0.5843070  
C    -1.4214250   -1.3024860    0.2218350  
C    -2.5871800   -0.7109260   -0.4643800  
N    -2.0895230   -0.1015780   -1.5987730  
C    -3.8924580   -0.7496610   -0.0273080  
C    -4.1052200   -1.4294730    1.2679610  
O    -5.1964550   -1.5149790    1.8076040  
C    -2.8753660   -2.0825170    2.0034150  
O    -3.0730900   -2.6359130    3.0721960  
C    -1.5522750   -1.9776880    1.3934250  
H    -0.7195480   -2.4490200    1.9016200  
H    -0.1590660    0.1798700   -2.4780630  
H    -2.6462700    0.4756500   -2.2119800  
C     3.3339160    1.5336420   -0.3885670  
C     4.3066640    0.5865770   -0.2018680  
C     3.6129510   -0.7061730   -0.1523520  
C     2.1740440   -0.4095670   -0.3362970  
N     2.0850060    0.9617780   -0.5017080  
C     1.1545280   -1.3215200   -0.3286730  
C     1.5388370   -2.7264490   -0.0872070  
O     0.7299600   -3.6386000   -0.0587320  
C     3.0571660   -3.0612400    0.1384860  
O     3.3691350   -4.2174660    0.3689730  
C     4.0377980   -1.9757810    0.0719380  
H     5.0808160   -2.2373610    0.1990680  
H     3.4535970    2.6042210   -0.4870370  
H     1.2114820    1.4635420   -0.5601550  
C     6.6191350    3.7541910    1.9264450  
C     5.5949200    2.9626820    1.5232590  
C     6.2059040    1.9574990    0.6583950  
C     7.6533960    2.3116770    0.6698290  
N     7.8885790    3.3645480    1.4030280  
C     8.6329890    1.5413570   -0.0530300  
C     8.1986110    0.4651960   -0.7463360  
O     9.0009640   -0.3509520   -1.4507100  
C     6.7446260    0.0851110   -0.7942570  
O     6.4440170   -0.8915060   -1.4766460  
C     5.7267400    0.8985150   -0.0535900  
H     4.5552420    3.0277050    1.8102330  
H     9.6789840    1.8249380   -0.0205410  
H     8.4103880   -1.0221930   -1.8554540  
H     6.5764250    4.6103730    2.5891750  
C    -5.1220400   -0.1492150   -2.1602930  
C    -4.9966010   -0.1879350   -0.7948360  
C    -6.2101210    0.5245740   -0.3166590  
C    -6.9143270    0.9215740   -1.5680770  
N    -6.2742150    0.5135120   -2.6330860  
C    -8.1497430    1.6573290   -1.5510080  
C    -8.6649120    2.0029520   -0.3467300  
O    -9.8023400    2.6948900   -0.1797390  
C    -7.9744910    1.6297540    0.9338580  
O    -8.4916040    1.9881800    1.9896100  
C    -6.7127910    0.8543300    0.8878780  
H    -8.6335460    1.9209790   -2.4849050  
H    -9.9121590    2.7880120    0.7922130  
H    -6.2749960    0.5663900    1.8353910  
H    -4.4686350   -0.6174630   -2.8884600  
