62


C     0.3387410    1.3278120   -0.5467460  
C     0.3844860    2.7061670   -0.5263600  
C     1.7557400    3.0892820   -0.3939680  
C     2.5228080    1.8999200   -0.3500100  
N     1.6461110    0.8412470   -0.4780500  
C     3.9267640    1.8778940   -0.1513350  
C     4.5455750    3.1392570   -0.0323470  
O     5.8874600    3.2418900    0.0899450  
C     3.7833750    4.3366400   -0.1071680  
O     4.5513350    5.4789400    0.0045950  
C     2.4150470    4.3305280   -0.2864050  
H    -0.4674150    3.3630160   -0.6344460  
H     1.8839250   -0.0981400   -0.1885120  
H     6.0983810    4.1901480    0.1642000  
H     3.9819760    6.2617270   -0.0265330  
H     1.8600820    5.2650420   -0.3351760  
C    -0.7865670    0.4288490   -0.6551680  
C    -2.1013650    0.5977200   -0.2711550  
C    -2.8141900   -0.5918220   -0.6138920  
C    -1.8722870   -1.4804050   -1.1964420  
N    -0.6397630   -0.8530520   -1.1825980  
C    -2.2078000   -2.7583530   -1.6451770  
C    -3.5237260   -3.1661730   -1.4824420  
O    -3.9039790   -4.4006410   -1.9149020  
C    -4.4798910   -2.3210240   -0.8647400  
O    -5.7314820   -2.8906130   -0.8078000  
C    -4.1601640   -1.0254690   -0.4322530  
H    -2.4890310    1.4721360    0.2298850  
H     0.1338210   -1.1246620   -1.7716320  
H    -1.4898760   -3.4336640   -2.0991930  
H    -4.8472600   -4.5023970   -1.6973240  
H    -6.3176240   -2.3679300   -0.2367130  
C     4.6595570    0.6264350   -0.0663010  
C     4.3754840   -0.5630490   -0.6961390  
C     5.3733140   -1.4999680   -0.2454320  
C     6.2094710   -0.7042520    0.7137210  
N     5.8004120    0.5251660    0.8104930  
C     7.3211760   -1.2969650    1.4135540  
C     7.6036340   -2.5950100    1.1558500  
O     8.6088260   -3.2782250    1.7212000  
C     6.7896130   -3.4170030    0.1789910  
O     7.1320880   -4.5903150    0.0186920  
C     5.6551440   -2.7998150   -0.5079710  
H     3.6315120   -0.7418360   -1.4598930  
H     7.9039820   -0.7036710    2.1091710  
H     8.5514290   -4.1810610    1.3327380  
H     5.0898550   -3.4232840   -1.1939710  
C    -7.1183780   -1.4715880    2.9037950  
C    -6.0926470   -1.7197460    2.0496230  
C    -6.0028100   -0.5277950    1.2078750  
C    -7.0863750    0.3547070    1.7259550  
N    -7.7358510   -0.2021050    2.7122150  
C    -7.3337130    1.6605090    1.1721090  
C    -6.5402990    2.0690030    0.1569280  
O    -6.6491540    3.2625310   -0.4507880  
C    -5.4462720    1.1977600   -0.4062840  
O    -4.8230070    1.6467820   -1.3629920  
C    -5.1873120   -0.1636930    0.1764260  
H    -5.4431150   -2.5833410    2.0212480  
H    -8.1291340    2.2797180    1.5715690  
H    -5.9713750    3.2556270   -1.1618520  
H    -7.4900030   -2.1111230    3.6958510  
