60


C     3.1567080    1.8338310   -0.2744100  
C     1.8146480    1.8611270   -0.0586950  
C     1.4134120    0.5462880    0.3737730  
C     2.5763310   -0.2592000    0.3901770  
N     3.6569260    0.5530730    0.0078180  
C     2.5319130   -1.6262660    0.6720110  
C     1.2978410   -2.1853940    0.9792090  
O     1.2245150   -3.5109440    1.2738920  
C     0.1228060   -1.4002780    0.9955140  
O    -0.9973110   -2.1093020    1.3469280  
C     0.1538280   -0.0263350    0.6901230  
H     1.1747410    2.7168740   -0.2133210  
H     3.3968750   -2.2733770    0.6418410  
H     0.2945650   -3.7156640    1.4759630  
H    -1.7680460   -1.5204200    1.4477750  
H     3.8445550    2.5962390   -0.6004800  
C    -1.0573880    0.7808440    0.7269030  
C    -1.2537630    2.0772460    1.1138150  
C    -2.6531200    2.3935250    0.9824630  
C    -3.3024540    1.1660630    0.4785460  
N    -2.3103070    0.1861820    0.4042930  
C    -4.6166050    1.0606290    0.1369520  
C    -5.4654360    2.2558390    0.3608730  
O    -6.6691280    2.2392210    0.1800340  
C    -4.7929610    3.5622410    0.9118100  
O    -5.4873320    4.5554730    1.0608400  
C    -3.3650330    3.5313910    1.2140710  
H    -0.4957320    2.7339660    1.5147930  
H    -2.9075820    4.4433230    1.5849050  
H    -2.3631920   -0.5116600   -0.3312920  
C    -4.9769450   -3.1819870    1.5372460  
C    -4.6656950   -1.8616610    1.5015350  
C    -5.2050530   -1.3805320    0.2346130  
C    -5.8384670   -2.5949020   -0.3706780  
N    -5.6915570   -3.6431660    0.3913430  
C    -6.5271870   -2.5414270   -1.6324790  
C    -6.5855580   -1.3472340   -2.2669110  
O    -7.1910850   -1.1525710   -3.4466970  
C    -5.9157230   -0.1146810   -1.7132460  
O    -5.9142370    0.8880400   -2.4171520  
C    -5.2304690   -0.1717340   -0.3833780  
H    -4.1818990   -1.2687080    2.2649180  
H    -6.9831660   -3.4361080   -2.0413380  
H    -7.0401400   -0.2082520   -3.6717250  
H    -4.7588310   -3.8928150    2.3258840  
C     4.9960850    0.2415760   -0.0544760  
C     5.6800250   -0.8632470    0.3937830  
C     7.0473430   -0.6173530    0.0419760  
C     7.0272160    0.7281600   -0.6341930  
N     5.8230750    1.2235400   -0.6779020  
C     8.2214930    1.3388050   -1.1451320  
C     9.3808610    0.6565090   -0.9840250  
O    10.5726540    1.0875120   -1.3992020  
C     9.4385100   -0.7017120   -0.2964180  
O    10.5548740   -1.2181200   -0.2122580  
C     8.2121480   -1.2996160    0.2064210  
H     5.3122450   -1.7118290    0.9458120  
H     8.1791330    2.3058200   -1.6333120  
H    11.2043550    0.3762520   -1.1364260  
H     8.2856920   -2.2685920    0.6894040  
