58


C    -1.8577100   -0.5088850    0.5397580  
C    -3.1691770   -0.1448810    0.6324100  
C    -3.2271850    1.2714810    0.2676150  
C    -1.8406120    1.6850640   -0.0467810  
N    -1.0367200    0.5525490    0.1385550  
C    -1.4887930    2.9236650   -0.4641300  
C    -2.5349810    3.9414310   -0.5860990  
O    -2.3113430    5.0750400   -0.9767300  
C    -4.0016470    3.5424930   -0.1992730  
O    -4.8861030    4.3793460   -0.2652060  
C    -4.2546670    2.1569090    0.2172000  
H    -0.4696990    3.2142980   -0.6902830  
H    -5.2745120    1.8910940    0.4741700  
H    -1.4115910   -1.4730510    0.7457680  
C     1.2874880   -2.1365450   -2.3061110  
C     2.5363220   -1.7841430   -1.8902110  
C     2.3954490   -0.7270170   -0.9216970  
C     0.9474490   -0.4799480   -0.8147730  
N     0.3247190   -1.3946170   -1.6393970  
C     0.3588120    0.4718640   -0.0227830  
C     1.2490720    1.3270650    0.7678670  
O     0.8561580    2.1415270    1.5825080  
C     2.7973320    1.1736590    0.5488760  
O     3.4995810    2.0587420    1.0189820  
C     3.3231160    0.0132490   -0.2003110  
H     3.4601960   -2.1946740   -2.2635770  
H     0.9910970   -2.8708810   -3.0428210  
H    -0.6549250   -1.3647310   -1.8798320  
C     4.7429050   -0.2778340   -0.1736390  
C     5.4026190   -1.4607250   -0.4554160  
C     6.8035090   -1.2536910   -0.2275900  
C     6.9444320    0.1536010    0.2215260  
N     5.6734780    0.6840140    0.2208930  
C     8.1259300    0.7351400    0.5503020  
C     9.3445140   -0.0645000    0.4577140  
O    10.4516650    0.3725350    0.7318240  
C     9.2185950   -1.5584900   -0.0182580  
O    10.2275370   -2.2425620   -0.1033670  
C     7.8875050   -2.0736600   -0.3428940  
H     4.9455460   -2.4003950   -0.7226500  
H     8.2115670    1.7659420    0.8792810  
H     7.8115680   -3.1067200   -0.6688920  
H     5.3851860    1.5845400    0.5815060  
C    -4.2462060   -1.8973920    2.1074710  
C    -4.2564590   -1.0062400    1.0752490  
C    -5.5918250   -1.1781780    0.4674920  
C    -6.2388090   -2.2343900    1.3054200  
N    -5.4426880   -2.6473150    2.2528600  
C    -7.5724800   -2.7011830    1.0361380  
C    -8.2274740   -2.1740660   -0.0265650  
O    -9.4690240   -2.5219260   -0.3945640  
C    -7.5904230   -1.1353340   -0.9092830  
O    -8.2381590   -0.7157200   -1.8644410  
C    -6.2217360   -0.6603180   -0.6035430  
H    -8.0182090   -3.4591050    1.6705920  
H    -9.6733620   -1.9830940   -1.1898950  
H    -5.8044640    0.0925210   -1.2647950  
H    -3.4416020   -2.0632360    2.8149110  
