58


C    -0.7661200    1.0558400    0.0865390  
C    -0.7789120    2.4084470    0.3781570  
C    -2.1285240    2.8803710    0.2405950  
C    -2.9401630    1.7034990   -0.1327210  
N    -2.0589460    0.6445540   -0.2131750  
C    -4.2933330    1.7164270   -0.3699550  
C    -4.9312720    3.0599070   -0.3457710  
O    -6.0876360    3.2463230   -0.6814910  
C    -4.0931550    4.3055590    0.1295280  
O    -4.6707670    5.3769150    0.2469710  
C    -2.6759450    4.1238630    0.3871450  
H     0.0411360    2.9991650    0.7588150  
H    -2.0929180    4.9927380    0.6761590  
H    -2.2747030   -0.3223020   -0.4195180  
C     3.5491680    1.7000060   -0.2891720  
C     4.0127990    0.4222420   -0.1511220  
C     2.8244080   -0.4256560    0.0035400  
C     1.6583550    0.4841320   -0.0333310  
N     2.1669690    1.7491020   -0.1966890  
C     0.3343040    0.1078070    0.0654150  
C     0.0890010   -1.3451010    0.0994340  
O    -1.0212860   -1.8499860   -0.0113150  
C     1.3096640   -2.3118370    0.2789450  
O     1.0894180   -3.4938520    0.4726710  
C     2.6634990   -1.7603980    0.1864940  
H     3.4904770   -2.4572550    0.2375750  
H     4.1128210    2.6057520   -0.4667420  
H     1.5977190    2.5420140   -0.4604240  
C     7.6872800    2.1670300    1.6773390  
C     6.3847940    1.9318280    1.3858940  
C     6.3960390    0.7775840    0.4920700  
C     7.8450040    0.4399980    0.3639670  
N     8.5931500    1.2572190    1.0499240  
C     8.3010400   -0.6713820   -0.4301960  
C     7.3668850   -1.4196770   -1.0593210  
O     7.6486670   -2.4906600   -1.8189650  
C     5.8997000   -1.1053650   -0.9620670  
O     5.1280240   -1.8292910   -1.5868830  
C     5.4309060    0.0606400   -0.1474430  
H     5.5173300    2.4563710    1.7596840  
H     9.3606160   -0.8899330   -0.5010170  
H     6.7869160   -2.8184100   -2.1547770  
H     8.0957160    2.9371690    2.3207520  
C    -6.1710890    0.4574710   -1.5231360  
C    -5.1000440    0.5454120   -0.6730660  
C    -5.0163970   -0.8033450   -0.0695270  
C    -6.1042910   -1.5745300   -0.7472570  
N    -6.7659060   -0.8267910   -1.5875680  
C    -6.3621580   -2.9546500   -0.4401770  
C    -5.6214750   -3.5379880    0.5333760  
O    -5.7607600   -4.8123800    0.9285460  
C    -4.5714400   -2.7707010    1.2873910  
O    -3.9699490   -3.3520410    2.1870420  
C    -4.3068690   -1.3593840    0.9321890  
H    -7.1450590   -3.4874470   -0.9683410  
H    -5.1065330   -4.9359170    1.6512090  
H    -3.5433930   -0.8518870    1.5117770  
H    -6.5826250    1.2528290   -2.1277330  
