60


C    -1.8725240   -1.1610720    1.6181260  
C    -0.8282970   -0.3271790    1.3349530  
C    -1.3677800    0.8387840    0.6866150  
C    -2.7719290    0.6529470    0.6198090  
N    -3.0659370   -0.5945990    1.1758480  
C    -3.6459320    1.6363530    0.1480940  
C    -3.0799050    2.8290210   -0.2773510  
O    -3.8726170    3.8309190   -0.7382950  
C    -1.6768800    3.0423950   -0.2356010  
O    -1.2930630    4.2714030   -0.7133150  
C    -0.7908870    2.0535960    0.2106700  
H     0.2090030   -0.5264650    1.5595190  
H    -4.7230530    1.5181990    0.1393380  
H    -3.2703830    4.5761770   -0.9290340  
H    -0.6057490    4.6160620   -0.0961390  
H    -1.8869850   -2.1403030    2.0741910  
C     2.4843600   -0.4805920   -1.3641070  
C     1.2845870    0.0715100   -1.0577460  
C     1.5372990    1.2890280   -0.3210710  
C     3.0114660    1.4031710   -0.2185940  
N     3.5443050    0.2912640   -0.8674890  
C     3.6709810    2.4051070    0.4170610  
C     2.8719610    3.4688980    0.9977460  
O     3.3393650    4.4021630    1.6308140  
C     1.3171810    3.4391200    0.7614470  
O     0.7030640    4.4668390    1.0406160  
C     0.6795660    2.2319910    0.2035960  
H     0.3151730   -0.3168390   -1.3269040  
H     4.7483390    2.4384680    0.5329160  
H     2.7087050   -1.3785950   -1.9240630  
C     5.8622090    0.7219670   -1.6303990  
C     4.9077560   -0.0258030   -1.0047020  
C     5.5562730   -1.2198610   -0.4831140  
C     6.9820200   -1.0993680   -0.8687040  
N     7.0968360    0.1025690   -1.5494160  
C     7.9323140   -2.0207820   -0.5764010  
C     7.5348250   -3.2142430    0.1716860  
O     8.3192190   -4.0979880    0.4747860  
C     6.0273620   -3.3545680    0.5984330  
O     5.6775000   -4.3400840    1.2256980  
C     5.0945600   -2.2862310    0.2188350  
H     8.9735300   -1.9202500   -0.8667580  
H     4.0573040   -2.3889770    0.5222420  
H     5.7543760    1.6731550   -2.1340480  
H     7.9591110    0.4812890   -1.9094610  
C    -4.8239150   -1.7714000    2.4669810  
C    -4.3299020   -1.1665210    1.3550120  
C    -5.3524430   -1.3819700    0.3115120  
C    -6.4237440   -2.1329930    1.0266960  
N    -6.1054790   -2.3574450    2.2717660  
C    -7.6321200   -2.5347280    0.3558380  
C    -7.7500110   -2.2542860   -0.9646670  
O    -8.8163200   -2.5831390   -1.7132760  
C    -6.6660850   -1.5394190   -1.7190780  
O    -6.8392860   -1.3267200   -2.9174140  
C    -5.4434490   -1.1084270   -1.0022820  
H    -8.4048200   -3.0619850    0.9043370  
H    -8.6146950   -2.2551020   -2.6166100  
H    -4.6923230   -0.5749210   -1.5760630  
H    -4.3519900   -1.8462250    3.4389020  
