62


C    -3.4993300    1.8612810    0.4393680  
C    -4.0948300    0.6386960    0.1728080  
C    -3.0053910   -0.2533580   -0.2016650  
C    -1.8094720    0.5060850   -0.1521530  
N    -2.1480040    1.7819100    0.2455510  
C    -0.5263380   -0.0137120   -0.4527880  
C    -0.4885400   -1.3766990   -0.7812180  
O     0.7028440   -1.9873370   -1.0578540  
C    -1.6727940   -2.1421640   -0.8552840  
O    -1.4554640   -3.4574420   -1.2202890  
C    -2.9162640   -1.6045360   -0.5859620  
H    -1.4792350    2.4955830    0.4941970  
H     0.5140530   -2.9281610   -1.2269010  
H    -2.2818890   -3.9561730   -1.1389570  
H    -3.8026460   -2.2265650   -0.6108270  
H    -3.9566590    2.7851290    0.7537490  
C     0.6700450    0.8198500   -0.4243500  
C     0.7992910    2.1797330   -0.6160000  
C     2.1893450    2.5232540   -0.4807390  
C     2.8958630    1.2541280   -0.1905790  
N     1.9246440    0.2738440   -0.1612760  
C     4.2408560    1.1227650    0.0090440  
C     5.0451550    2.3597630   -0.1162330  
O     6.2626120    2.3640860   -0.0712290  
C     4.3031690    3.7265240   -0.3641300  
O     4.9682410    4.7532140   -0.3877200  
C     2.8606320    3.7077110   -0.5625100  
H     0.0181100    2.8588020   -0.9246580  
H     2.3622740    4.6528690   -0.7560250  
H     2.0945850   -0.7175250   -0.0707850  
C     4.3445140   -2.6388060   -2.3382570  
C     5.1293330   -3.3683380   -1.4842000  
C     5.4387040   -2.5215680   -0.3660370  
C     4.8012740   -1.2752590   -0.5996020  
N     4.1347250   -1.3793660   -1.8054340  
C     4.8961440   -0.1743930    0.2805130  
C     5.6632300   -0.3747600    1.4303920  
O     5.7617750    0.6178030    2.3558600  
C     6.3079100   -1.6146050    1.6770190  
O     7.0156290   -1.6444460    2.8660470  
C     6.2054560   -2.6811570    0.8046660  
H     5.4543180   -4.3889520   -1.6339460  
H     3.6529050   -0.6233670   -2.2661280  
H     6.4112490    0.3290220    3.0202060  
H     7.5596500   -2.4450770    2.8951120  
H     6.7078660   -3.6216740    1.0224080  
H     3.9089150   -2.9081500   -3.2901640  
C    -6.5608480   -2.9310280    1.1844820  
C    -7.8139140   -2.4436660    1.0637930  
C    -7.6419060   -1.0481830    0.6708300  
C    -6.1555030   -0.8616220    0.5890280  
N    -5.5407260   -1.9687330    0.8897210  
C    -5.5438010    0.4220380    0.2334040  
C    -6.4404070    1.4387000    0.0149620  
O    -6.0720510    2.7046340   -0.2852120  
C    -7.9176190    1.2693980    0.0633600  
O    -8.6223070    2.2471900   -0.2020400  
C    -8.4945530   -0.0423390    0.4147740  
H    -8.7533500   -2.9519530    1.2309830  
H    -6.9197690    3.1793750   -0.4417410  
H    -9.5768400   -0.1209060    0.4510460  
H    -6.2547170   -3.9298880    1.4715520  
