64


C     3.0877300   -1.5382290    0.1753590  
C     4.0648230   -0.5648370    0.1177110  
C     3.3624940    0.6982520    0.0871350  
C     1.9734960    0.4150990    0.1336370  
N     1.8388910   -0.9566130    0.1708600  
C     0.9670160    1.4107920    0.0789190  
C     1.4441720    2.7159180   -0.0417130  
O     0.5527640    3.7702100   -0.1171220  
C     2.8249240    3.0190970   -0.0893010  
O     3.0886480    4.3731430   -0.2032680  
C     3.7886600    2.0341420   -0.0254800  
H     0.9646090   -1.4376430    0.3208400  
H     1.0838250    4.5868270   -0.1622620  
H     4.0435350    4.5224560   -0.1400340  
H     4.8454400    2.2812900   -0.0462240  
H     3.1935460   -2.6113010    0.2567760  
C     6.3315770   -3.3118430   -2.4610220  
C     7.5857030   -3.0532520   -1.9716090  
C     7.4410840   -2.0626290   -0.9420840  
C     6.0577350   -1.7623320   -0.8468750  
N     5.4054220   -2.5484640   -1.7756400  
C     5.5164200   -0.8110500    0.0465410  
C     6.4454880   -0.1504930    0.8530980  
O     6.0250030    0.7861430    1.7612300  
C     7.8328440   -0.4351820    0.7695380  
O     8.6048290    0.3137020    1.6447530  
C     8.3415230   -1.3780860   -0.1024030  
H     8.5058030   -3.5142160   -2.3041090  
H     4.4251000   -2.4626780   -1.9963170  
H     6.8134460    1.0596490    2.2621260  
H     9.5104510   -0.0292190    1.6446370  
H     9.4113330   -1.5729810   -0.1444640  
H     6.0133220   -3.9889150   -3.2413490  
C    -1.4573780   -1.1874890    2.8311070  
C    -0.4527910   -0.4566620    2.2509700  
C    -1.0029910    0.1594480    1.0723630  
C    -2.3579290   -0.2409470    0.9949500  
N    -2.5998100   -1.0743430    2.0640310  
C    -3.2773640    0.2398000    0.0236900  
C    -2.7435360    1.1849970   -0.8756320  
O    -3.4885130    1.6940850   -1.8754000  
C    -1.3772100    1.5815390   -0.8218240  
O    -1.0271940    2.4592200   -1.8262140  
C    -0.4745740    1.0687490    0.1085960  
H     0.5508880   -0.3420220    2.6339070  
H    -3.5210830   -1.3947830    2.3236940  
H    -2.8972850    2.3186230   -2.3434150  
H    -0.4917470    3.1777700   -1.4224980  
H    -1.4564370   -1.7859260    3.7309850  
C    -4.6542790   -0.2044070   -0.0030250  
C    -5.1577530   -1.4256850    0.3956490  
C    -6.5807620   -1.3490000    0.2117340  
C    -6.8049740    0.0442700   -0.3008480  
N    -5.6909650    0.7002070   -0.4332700  
C    -8.1286960    0.5341650   -0.5917340  
C    -9.1642240   -0.3181480   -0.4124540  
O   -10.4481230   -0.0123200   -0.6481430  
C    -8.9664640   -1.7360720    0.0839810  
O    -9.9839690   -2.4235570    0.2111710  
C    -7.6197870   -2.2060590    0.3884850  
H    -4.5996410   -2.3105150    0.6697910  
H    -8.2664960    1.5478440   -0.9510120  
H   -10.9443070   -0.8337080   -0.4247930  
H    -7.5164850   -3.2242520    0.7510370  
