60


C     0.7128980   -0.5485830   -0.7786780  
C     0.1807350    0.6326700   -0.2865200  
C     1.3025360    1.3661470    0.2723620  
C     2.4528260    0.5623590    0.1112370  
N     2.0599600   -0.5941150   -0.5322040  
C     3.7589680    0.9476500    0.5132730  
C     3.8575170    2.2179980    1.1134560  
O     5.0378120    2.6745470    1.5841810  
C     2.7021560    3.0233110    1.2965380  
O     2.9679840    4.2267140    1.9205920  
C     1.4446010    2.6194720    0.9000890  
H     2.7062310   -1.2749380   -0.9045960  
H     4.8793590    3.5743680    1.9241100  
H     2.1960250    4.8077740    1.8474530  
H     0.5907130    3.2736700    1.0353070  
H     0.2245870   -1.3423240   -1.3249770  
C    -3.4863680   -1.7760600    0.2984340  
C    -2.2115990   -1.3209800    0.2544220  
C    -2.2438150    0.0614950   -0.1674840  
C    -3.6723800    0.3917820   -0.3587890  
N    -4.3915780   -0.7812760   -0.1045240  
C    -4.1480320    1.6304500   -0.6507160  
C    -3.1856780    2.7052950   -0.8103220  
O    -3.5025580    3.8657070   -1.0287060  
C    -1.6545080    2.3692890   -0.6841800  
O    -0.8612220    3.2792330   -0.8619920  
C    -1.2368600    0.9825850   -0.3536460  
H    -1.3319910   -1.8836160    0.5261710  
H    -5.1981100    1.8621350   -0.7651440  
H    -3.8676070   -2.7389250    0.6003370  
C    -7.0315600   -2.6539120    2.7689900  
C    -8.2404400   -2.4567880    2.1965930  
C    -7.9642380   -1.7582670    0.9445730  
C    -6.4771390   -1.6137400    0.9349630  
N    -5.9391920   -2.1391600    1.9948710  
C    -5.7851660   -0.9489850   -0.1617830  
C    -6.5510240   -0.5147360   -1.2069760  
O    -6.0481460    0.0622000   -2.3112710  
C    -8.0383600   -0.6439350   -1.2060790  
O    -8.6459740   -0.2228880   -2.1916680  
C    -8.7199280   -1.2912190   -0.0666550  
H    -9.2137740   -2.7419360    2.5706730  
H    -6.8313130    0.2751510   -2.8678490  
H    -9.8019380   -1.3662680   -0.1149180  
H    -6.8061600   -3.1394640    3.7104240  
C     4.9023650    0.0786810    0.3028660  
C     4.9327630   -1.2978490    0.3143510  
C     6.2898870   -1.6679580    0.0060960  
C     6.9855530   -0.3539090   -0.1991860  
N     6.1851060    0.6536650   -0.0183400  
C     8.3805740   -0.2889040   -0.5548830  
C     9.0522570   -1.4578700   -0.6709860  
O    10.3514490   -1.5572970   -0.9859460  
C     8.3816350   -2.7976340   -0.4497920  
O     9.0872660   -3.8003440   -0.5826420  
C     6.9616710   -2.8409580   -0.1063230  
H     4.1424400   -1.9722370    0.6148610  
H     8.8580180    0.6723590   -0.7084080  
H    10.5364810   -2.5244640   -0.9897560  
H     6.5130000   -3.8194130    0.0358250  
