60


C     1.0191520    1.0020170   -0.1496380  
C    -0.3622930    1.1146920   -0.1780760  
C    -0.8728440   -0.2196020   -0.1550700  
C     0.3417290   -1.0628710   -0.1124310  
N     1.4378870   -0.3595170   -0.1087950  
C     0.2867960   -2.5173620   -0.1254540  
C    -0.9423140   -3.0757100   -0.2759120  
O    -1.1492770   -4.4035490   -0.3503350  
C    -2.1896360   -2.2610790   -0.3479640  
O    -3.2421130   -2.8927060   -0.5214280  
C    -2.1444340   -0.7728110   -0.1924360  
H    -0.9291040    2.0283320   -0.2753770  
H    -2.1174380   -4.5108270   -0.4649810  
C     1.9780560    2.0646560   -0.1776270  
C     1.7332380    3.4240490   -0.1885240  
C     3.0183810    4.0566430   -0.2231330  
C     3.9893080    2.9105000   -0.2287880  
N     3.3867740    1.7604090   -0.2014080  
C     5.4131800    3.1354160   -0.2617060  
C     5.8458320    4.4172780   -0.2855850  
O     7.1364190    4.7807950   -0.3163510  
C     4.8909350    5.5918750   -0.2794930  
O     5.3953230    6.7182780   -0.3029600  
C     3.4524670    5.3449830   -0.2472480  
H     0.7735470    3.9216450   -0.1685760  
H     6.0958210    2.2930330   -0.2660640  
H     7.1190270    5.7653690   -0.3279090  
H     2.7968740    6.2103920   -0.2451170  
C     3.2094360   -2.8435150    3.1251560  
C     4.1518560   -3.6542590    2.5933860  
C     3.6531020   -3.9916860    1.2635020  
C     2.3580330   -3.2439520    1.1612070  
N     2.0960970   -2.5945510    2.2546690  
C     1.5242870   -3.3147960   -0.0278050  
C     1.9510520   -4.1388990   -1.0225250  
O     1.2990240   -4.3140790   -2.1805870  
C     3.2403470   -4.9119400   -0.9338680  
O     3.5422240   -5.6181410   -1.8949440  
C     4.0800390   -4.7949470    0.2706450  
H     5.0736590   -3.9981540    3.0413440  
H     1.8524760   -4.9449340   -2.6933330  
H     4.9976560   -5.3748480    0.2950510  
H     3.2044900   -2.3799440    4.1044700  
C    -3.3727760   -0.0414560   -0.0863890  
C    -3.5965270    1.2810800    0.3319790  
C    -4.9849590    1.5205870    0.2901360  
C    -5.6037510    0.3102830   -0.1595640  
N    -4.6125700   -0.6038630   -0.3751160  
C    -6.9898560    0.1874970   -0.3131890  
C    -7.7622430    1.2960250   -0.0087170  
O    -9.1099650    1.2370990   -0.1371160  
C    -7.1613100    2.5156900    0.4449200  
O    -8.0808720    3.5085480    0.6990990  
C    -5.8007600    2.6383190    0.5967960  
H    -2.8372780    1.9643650    0.6796500  
H    -4.7068580   -1.5795540   -0.6264870  
H    -7.4674090   -0.7252200   -0.6523480  
H    -9.4707130    2.1033520    0.1231400  
H    -7.6279440    4.3081720    1.0063000  
H    -5.3613460    3.5712730    0.9422480  
