62


C    -0.0520850   -2.7829830   -0.5691770  
C    -0.8445640   -3.5368330   -1.4336990  
C    -2.1395250   -2.9655720   -1.4234280  
C    -2.0996120   -1.8439970   -0.5333810  
N    -0.8327230   -1.7724060   -0.0307370  
C    -3.2290830   -1.0360930   -0.2468970  
C    -4.4002460   -1.4290590   -0.8880530  
O    -5.5698880   -0.7375830   -0.6580510  
C    -4.4616660   -2.5378240   -1.7792210  
O    -5.7215650   -2.7409110   -2.3061500  
C    -3.3554110   -3.3041640   -2.0600400  
H    -0.5189740   -4.4025510   -1.9936660  
H    -0.4542980   -1.0635930    0.5840200  
H    -6.2593410   -1.1431480   -1.2158430  
H    -5.7006870   -3.4781150   -2.9342290  
H    -3.4181750   -4.1516930   -2.7383340  
C    -0.4158260    2.4858150    0.0605460  
C    -1.1118170    1.3500140   -0.3551050  
C    -2.1369410    1.0967890    0.5953330  
C    -2.0452110    2.1232950    1.5841090  
N    -0.9982470    2.9351350    1.2421990  
C    -2.9304270    2.2239410    2.6622680  
C    -3.9431450    1.2820320    2.7247300  
O    -4.8580740    1.3247100    3.7253820  
C    -4.0607820    0.2420210    1.7525320  
O    -5.1111280   -0.6179760    1.9939080  
C    -3.1611030    0.1047470    0.6999530  
H    -0.8872480    0.8029840   -1.2559210  
H    -0.6784040    3.7536030    1.7397740  
H    -2.8640820    3.0052970    3.4117360  
H    -5.4730850    0.5858320    3.5508170  
H    -5.5748220   -0.7694740    1.1429620  
C     1.8314170    1.5991820   -3.6219010  
C     2.7571980    2.5832480   -3.6212210  
C     2.4805050    3.3654990   -2.4208870  
C     1.3089300    2.6796590   -1.7937810  
N     0.9394700    1.6549220   -2.5029080  
C     0.7089320    3.1622630   -0.5402730  
C     1.3009160    4.2840480   -0.0078500  
O     0.8789580    4.8737510    1.1452310  
C     2.4524390    4.9748420   -0.6117570  
O     2.9003040    5.9779840   -0.0379510  
C     3.0330920    4.4595620   -1.8673920  
H     3.5411120    2.7694360   -4.3421610  
H     1.4905950    5.6367930    1.2641240  
H     3.8817190    4.9972970   -2.2798740  
H     1.6948300    0.8046600   -4.3452220  
C     1.3194050   -2.8925450   -0.1905060  
C     2.2872620   -3.7888960   -0.5810610  
C     3.4733710   -3.4098890    0.1251570  
C     3.0563130   -2.2150270    0.9421390  
N     1.8033730   -1.9195150    0.7547970  
C     3.9825570   -1.5308920    1.8047120  
C     5.2502090   -2.0033210    1.8544010  
O     6.2245730   -1.4778420    2.6048590  
C     5.7029630   -3.2058850    1.0425760  
O     6.8854810   -3.5376160    1.1751610  
C     4.7500580   -3.8817370    0.1787190  
H     2.1838540   -4.6104570   -1.2758310  
H     3.6598710   -0.6731290    2.3841390  
H     7.0118040   -2.0427790    2.4189940  
H     5.1041990   -4.7374890   -0.3873180  
