60


C    -0.2671220    0.2807480   -0.4751810  
C    -1.6346570    0.0763990   -0.3515270  
C    -2.2665890    1.3469390   -0.4014410  
C    -1.2345410    2.3154530   -0.5672890  
N    -0.0325240    1.6471480   -0.5804310  
C    -1.4805310    3.6856930   -0.6792380  
C    -2.8016940    4.1038830   -0.6069320  
O    -3.0920340    5.4297490   -0.6699710  
C    -3.8553210    3.1677720   -0.4575430  
O    -5.0939730    3.7519670   -0.3756450  
C    -3.6317040    1.7833450   -0.3624740  
H    -2.1243620   -0.8698640   -0.1873360  
H     0.8507690    2.0472060   -0.8607170  
H    -0.6904390    4.4202750   -0.7951770  
H    -4.0551570    5.5199040   -0.5566940  
H    -5.7155100    3.1192680    0.0319000  
C     0.8138630   -0.6632320   -0.4753670  
C     0.7932780   -2.0224490   -0.6665740  
C     2.1381210   -2.5058120   -0.5513890  
C     2.9801300   -1.3106150   -0.2960490  
N     2.1362040   -0.2098900   -0.3085940  
C     4.3358670   -1.3341250   -0.1062540  
C     4.9442410   -2.6890250   -0.0077970  
O     6.0692430   -2.8747470    0.4209510  
C     4.0954890   -3.9403600   -0.4262150  
O     4.6641800   -5.0195280   -0.5215380  
C     2.6729550   -3.7574090   -0.6540990  
H    -0.0780280   -2.6171370   -0.9007740  
H     2.0756800   -4.6325960   -0.8905730  
H     2.3754530    0.5361500    0.3567000  
C     3.9230740    2.4278070    2.2676000  
C     5.1721260    2.9352510    2.1815470  
C     5.8918570    2.0336090    1.2908490  
C     4.8902200    0.9675580    0.9431880  
N     3.7400720    1.2317920    1.5054460  
C     5.2127760   -0.1632540    0.0874440  
C     6.4455810   -0.0967150   -0.5125800  
O     6.8632790   -0.9658540   -1.4334810  
C     7.4586210    0.9729910   -0.2045020  
O     8.5398640    0.9184730   -0.7862280  
C     7.1255980    2.0404780    0.7552510  
H     5.5683850    3.8238410    2.6523900  
H     7.7889040   -0.7113310   -1.6460750  
H     7.8838130    2.7911130    0.9552230  
H     3.0799390    2.8119870    2.8289240  
C    -4.7393370    0.8613230   -0.2202260  
C    -6.0646580    1.0191030   -0.5850530  
C    -6.7308770   -0.1942750   -0.1931910  
C    -5.6484250   -1.0208930    0.4339400  
N    -4.4981830   -0.4114600    0.4032610  
C    -5.9137900   -2.3249920    0.9795050  
C    -7.1810320   -2.7936540    0.8853240  
O    -7.5797620   -3.9859080    1.3395520  
C    -8.2939540   -1.9897630    0.2391910  
O    -9.4079180   -2.5155090    0.2075550  
C    -8.0005610   -0.6625420   -0.2954510  
H    -6.4983690    1.7992350   -1.1958340  
H    -5.1170220   -2.8987430    1.4394000  
H    -8.5398790   -4.0343120    1.1237450  
H    -8.8202300   -0.1126800   -0.7472410  
