62


C     2.5346100   -0.7520830    0.4159460  
C     3.8239660   -0.2956120    0.2125380  
C     3.7327270    1.1581580    0.1743160  
C     2.3719440    1.4954030    0.3695170  
N     1.6520920    0.3021100    0.5137930  
C     1.9096310    2.8139420    0.4211760  
C     2.8361200    3.8265010    0.2191080  
O     2.4379340    5.1299440    0.2548720  
C     4.1950590    3.5105930   -0.0227770  
O     5.0007710    4.6153270   -0.2178870  
C     4.6489400    2.2036960   -0.0472200  
H     0.8737780    3.0676180    0.6126280  
H     3.2284470    5.6763540    0.1033080  
H     5.9207330    4.3285970   -0.3171890  
H     5.7011280    1.9943540   -0.2005080  
H     2.1703710   -1.7652770    0.4487110  
C    -0.3077910   -0.6375920    1.6983190  
C     0.2834570    0.1614450    0.7744160  
C    -0.8263130    0.7343550   -0.0080210  
C    -2.0449820    0.1696100    0.6345320  
N    -1.7241530   -0.6337480    1.6123750  
C    -3.3998190    0.4918870    0.1692320  
C    -3.4505580    1.3163000   -0.9277970  
O    -4.6065540    1.7654210   -1.4771090  
C    -2.2514840    1.8376000   -1.6156670  
O    -2.4076800    2.5819210   -2.5918960  
C    -0.9029300    1.5016580   -1.1069200  
H    -4.3124280    2.3453270   -2.2152550  
H    -0.0494170    1.9162530   -1.6337620  
H     0.1763940   -1.2483780    2.4501010  
C    -4.5707610   -0.3666530    2.2166700  
C    -4.5594670   -0.0578910    0.8619820  
C    -5.8800940   -0.4112290    0.3614820  
C    -6.6191820   -0.9113930    1.4629160  
N    -5.7941790   -0.8553470    2.5742400  
C    -7.9306090   -1.3853860    1.3627180  
C    -8.5210530   -1.3670470    0.1084800  
O    -9.7996750   -1.8154240   -0.0527090  
C    -7.7976950   -0.8868710   -1.0117550  
O    -8.5087270   -0.9350410   -2.1972430  
C    -6.5002150   -0.4204670   -0.9041790  
H    -6.0459400   -1.1604140    3.5017780  
H    -8.4855710   -1.7646300    2.2147790  
H   -10.0216660   -1.7106820   -0.9941160  
H    -7.9751650   -0.5450340   -2.9053580  
H    -5.9808600   -0.0439770   -1.7779300  
H    -3.7737750   -0.2741010    2.9360190  
C     4.0354990   -4.3600650   -1.4254670  
C     5.3546920   -4.6392110   -1.3455380  
C     5.9584690   -3.4493400   -0.7540900  
C     4.8080710   -2.5145730   -0.5378390  
N     3.6948910   -3.0564640   -0.9379090  
C     4.9784230   -1.1740270    0.0413260  
C     6.2643860   -0.8654770    0.4027220  
O     6.6199170    0.2898660    1.0122370  
C     7.4194500   -1.7779420    0.1961560  
O     8.5335850   -1.3963880    0.5711330  
C     7.2126450   -3.1038950   -0.4172940  
H     5.8718880   -5.5387860   -1.6491790  
H     7.5887650    0.1972500    1.1596440  
H     8.0869670   -3.7338240   -0.5510870  
H     3.2384360   -4.9878570   -1.8051660  
