58


C    -0.3157680    1.6582090   -0.0270630  
C     1.0614870    1.6051260   -0.0758470  
C     1.3777090    0.2180430   -0.0698820  
C     0.0367890   -0.4723250   -0.0241710  
N    -0.9424930    0.3897230   -0.0058850  
C    -0.1002720   -1.9096510   -0.0043820  
C     1.0728490   -2.6042530   -0.0473360  
O     1.1410690   -3.9295630   -0.0719260  
C     2.4442220   -1.9425630   -0.0936030  
O     3.3986960   -2.7212390   -0.0767170  
C     2.5545450   -0.4853360   -0.1324110  
H     1.7714600    2.4155960   -0.0748560  
H     2.1089730   -4.1326200   -0.0747160  
C    -3.8790050   -1.9959830   -2.4345250  
C    -2.6374880   -1.6670950   -2.0071130  
C    -2.4403610   -2.4350930   -0.7815020  
C    -3.7203560   -3.1988510   -0.6275860  
N    -4.5499830   -2.9453190   -1.5974560  
C    -3.9368570   -4.1086290    0.4673170  
C    -2.9385470   -4.2550530    1.3669070  
O    -3.0024730   -5.0578510    2.4424050  
C    -1.6423400   -3.4983300    1.2493500  
O    -0.8201460   -3.6526150    2.1478040  
C    -1.4105890   -2.5855270    0.0874780  
H    -1.9359840   -0.9781810   -2.4531550  
H    -4.8761140   -4.6437380    0.5507660  
H    -2.1480410   -4.9338680    2.9107180  
H    -4.3991920   -1.6310540   -3.3121330  
C     4.6481020    2.3785570    2.5004900  
C     5.8608680    2.4753010    1.9109450  
C     5.7832460    1.6097260    0.7383880  
C     4.3896800    1.0533670    0.7863280  
N     3.7365130    1.5085890    1.8144720  
C     3.9001910    0.1151480   -0.2136710  
C     4.7750600   -0.2099990   -1.2089650  
O     4.4683370   -1.0210080   -2.2284510  
C     6.1753060    0.3399890   -1.2791560  
O     6.8760570   -0.0173330   -2.2237530  
C     6.6444840    1.2727510   -0.2398490  
H     6.7175590    3.0541370    2.2267360  
H     5.2859830   -1.0816820   -2.7717550  
H     7.6628530    1.6401000   -0.3220230  
H     4.3041690    2.8669930    3.4044090  
C    -0.5838280    4.0833720    0.0719830  
C    -1.5590750    5.0168090    0.0949850  
C    -2.8314700    4.3297590    0.0459320  
C    -2.5247740    2.8802620   -0.0075800  
N    -1.1104140    2.7791360    0.0108530  
C    -3.4743800    1.9184510   -0.0698710  
C    -4.8859150    2.3334130   -0.0802710  
O    -5.7982030    1.5266630   -0.1366810  
C    -5.2243930    3.8616580   -0.0182060  
O    -6.3909650    4.2188220   -0.0244320  
C    -4.1030210    4.8026270    0.0425390  
H    -1.4148950    6.0867770    0.1456500  
H    -3.2429320    0.8634380   -0.1121440  
H    -4.3317860    5.8632850    0.0812880  
H     0.4870010    4.2156270    0.1034100  
