60


C    -0.5740960    1.9651720    0.3279390  
C     0.7920350    1.6960170    0.2974180  
C     0.9723280    0.3312490   -0.0532530  
C    -0.3265260   -0.2113590   -0.2296920  
N    -1.2410760    0.8029430   -0.0344340  
C    -0.5948940   -1.5665490   -0.5139180  
C     0.5269560   -2.3920170   -0.6024440  
O     0.3778350   -3.7119110   -0.8795010  
C     1.8512150   -1.8932790   -0.4480870  
O     2.7889020   -2.8510270   -0.5963220  
C     2.1208880   -0.5212730   -0.2071680  
H     1.5512470    2.4327540    0.5041400  
H    -2.2168800    0.6289180    0.1582700  
H     1.2776210   -4.0913920   -0.9057310  
H     3.6906090   -2.4158750   -0.4454920  
C    -2.9037810   -1.4998160   -1.5339130  
C    -1.9653680   -2.0600550   -0.7115030  
C    -2.6137680   -3.2112500   -0.0788310  
C    -3.9962380   -3.2586200   -0.6134900  
N    -4.1039670   -2.1902880   -1.4854230  
C    -4.9274190   -4.1845830   -0.2722330  
C    -4.5589450   -5.2103800    0.6992220  
O    -5.3257990   -6.0856690    1.0695080  
C    -3.1047590   -5.1693470    1.2950300  
O    -2.7781020   -6.0091010    2.1177340  
C    -2.1885280   -4.1160650    0.8380490  
H    -5.9340120   -4.1978130   -0.6788160  
H    -1.1830370   -4.1135360    1.2421640  
H    -2.7959190   -0.6512510   -2.1974170  
H    -4.9160070   -1.9829820   -2.0460410  
C    -0.8281230    4.2542790    1.3783930  
C    -1.2685990    3.1789000    0.6529800  
C    -2.6460540    3.5604580    0.2496640  
C    -2.8432460    4.9027590    0.8560040  
N    -1.7722500    5.2942260    1.4995900  
C    -4.0701800    5.6301570    0.6922290  
C    -5.0530680    5.0696690   -0.0580730  
O    -6.2477260    5.6455150   -0.2849570  
C    -4.8742420    3.7377290   -0.7093910  
O    -5.8000180    3.2800820   -1.3815500  
C    -3.5979420    3.0092570   -0.5260180  
H    -4.1871480    6.6035810    1.1556640  
H    -6.7383810    5.0174310   -0.8574440  
H    -3.5048140    2.0633350   -1.0503650  
H     0.1331110    4.3644570    1.8653110  
C     3.4755190   -0.0454860   -0.1312040  
C     4.0019010    1.2285260   -0.0447710  
C     5.4210990    1.0853830   -0.0108250  
C     5.6592560   -0.3951820   -0.0883740  
N     4.5272760   -1.0354680   -0.1629450  
C     6.9752990   -0.9609370   -0.0811320  
C     8.0138230   -0.0918830   -0.0050930  
O     9.2950620   -0.4524860    0.0112880  
C     7.8147030    1.4183550    0.0704000  
O     8.8473710    2.0923350    0.1344870  
C     6.4693760    1.9561460    0.0630470  
H     3.4719550    2.1664260   -0.0465050  
H     7.1203730   -2.0340350   -0.1346430  
H     9.7940510    0.3984330    0.0708280  
H     6.3554180    3.0338830    0.1173130  
