58


C    -2.6778880    1.1303350    0.0061830  
C    -1.3564440    0.7641700    0.1016150  
C    -1.3380960   -0.7006250    0.0997770  
C    -2.7487710   -1.1337030   -0.0088030  
N    -3.5236000    0.0415240   -0.0377760  
C    -3.1541990   -2.4197440   -0.1027980  
C    -2.1365730   -3.4727620   -0.0544260  
O    -2.4135270   -4.6586990   -0.1302430  
C    -0.6380010   -3.0402630    0.1013330  
O     0.2270630   -3.9003080    0.1407480  
C    -0.3313600   -1.6069620    0.1752560  
H    -4.1917100   -2.7186160   -0.1816230  
H     0.7030830   -1.3039180    0.2731250  
H    -3.0987170    2.1243920   -0.0435040  
C    -0.2458190    1.6733650    0.1815480  
C    -0.2511620    3.0389620    0.3382340  
C     1.1224660    3.4383230    0.3438020  
C     1.8936540    2.1557100    0.1686820  
N     1.0852080    1.1410490    0.0820290  
C     3.3540020    2.1153590    0.1252750  
C     3.9714070    3.3416590    0.2557460  
O     5.2790380    3.5499320    0.2018410  
C     3.2030170    4.6423470    0.4418390  
O     3.8864350    5.6649890    0.5424680  
C     1.7524930    4.6319870    0.4810080  
H    -1.1032970    3.6928350    0.4619270  
H     5.3795430    4.5265760    0.3261410  
H     1.2423080    5.5804800    0.6144920  
C     4.0678790    0.8613590   -0.0400990  
C     3.5855500   -0.3412740   -0.4864960  
C     4.7025940   -1.2553910   -0.4430690  
C     5.8362620   -0.4256330    0.0769870  
N     5.4708030    0.7976630    0.3091740  
C     7.1497120   -0.9862200    0.2792070  
C     7.3265010   -2.2923670   -0.0256950  
O     8.4885210   -2.9504950    0.1035860  
C     6.2004830   -3.1532450   -0.5549210  
O     6.4674420   -4.3296730   -0.8032100  
C     4.8698540   -2.5648120   -0.7434760  
H     2.5829860   -0.5588950   -0.8147270  
H     7.9538020   -0.3658050    0.6589730  
H     8.2939580   -3.8684200   -0.1934250  
H     4.0806590   -3.2156910   -1.1073020  
C    -6.7593400   -1.6384270    2.3539730  
C    -7.8448710   -1.1803800    1.6916190  
C    -7.3157910   -0.3971650    0.5781460  
C    -5.8318000   -0.5194240    0.7307390  
N    -5.5124680   -1.2335690    1.7649600  
C    -4.9243180    0.1325590   -0.2018250  
C    -5.4786590    0.8980980   -1.1831230  
O    -4.7616210    1.5882410   -2.0821030  
C    -6.9653750    1.0359150   -1.3412690  
O    -7.3646430    1.7287640   -2.2752440  
C    -7.8670010    0.3415250   -0.4039260  
H    -8.8884560   -1.3355760    1.9267310  
H    -5.4261220    2.0179700   -2.6680080  
H    -8.9342800    0.4708840   -0.5542350  
H    -6.7254650   -2.2545480    3.2437050  
