62


C     0.3405280   -3.0979730    0.1683960  
C     1.1108890   -4.2436470    0.1293890  
C     2.4821220   -3.8374600    0.0638340  
C     2.5008210   -2.4215060    0.0459190  
N     1.1926640   -1.9967850    0.0913590  
C     3.6844760   -1.6418040    0.0185490  
C     4.8913140   -2.3709070    0.0111080  
O     6.0840330   -1.7388800   -0.0722860  
C     4.8810400   -3.7921520    0.0172930  
O     6.1471240   -4.3461030   -0.0158890  
C     3.7113820   -4.5268520    0.0348130  
H     0.7333380   -5.2567320    0.1164970  
H     0.9286700   -1.0600700    0.3635650  
H     6.7735840   -2.4269590   -0.0706380  
H     6.0809220   -5.3121810   -0.0158390  
H     3.7445690   -5.6145130    0.0332840  
C    -1.0862340   -2.8808690    0.2145820  
C    -2.1416040   -3.7157700    0.5117040  
C    -3.3480260   -2.9548420    0.3584380  
C    -2.9637320   -1.6420880   -0.0131920  
N    -1.5822960   -1.6002700   -0.0577520  
C    -3.8798410   -0.5893990   -0.2223370  
C    -5.2362800   -0.9364720   -0.1417400  
O    -6.1932460   -0.0251980   -0.4571470  
C    -5.6335530   -2.2466440    0.2257620  
O    -7.0052040   -2.4111370    0.2799620  
C    -4.7173900   -3.2460130    0.5006210  
H    -2.0626670   -4.7443730    0.8363990  
H    -1.1333430   -0.9913940   -0.7345270  
H    -7.0542470   -0.4263430   -0.2456530  
H    -7.2116860   -3.3134320    0.5645620  
H    -5.0551760   -4.2379830    0.7938970  
C     3.6199790   -0.1908530   -0.0196720  
C     2.6316890    0.5892580   -0.5759070  
C     3.0039330    1.9546350   -0.3129260  
C     4.2843400    1.8366420    0.4607910  
N     4.6435200    0.5980990    0.6222720  
C     4.9802650    3.0040090    0.9411280  
C     4.4460630    4.2131550    0.6522170  
O     4.9794430    5.3857940    1.0246580  
C     3.1606140    4.3605690   -0.1365460  
O     2.7608240    5.5109670   -0.3321720  
C     2.4650780    3.1642070   -0.6079970  
H     1.7958570    0.2651170   -1.1796550  
H     5.9003720    2.8959020    1.5044700  
H     4.3629010    6.0658690    0.6679560  
H     1.5425940    3.3035530   -1.1650560  
C    -4.9777740    3.0825980    1.9334560  
C    -4.2646610    4.0303750    1.2872200  
C    -3.5187580    3.3060350    0.2604800  
C    -3.9604610    1.8834110    0.4186550  
N    -4.7866800    1.7588200    1.4112850  
C    -3.4383060    0.8048550   -0.4280710  
C    -2.4565680    1.1805310   -1.2967650  
O    -1.8056600    0.3159650   -2.1204170  
C    -1.9629820    2.5820310   -1.4349190  
O    -1.0513670    2.7883820   -2.2427900  
C    -2.5602610    3.6519120   -0.6180060  
H    -4.2165900    5.0916920    1.4876370  
H    -1.1945030    0.8867030   -2.6411880  
H    -2.1713260    4.6572190   -0.7488030  
H    -5.6499240    3.2067320    2.7739260  
