60


C     3.3537310    1.2873920   -0.4422080  
C     3.8175560    0.0169120   -0.7434720  
C     2.6431360   -0.7654200   -1.0702990  
C     1.5211560    0.0857630   -0.9644210  
N     1.9881900    1.3282520   -0.5879940  
C     0.1832300   -0.3445370   -1.1542980  
C     0.0208320   -1.7071640   -1.4676450  
O    -1.2031780   -2.2103890   -1.7374930  
C     1.1450960   -2.5708930   -1.5654930  
O     0.8067740   -3.8727020   -1.8745770  
C     2.4377160   -2.1249040   -1.3735900  
H     1.3923590    2.1115170   -0.3643790  
H    -1.0891950   -3.1552830   -1.9457720  
H     1.6088020   -4.3994630   -2.0067310  
H     3.2734300   -2.8168010   -1.4374480  
H     3.9044660    2.1822510   -0.1921120  
C    -0.9338650    0.5782360   -1.0287120  
C    -0.9643270    1.9134790   -1.3488780  
C    -2.2847830    2.3754510   -0.9979820  
C    -2.9590400    1.1587600   -0.4321230  
N    -2.1747660    0.1226450   -0.4580390  
C    -4.3272280    1.1951560    0.0593730  
C    -4.9596130    2.4009880   -0.0310160  
O    -6.2003450    2.6195640    0.4123310  
C    -4.3073400    3.6341560   -0.6104530  
O    -4.9827680    4.6645400   -0.6301830  
C    -2.9303840    3.5604890   -1.0975440  
H    -0.2100830    2.4860300   -1.8719120  
H    -6.3924570    3.5595870    0.1910300  
H    -2.4939930    4.4659290   -1.5076290  
C    -3.4724060   -1.7429930    3.3068870  
C    -3.4182060   -0.7006250    2.4406200  
C    -4.5681530   -0.8012440    1.5670000  
C    -5.3116980   -2.0083170    2.0088700  
N    -4.5904260   -2.5361910    3.0601850  
C    -6.4767470   -2.4496580    1.4682360  
C    -7.0466340   -1.6951960    0.3640170  
O    -8.1000390   -1.9910710   -0.1800820  
C    -6.2622490   -0.4354490   -0.1578760  
O    -6.6885050    0.1404420   -1.1426510  
C    -5.0196760   -0.0151710    0.5423930  
H    -2.6455810    0.0495580    2.3895960  
H    -7.0086710   -3.3257190    1.8264770  
H    -2.7905780   -2.0099360    4.1034810  
H    -4.8627750   -3.3458870    3.5942700  
C     5.8001320   -1.3961680   -1.4873980  
C     5.1967120   -0.4200480   -0.7482270  
C     6.2960610    0.1133750    0.0948080  
C     7.4913820   -0.6712130   -0.3151570  
N     7.1884540   -1.5528020   -1.2288540  
C     8.7803070   -0.4489310    0.2843980  
C     8.8759290    0.4848890    1.2626430  
O    10.0191170    0.7960630    1.9013600  
C     7.6829010    1.2641200    1.7225930  
O     7.8396260    2.0938170    2.6187860  
C     6.3676540    1.0153730    1.0901420  
H     9.6371520   -1.0267920   -0.0443140  
H     9.7728400    1.4903700    2.5504230  
H     5.5231130    1.5765770    1.4778200  
H     5.3484670   -2.0170170   -2.2509470  
