58


C    -2.9169870   -3.3273410    0.4185410  
C    -1.7444310   -2.6604840    0.2536760  
C    -2.0617920   -1.2648500    0.0491980  
C    -3.5348620   -1.1699090    0.1241020  
N    -3.9914000   -2.4531930    0.3190720  
C    -4.2739540   -0.0188450   -0.0175810  
C    -3.5067660    1.2262480   -0.1484720  
O    -4.0154910    2.3327320   -0.1038740  
C    -1.9432350    1.1490880   -0.2835200  
O    -1.3491590    2.1957530   -0.4754080  
C    -1.2576200   -0.1643940   -0.1826090  
H    -0.7577880   -3.0940880    0.2941230  
H    -3.0921900   -4.3782420    0.6050330  
H    -4.9565700   -2.6881510    0.5003420  
C     0.8354050   -1.2898680   -1.0283070  
C     0.1752530   -0.2662990   -0.3992980  
C     1.2669090    0.6518740    0.0067570  
C     2.5111840   -0.0214050   -0.4617170  
N     2.2328850   -1.1459540   -1.0677310  
C     3.8516850    0.5270760   -0.2429800  
C     3.8798510    1.7198850    0.4341400  
O     5.0081660    2.4079430    0.7011730  
C     2.6548520    2.4035820    0.9284760  
O     2.7960930    3.4726380    1.5272580  
C     1.3235190    1.8120810    0.6823740  
H     4.7016540    3.2147780    1.1760900  
H     0.4618430    2.3650330    1.0339360  
H     0.3917780   -2.1474150   -1.5185130  
C     5.0707190   -1.0219220   -1.8254750  
C     5.0246850   -0.1785950   -0.7444620  
C     6.4081420   -0.2085110   -0.2158710  
C     7.1316680   -1.1226660   -1.1520770  
N     6.3419110   -1.5793950   -2.0864730  
C     8.5242990   -1.4417620   -0.9925750  
C     9.1777180   -0.9110760    0.0682740  
O    10.4708560   -1.1281840    0.3502980  
C     8.4730970   -0.0167490    1.0505900  
O     9.1276820    0.4177320    1.9965530  
C     7.0447800    0.3076940    0.8536180  
H     9.0104010   -2.0998870   -1.7041020  
H    10.6473210   -0.6183250    1.1718970  
H     6.5901600    0.9738840    1.5749910  
H     4.2439480   -1.2896610   -2.4665570  
C    -7.5802120   -1.5556350    2.6301180  
C    -6.3366200   -1.2787940    2.1570520  
C    -6.5578030   -0.5364270    0.9209510  
C    -8.0462860   -0.4543030    0.8178970  
N    -8.6343940   -1.0583250    1.8157470  
C    -8.6992630    0.2404960   -0.2591890  
C    -7.9174270    0.8245270   -1.1960780  
O    -8.3890740    1.4999600   -2.2543090  
C    -6.4150710    0.7164690   -1.1594480  
O    -5.8014850    1.1445210   -2.1294520  
C    -5.7378440    0.0328320   -0.0059360  
H    -5.3869150   -1.4997100    2.6236910  
H    -9.7818110    0.2871210   -0.2978440  
H    -7.5991880    1.7593300   -2.7775450  
H    -7.8379180   -2.0834520    3.5412290  
