58


C     0.4283990    1.5677300   -0.3066570  
C    -0.9355470    1.5161050   -0.1717980  
C    -1.2972060    0.1358410   -0.0452730  
C    -0.0298970   -0.6304920   -0.1388890  
N     0.9788890    0.2946720   -0.3454720  
C     0.0805900   -1.9954010   -0.0642760  
C    -1.1617250   -2.6838560    0.3865440  
O    -1.1567860   -3.8045470    0.8593310  
C    -2.5266920   -1.9323380    0.3005130  
O    -3.5498180   -2.5964440    0.3242740  
C    -2.5171940   -0.4699500    0.1534870  
H    -1.6077820    2.3584530   -0.1241150  
H     1.9417060    0.0276970   -0.1080820  
C     0.7646500    3.8703970   -1.1091370  
C     1.7339510    4.8100110   -1.1582100  
C     2.9081160    4.2677940   -0.5048760  
C     2.5359770    2.9078860   -0.0457800  
N     1.2157440    2.6982200   -0.4663370  
C     3.3475430    2.1081650    0.6880600  
C     4.7129080    2.5597250    0.9520340  
O     5.5338080    1.8627380    1.5314880  
C     5.1364030    3.9861980    0.4568490  
O     6.2639270    4.3867100    0.6911310  
C     4.1406780    4.7839100   -0.2680860  
H     1.6527020    5.7852960   -1.6160690  
H     3.0560420    1.1448820    1.0870440  
H     4.4278070    5.7825350   -0.5824300  
H    -0.2399180    3.8887590   -1.5075330  
C     4.4296380   -1.4412720    0.9518940  
C     4.9071990   -2.6753780    0.6843590  
C     3.7843100   -3.4201040    0.1325890  
C     2.6317040   -2.4547200    0.1758860  
N     3.0357070   -1.3022380    0.6366980  
C     1.2908330   -2.8133220   -0.2660090  
C     1.2051660   -4.0319790   -0.8950160  
O     0.1046750   -4.4705500   -1.5020250  
C     2.3518630   -5.0087090   -0.9759940  
O     2.1393070   -6.0801590   -1.5380910  
C     3.6574960   -4.6472150   -0.4052970  
H     5.9142470   -3.0434100    0.8203660  
H     0.3115590   -5.3813480   -1.8131010  
H     4.4593190   -5.3750210   -0.4789580  
H     4.9546210   -0.5785400    1.3469120  
C    -4.6990750    2.3970580   -2.5376320  
C    -3.7409430    1.5697790   -2.0510020  
C    -4.2538370    1.1078700   -0.7660310  
C    -5.5837300    1.7805940   -0.6504300  
N    -5.8352320    2.5340370   -1.6857050  
C    -6.4528350    1.5617570    0.4759700  
C    -6.0263490    0.7190250    1.4441390  
O    -6.7254850    0.4289190    2.5523820  
C    -4.6749140    0.0563700    1.3845560  
O    -4.3198800   -0.5768740    2.3720340  
C    -3.7958960    0.2491590    0.1842560  
H    -2.8065010    1.2856890   -2.5127500  
H    -7.4135290    2.0620280    0.5260600  
H    -6.1479710   -0.1668230    3.0786050  
H    -4.6955330    2.9347890   -3.4788820  
