58


C     2.0197480   -0.3119900    0.3915120  
C     1.1327230    0.7051460    0.2164450  
C     1.8893570    1.9021880   -0.1093650  
C     3.3117270    1.4968770   -0.0966360  
N     3.3360990    0.1256590    0.2216400  
C     4.3276250    2.3297540   -0.4179950  
C     4.0144670    3.7247100   -0.7496610  
O     4.8763570    4.5377120   -1.0363540  
C     2.5121990    4.1744320   -0.7392680  
O     2.2307740    5.3293070   -1.0115970  
C     1.4989510    3.1662500   -0.4121620  
H     5.3695590    2.0354070   -0.4292820  
H     0.4568990    3.4676610   -0.4470530  
H     1.8317900   -1.3432470    0.6547400  
C    -1.0404020    1.4631220    1.1558770  
C    -2.3537650    1.1395990    1.0848200  
C    -2.4812040    0.0263130    0.1642970  
C    -1.1099860   -0.2805410   -0.3009700  
N    -0.2643360    0.6359280    0.3288730  
C    -0.7902780   -1.2806330   -1.1605110  
C    -1.8639000   -2.1238450   -1.6707460  
O    -1.6699380   -3.0665240   -2.4218690  
C    -3.3348010   -1.7874000   -1.2422040  
O    -4.2497030   -2.3813880   -1.7791590  
C    -3.5661920   -0.6978830   -0.2507720  
H    -3.1550170    1.6057170    1.6383340  
H     0.2233570   -1.4941010   -1.4801190  
H    -0.5467420    2.2191340    1.7514170  
C    -6.1895460    2.8529500   -0.5596020  
C    -7.3059910    2.3556550    0.0293290  
C    -7.0120400    0.9954370    0.4325070  
C    -5.6073190    0.7401190    0.0279850  
N    -5.1612350    1.9128340   -0.5489590  
C    -4.9469560   -0.4454700    0.1901320  
C    -5.6875470   -1.5319250    0.8685020  
O    -5.1662790   -2.5918810    1.1662390  
C    -7.1838310   -1.2850960    1.2786200  
O    -7.8074380   -2.1982870    1.7945180  
C    -7.7641550    0.0349370    1.0325920  
H    -8.2439090    2.8728600    0.1691430  
H    -8.7972830    0.1955780    1.3250230  
H    -6.0184960    3.8279190   -0.9965530  
H    -4.2730970    2.0137270   -1.0152200  
C     4.3194430   -3.8499600   -1.4496760  
C     3.6549890   -2.6907040   -1.2165510  
C     4.5112550   -1.9436490   -0.3039560  
C     5.6833460   -2.8431620   -0.0851380  
N     5.5651260   -3.9519090   -0.7587600  
C     6.7898490   -2.4706860    0.7589000  
C     6.7440260   -1.2657290    1.3709350  
O     7.7096600   -0.7931450    2.1757540  
C     5.5732370   -0.3393590    1.2098530  
O     5.5635940    0.6970740    1.8649230  
C     4.4518400   -0.7261430    0.2941290  
H     2.7149370   -2.3724560   -1.6438810  
H     7.6256480   -3.1497010    0.8839020  
H     7.3899120    0.0705270    2.5125500  
H     4.0154380   -4.6694470   -2.0895320  
