62


C     0.7833270   -2.4441900   -0.1852390  
C     1.3288480   -3.7253950   -0.2222730  
C     2.7446490   -3.5891510   -0.2141740  
C     3.0265910   -2.1939350   -0.1696610  
N     1.8318900   -1.5386120   -0.1490560  
C     4.3407880   -1.6471630   -0.1537040  
C     5.3779730   -2.6022240   -0.1892120  
O     6.6758480   -2.2061390   -0.1801530  
C     5.1076680   -3.9952690   -0.2289570  
O     6.2521890   -4.7686240   -0.2539850  
C     3.8220780   -4.4989930   -0.2391310  
H     0.7660240   -4.6484750   -0.2262430  
H     1.8152400   -0.5245720   -0.1800020  
H     7.2227770   -3.0128600   -0.2014250  
H     6.0153770   -5.7073620   -0.2785600  
H     3.6502960   -5.5727340   -0.2707640  
C    -1.7171330   -2.7231640   -0.4749970  
C    -0.5871440   -2.0109650   -0.1799270  
C    -1.0952970   -0.6458890    0.1224640  
C    -2.5661630   -0.7541610   -0.0485310  
N    -2.9035220   -1.9694720   -0.3932310  
C    -3.4611850    0.3862780    0.1337260  
C    -2.8359210    1.5669570    0.4304070  
O    -3.5079270    2.7484380    0.5894090  
C    -1.3831120    1.7041210    0.6238600  
O    -0.9213450    2.8219660    0.8936340  
C    -0.5211920    0.5137570    0.4897260  
H    -2.8041200    3.4036230    0.8032420  
H     0.5341090    0.6683700    0.6883510  
H    -1.7815930   -3.7618470   -0.7743550  
C    -6.5633800   -2.4316170    1.8161030  
C    -5.3905530   -1.7839400    1.5330660  
C    -5.6890830   -0.7499510    0.5828240  
C    -7.0866550   -0.8175470    0.3358510  
N    -7.5900980   -1.8569410    1.0894170  
C    -7.7616320    0.0652090   -0.5139280  
C    -7.0084830    1.0631650   -1.1092480  
O    -7.5996810    1.9698860   -1.9366740  
C    -5.6139320    1.1739730   -0.8698550  
O    -5.0118160    2.2067780   -1.5615940  
C    -4.9219450    0.2671320   -0.0554980  
H    -4.4220130   -2.0314720    1.9393490  
H    -8.5606860   -2.1230980    1.1349300  
H    -8.8290950    0.0051490   -0.7010920  
H    -6.8820380    2.5709650   -2.2141210  
H    -4.4631070    2.7154080   -0.9270200  
H    -6.7568500   -3.2668550    2.4743280  
C     4.5799010   -0.2206860   -0.0919820  
C     5.7536440    0.4944430   -0.0893980  
C     5.3836730    1.8773010    0.0048150  
C     3.8819160    1.8682730    0.0570550  
N     3.4217440    0.6540970   -0.0068830  
C     3.1137630    3.0797200    0.1687040  
C     3.8052800    4.2437210    0.2122110  
O     3.2435470    5.4507470    0.3155260  
C     5.3243490    4.2911940    0.1501360  
O     5.8384380    5.4105740    0.1966050  
C     6.0749780    3.0464310    0.0468770  
H     6.7541590    0.0994780   -0.1444130  
H     2.0302100    3.0524360    0.2292990  
H     3.9999090    6.0830990    0.3223460  
H     7.1575750    3.1136490    0.0096040  
