64


C     2.0108060   -0.4751150   -0.0822850  
C     0.7612790   -0.8480160    0.3668170  
C     0.3257110   -1.9724880   -0.4148090  
C     1.3785170   -2.2654030   -1.3244450  
N     2.3933430   -1.3599920   -1.0862120  
C     1.3290090   -3.3194460   -2.2401040  
C     0.1928600   -4.1132840   -2.2211010  
O     0.0783740   -5.1690260   -3.0747240  
C    -0.8731430   -3.8517930   -1.3213060  
O    -1.9423860   -4.7179010   -1.4562160  
C    -0.8470660   -2.7793110   -0.4241820  
H     0.2461850   -0.3938710    1.2006680  
H     3.1802950   -1.2022890   -1.6974270  
H     2.1351560   -3.5400030   -2.9324460  
H    -0.7835730   -5.5771370   -2.8658330  
H    -2.1933380   -5.0196850   -0.5587600  
C     2.4706030    1.9024910    0.6263200  
C     2.8781940    0.6223480    0.3155210  
C     4.3188630    0.6075080    0.4546900  
C     4.7137960    1.9102790    0.8517190  
N     3.5658950    2.6720620    0.9555110  
C     6.0497190    2.2564280    1.0898380  
C     7.0061500    1.2662360    0.9289320  
O     8.3232870    1.5500750    1.1469860  
C     6.6281470   -0.0484550    0.5466680  
O     7.6917940   -0.9255160    0.4403620  
C     5.3081270   -0.3865440    0.3119070  
H     3.5358560    3.6514060    1.1922420  
H     6.3550340    3.2519620    1.3956190  
H     8.8213580    0.7263370    1.0069750  
H     7.3585830   -1.8177730    0.2643640  
H     5.0412190   -1.4061410    0.0417720  
H     1.4770400    2.3255140    0.6024160  
C    -3.0576460    1.0184250    0.1979630  
C    -3.9969990    0.5227690    1.1073570  
C    -3.7164650   -0.8472170    1.3136080  
C    -2.5804300   -1.1681770    0.5091080  
N    -2.2147510   -0.0283450   -0.1533790  
C    -2.0113840   -2.4650430    0.4426570  
C    -2.6591870   -3.4175810    1.2260210  
O    -2.2111260   -4.7190910    1.2288460  
C    -3.7907360   -3.1179630    2.0384390  
O    -4.2657350   -4.2131290    2.7319140  
C    -4.3245420   -1.8533340    2.0989730  
H    -4.7603390    1.1041330    1.6015280  
H    -1.3801230    0.0960630   -0.7126620  
H    -2.7688510   -5.2151670    1.8563660  
H    -5.0050650   -3.9483840    3.2991060  
H    -5.1918310   -1.6380480    2.7183680  
C    -5.6061640    4.7166090    0.0518120  
C    -5.2467190    3.4113130    0.1702160  
C    -3.8438020    3.3593690   -0.2202930  
C    -3.5242150    4.7607270   -0.5604970  
N    -4.5488760    5.5571940   -0.3872180  
C    -2.2202630    5.1647150   -1.0271170  
C    -1.2828830    4.2051480   -1.1868600  
O    -0.0316380    4.4333930   -1.6428670  
C    -1.5742660    2.7726660   -0.8851910  
O    -0.6758170    1.9630080   -1.1396770  
C    -2.8945370    2.3671080   -0.2888540  
H    -5.8802920    2.5787640    0.4372720  
H    -2.0266640    6.2065260   -1.2580660  
H     0.3863030    3.5491640   -1.7156550  
H    -6.5782510    5.1578860    0.2371090  
