58


C     0.5372540    1.6083370   -0.1013660  
C    -0.8313560    1.5596080   -0.1973850  
C    -1.2362300    0.1836650   -0.1417630  
C    -0.0044020   -0.5957370    0.0234590  
N     1.0337520    0.3104570    0.0702230  
C     0.0967310   -1.9727270    0.0685700  
C    -1.1856510   -2.6991130    0.0973560  
O    -1.2923610   -3.8879840    0.3248060  
C    -2.5250380   -1.8892580   -0.0830600  
O    -3.5587740   -2.5330970   -0.1135670  
C    -2.4930850   -0.4084900   -0.2230750  
H    -1.4825640    2.4195810   -0.2257870  
H     1.9858330    0.0306980   -0.1371050  
C     1.4189640    2.7459270   -0.0924690  
C     1.2198730    3.9998320   -0.6072840  
C     2.4049120    4.7775310   -0.3537130  
C     3.3390080    3.8809770    0.3679180  
N     2.7160520    2.6370100    0.4430360  
C     4.5498590    4.2586770    0.8406380  
C     4.9917200    5.6339060    0.5990560  
O     6.0669560    6.0605350    0.9865660  
C     4.0369910    6.5885400   -0.2058370  
O     4.3952230    7.7341140   -0.4289390  
C     2.7423280    6.0635820   -0.6476500  
H     0.3503530    4.3246870   -1.1606940  
H     5.2193190    3.5933550    1.3772390  
H     2.0814420    6.7365490   -1.1852710  
H     2.9251850    1.9915550    1.1931700  
C     1.3609930   -2.6719820    0.1231520  
C     2.5495170   -2.2659160    0.6939090  
C     3.4939120   -3.3230880    0.4286090  
C     2.7078760   -4.3202010   -0.3682550  
N     1.4741200   -3.9442820   -0.5366010  
C     3.3101910   -5.5312100   -0.8622580  
C     4.6100510   -5.7553080   -0.5566410  
O     5.2985670   -6.8390710   -0.9371050  
C     5.4227510   -4.7778590    0.2638390  
O     6.5975060   -5.0733410    0.4861610  
C     4.7941670   -3.5427500    0.7405090  
H     2.7178570   -1.4144310    1.3393160  
H     2.7221790   -6.2320690   -1.4439470  
H     6.2013180   -6.7156950   -0.5654540  
H     5.4121200   -2.8610350    1.3169220  
C    -3.7803830    1.4656340   -1.3077930  
C    -3.6948510    0.3301800   -0.5257020  
C    -5.1009990    0.1042550   -0.0991010  
C    -5.8497330    1.2357280   -0.7167930  
N    -5.0606010    2.0061910   -1.4312520  
C    -7.2580500    1.4221970   -0.5329000  
C    -7.9156490    0.5302280    0.2500150  
O    -9.2254520    0.5807870    0.5152320  
C    -7.1927310   -0.6159340    0.9038790  
O    -7.8498470   -1.3746810    1.6111290  
C    -5.7391670   -0.7898890    0.6800900  
H    -7.7593660    2.2586020   -1.0067370  
H    -9.4074930   -0.1848590    1.1046860  
H    -5.2700640   -1.6505590    1.1386840  
H    -2.9725550    1.9238380   -1.8648460  
