62


C     2.1239970   -0.5592730    0.2059790  
C     1.2623770    0.5154180    0.2842710  
C     2.0868820    1.7037420    0.1198920  
C     3.4263600    1.2721980   -0.0205960  
N     3.4290190   -0.1328450    0.0341950  
C     4.4878490    2.1557500   -0.2336820  
C     4.1949550    3.5118930   -0.2713960  
O     5.1958320    4.4161090   -0.4780960  
C     2.8647290    3.9641690   -0.1046710  
O     2.7227340    5.3370250   -0.1650380  
C     1.8168010    3.0821210    0.0895600  
H     5.5116050    1.8302260   -0.3562190  
H     4.7828640    5.2968140   -0.5011020  
H     1.7800310    5.5598400   -0.1906650  
H     0.7991500    3.4485720    0.1650620  
H     1.9023470   -1.6135710    0.1994740  
C    -1.1281850   -2.2407250    2.8103710  
C    -0.1253580   -1.5375890    2.2209270  
C    -0.7318000   -0.5521320    1.3502770  
C    -2.1881750   -0.7245990    1.5013120  
N    -2.3634110   -1.7508250    2.4122430  
C    -3.1759060   -0.0097630    0.8648130  
C    -2.6900060    1.0289020   -0.0462430  
O    -3.4213060    1.7708430   -0.6864780  
C    -1.1323350    1.2464000   -0.2237040  
O    -0.7931560    2.1207230   -1.0052610  
C    -0.1750740    0.3949760    0.5129560  
H     0.9311400   -1.6676820    2.3952930  
H    -1.0725050   -3.0558380    3.5196950  
H    -3.2579710   -2.1932380    2.5657620  
C    -5.1736190   -0.4936570    2.3423880  
C    -4.6056190   -0.2257730    1.1064100  
C    -5.7002930   -0.2395380    0.1540460  
C    -6.8833350   -0.5303630    0.8776730  
N    -6.5306640   -0.6787520    2.2058820  
C    -8.1418760   -0.6450520    0.2731160  
C    -8.2074930   -0.4575580   -1.0976290  
O    -9.4054700   -0.5448390   -1.7437110  
C    -7.0323310   -0.1671680   -1.8416290  
O    -7.2575500   -0.0031270   -3.1959800  
C    -5.7940000   -0.0619120   -1.2407570  
H    -7.1766450   -0.8205750    2.9665350  
H    -9.0463420   -0.8635540    0.8316430  
H    -9.2369090   -0.3473410   -2.6816370  
H    -6.4549300    0.3439780   -3.6133840  
H    -4.9175170    0.1928660   -1.8270140  
H    -4.7158930   -0.4950980    3.3219490  
C     3.8326120   -3.6677630   -2.4435850  
C     5.1229330   -4.0066450   -2.2229330  
C     5.6202550   -3.0198440   -1.2689150  
C     4.4444610   -2.1306350   -1.0235340  
N     3.4064890   -2.5159100   -1.7049770  
C     4.5327750   -0.9878570   -0.1206390  
C     5.7183050   -0.8082150    0.5365790  
O     5.9305690    0.1601750    1.4468950  
C     6.8977240   -1.6866970    0.2998320  
O     7.9243370   -1.4519810    0.9432140  
C     6.7970440   -2.8129830   -0.6490960  
H     5.6855450   -4.8233990   -2.6533170  
H     6.8647000    0.0379170    1.7302500  
H     7.6824680   -3.4265250   -0.7851940  
H     3.1129960   -4.1534560   -3.0912450  
