64


C     2.0834000   -0.8119800    0.4407460  
C     1.1169360    0.1580580    0.3341720  
C     1.7804990    1.4021460    0.0459430  
C     3.1655530    1.1088990   -0.0203910  
N     3.3335330   -0.2484290    0.2391010  
C     4.1275640    2.0910520   -0.3080930  
C     3.6764840    3.3873880   -0.5135250  
O     4.5673770    4.3756340   -0.8038320  
C     2.2915990    3.6960210   -0.4320980  
O     2.0058560    5.0279530   -0.6505270  
C     1.3456250    2.7249480   -0.1612750  
H     5.1828320    1.8647790   -0.4183120  
H     4.0584100    5.1937620   -0.9399880  
H     1.0459410    5.1543140   -0.6866260  
H     0.2891270    2.9769620   -0.1140900  
H     1.9886730   -1.8654080    0.6584810  
C     4.9086750   -3.7699740   -1.9630790  
C     4.1215580   -2.7298200   -1.5422340  
C     4.8375410   -2.0640880   -0.4909020  
C     6.0682030   -2.7513490   -0.3184920  
N     6.0800690   -3.7884720   -1.2284310  
C     7.0376770   -2.3588090    0.6123300  
C     6.7572330   -1.2502800    1.3954280  
O     7.6634260   -0.8204220    2.3186890  
C     5.5258460   -0.5544570    1.2670840  
O     5.3722210    0.4877800    2.1551880  
C     4.5701600   -0.9497700    0.3352050  
H     3.1517480   -2.4646090   -1.9379440  
H     6.8343200   -4.4457390   -1.3498950  
H     7.9841910   -2.8755010    0.7325790  
H     7.2873830   -0.0241830    2.7343820  
H     4.6999690    1.1106510    1.8302090  
H     4.7335400   -4.5067500   -2.7341860  
C    -0.8554610   -0.5473300    1.6777140  
C    -2.2129830   -0.6293380    1.5163870  
C    -2.5164170   -0.1404660    0.2016900  
C    -1.2743850    0.2081840   -0.3966190  
N    -0.2675900   -0.0344260    0.5305070  
C    -1.1623280    0.6603630   -1.7128120  
C    -2.3353530    0.7525750   -2.4495050  
O    -2.2954010    1.1811880   -3.7398340  
C    -3.5896390    0.4020550   -1.8905720  
O    -4.6491910    0.5784260   -2.7564200  
C    -3.7194790   -0.0154040   -0.5588040  
H    -2.9118750   -0.9827560    2.2597830  
H    -0.2103660    0.9083780   -2.1682070  
H    -3.2161720    1.1292840   -4.0611660  
H    -5.1981330   -0.2320640   -2.7033540  
H    -0.2351660   -0.7942630    2.5274290  
C    -5.7155160    1.1389090    3.2758350  
C    -4.8420280    1.0982150    2.2434770  
C    -5.4138460    0.1475200    1.2899820  
C    -6.6746930   -0.2930670    1.9453510  
N    -6.8470170    0.2763680    3.1047550  
C    -7.5661240   -1.2416020    1.3259740  
C    -7.2396640   -1.6908490    0.0944200  
O    -7.9946250   -2.5507170   -0.6164280  
C    -6.0086410   -1.2134910   -0.6143530  
O    -5.8664590   -1.6119670   -1.7790770  
C    -5.0246500   -0.3129660    0.0652310  
H    -3.9212540    1.6485800    2.1230630  
H    -8.4704930   -1.5543890    1.8356760  
H    -7.5349080   -2.6625170   -1.4749040  
H    -5.6564530    1.7354240    4.1781840  
