60


C     2.4327360    1.4932300    0.4495980  
C     1.3163980    0.6989650    0.4460470  
C     1.7444880   -0.6517680    0.2365610  
C     3.1512120   -0.6135750    0.1201270  
N     3.5596700    0.7160770    0.2382530  
C     3.9419630   -1.7632450   -0.0042690  
C     3.3014620   -2.9881390   -0.0280390  
O     4.0265020   -4.1339060   -0.1425460  
C     1.8891060   -3.0833050    0.0650980  
O     1.4308340   -4.3467450    0.0205440  
C     1.0652810   -1.9191570    0.1772650  
H     0.3144550    1.0618100    0.6073540  
H     5.0205040   -1.7243690   -0.0874090  
H     3.3853570   -4.8683570   -0.1409800  
H     0.4218640   -4.3046680    0.1158090  
H     2.5290280    2.5596180    0.5832500  
C    -0.3580830   -2.0543960    0.2070280  
C    -1.3781230   -1.0998570    0.1753380  
C    -2.6015620   -1.7995290    0.2128950  
C    -2.2063500   -3.2457860    0.2546250  
N    -0.9048010   -3.3737030    0.2532390  
C    -3.1577850   -4.3069120    0.2700430  
C    -4.4657640   -3.9478840    0.2287930  
O    -5.4731270   -4.8121260    0.2378010  
C    -4.9335740   -2.4923110    0.2012100  
O    -6.1552700   -2.3549130    0.2598560  
C    -3.9408860   -1.4112740    0.1692690  
H    -1.2652110   -0.0365220    0.0647960  
H    -2.8406850   -5.3430290    0.3062640  
H    -6.2841540   -4.2426160    0.2362420  
C    -4.3694290   -0.0330680    0.1175660  
C    -3.7266860    1.0765680    0.6196480  
C    -4.5587220    2.2013300    0.2867180  
C    -5.7063870    1.5964990   -0.4657220  
N    -5.6017420    0.3049710   -0.5552830  
C    -6.7664690    2.4130040   -1.0020350  
C    -6.7034650    3.7467160   -0.7816360  
O    -7.6179980    4.6291330   -1.2102050  
C    -5.5673430    4.3827280   -0.0110720  
O    -5.6065930    5.6074770    0.1306590  
C    -4.4944880    3.5381410    0.5121940  
H    -2.8250060    1.1010460    1.2136570  
H    -7.5817720    1.9540600   -1.5499720  
H    -7.2926990    5.5029200   -0.8941660  
H    -3.6910340    4.0296730    1.0522400  
C     6.6582360    0.2692700   -2.7953310  
C     7.6622740    1.0007590   -2.2632850  
C     7.1387240    1.5078720   -0.9972930  
C     5.7534030    0.9425910   -0.9295980  
N     5.4783620    0.2279290   -1.9771210  
C     4.8777520    1.2164410    0.2019400  
C     5.3606640    2.0409810    1.1741730  
O     4.6594320    2.4104710    2.2572540  
C     6.7439930    2.6196780    1.1147390  
O     7.0956320    3.3327800    2.0529350  
C     7.6211280    2.3103030   -0.0306110  
H     8.6433360    1.1934330   -2.6743230  
H     5.2705060    2.9803310    2.7767570  
H     8.6122740    2.7531310   -0.0310410  
H     6.6452810   -0.2699740   -3.7343930  
