58


C     0.8491530   -0.9710980   -0.0692250  
C    -0.4396930   -1.4495600   -0.1396860  
C    -1.3284210   -0.3257960   -0.0914270  
C    -0.4655900    0.8791930   -0.0015160  
N     0.8294000    0.4189600    0.0055910  
C    -0.9097010    2.1720100    0.0633780  
C    -2.3679700    2.3650130   -0.0085760  
O    -2.8863340    3.4621070   -0.1189910  
C    -3.3031210    1.1070630   -0.0014360  
O    -4.5002830    1.2846870    0.1345730  
C    -2.7019170   -0.2443680   -0.1270570  
H    -0.7310310   -2.4865820   -0.1802820  
H     1.6715370    0.9716710    0.0776410  
C     2.4550050    3.7414300   -2.4223220  
C     1.4294690    2.9990890   -1.9289190  
C     0.9690320    3.6477750   -0.7168430  
C     1.8189090    4.8518820   -0.5511780  
N     2.7122720    4.8359000   -1.6065600  
C     1.6868260    5.7713480    0.4393530  
C     0.6391970    5.5669370    1.4293520  
O     0.4110130    6.3519590    2.3367140  
C    -0.2252360    4.2587080    1.3311380  
O    -0.9859990    3.9957430    2.2433760  
C    -0.0359060    3.3495180    0.1659650  
H     1.0223510    2.1023340   -2.3703990  
H     2.3073710    6.6586590    0.5183970  
H     3.0471270    3.5841050   -3.3141810  
H     3.3774400    5.5667590   -1.8047140  
C    -3.0884400   -3.8907970    2.3567930  
C    -4.1848350   -4.4769880    1.8257910  
C    -4.5796700   -3.6114130    0.7196080  
C    -3.5632250   -2.5056070    0.7376450  
N    -2.6976110   -2.6821030    1.6923180  
C    -3.6112170   -1.3983130   -0.2087580  
C    -4.6134510   -1.4517040   -1.1374140  
O    -4.7594620   -0.5534350   -2.1162600  
C    -5.6337870   -2.5569260   -1.1808860  
O    -6.4866420   -2.5071480   -2.0652210  
C    -5.5736870   -3.6427490   -0.1873210  
H    -4.6817280   -5.3839000    2.1409530  
H    -5.5697950   -0.8219890   -2.6042870  
H    -6.3354370   -4.4143290   -0.2441630  
H    -2.4969510   -4.2222140    3.2019610  
C     2.1097840   -1.6594390   -0.0622910  
C     2.3785380   -3.0021360   -0.1090210  
C     3.8152510   -3.1072880   -0.0695150  
C     4.2926670   -1.6844110    0.0021900  
N     3.2960920   -0.8477180    0.0052180  
C     5.6933570   -1.3601460    0.0578190  
C     6.5746990   -2.3882060    0.0434890  
O     7.9029230   -2.2416310    0.0892800  
C     6.1250060   -3.8340790   -0.0281840  
O     7.0075310   -4.6917620   -0.0367720  
C     4.6932710   -4.1401650   -0.0837180  
H     1.6721750   -3.8187300   -0.1579120  
H     6.0136210   -0.3257760    0.1117920  
H     8.2670140   -3.1559740    0.0658360  
H     4.4074800   -5.1861420   -0.1335940  
