60


C    -1.2550220   -1.0157630   -0.2820970  
C     0.0106740   -1.5337770   -0.4534040  
C     0.9037180   -0.4076680   -0.4327850  
C     0.0104110    0.7629100   -0.2398100  
N    -1.2378460    0.4093660   -0.1524640  
C     0.5161870    2.1269290   -0.1495810  
C     1.8674650    2.2699980   -0.2123380  
O     2.4915380    3.4493130   -0.0832620  
C     2.8076850    1.1174020   -0.4172760  
O     4.0001480    1.3853290   -0.5359960  
C     2.2650810   -0.2698150   -0.5118690  
H     0.2886450   -2.5734460   -0.5474220  
H     3.4445220    3.2660190   -0.2357530  
C    -2.4972540   -1.7367050   -0.2146220  
C    -2.6899090   -3.0929840   -0.3475300  
C    -4.1055870   -3.3046060   -0.1975790  
C    -4.6586280   -1.9279200    0.0292210  
N    -3.7270540   -1.0231840    0.0184480  
C    -6.0695440   -1.7090070    0.2287220  
C    -6.8834210   -2.7900860    0.2038980  
O    -8.2122810   -2.7394130    0.3735160  
C    -6.3546200   -4.1883900   -0.0230380  
O    -7.1759910   -5.1061620   -0.0279690  
C    -4.9158160   -4.3909400   -0.2235820  
H    -1.9438280   -3.8538210   -0.5307270  
H    -6.4450070   -0.7048260    0.3905390  
H    -8.5170570   -3.6719960    0.3028840  
H    -4.5735190   -5.4088760   -0.3830210  
C    -2.6621760    3.4606440    2.7324570  
C    -1.7241740    2.7004640    2.1238610  
C    -1.3143340    3.4653920    0.9508720  
C    -2.1482460    4.7093500    1.0246140  
N    -2.9251190    4.7045860    2.0678460  
C    -2.0384440    5.7589010    0.0450400  
C    -1.1498270    5.5882830   -0.9590440  
O    -0.9509090    6.4730050   -1.9509350  
C    -0.2983530    4.3517470   -1.0687920  
O     0.4310230    4.2615090   -2.0524120  
C    -0.3861050    3.2878090   -0.0221650  
H    -1.3696270    1.7211910    2.4060250  
H    -2.6595760    6.6440020    0.1253950  
H    -0.2723530    6.0626090   -2.5307940  
H    -3.2178080    3.2357970    3.6350020  
C     2.8299030   -2.3185560   -1.7460350  
C     3.8292830   -3.2396110   -1.7793600  
C     4.8112340   -2.8503970   -0.7998050  
C     4.3632540   -1.6477940   -0.2042010  
N     3.1300330   -1.3186570   -0.8037600  
C     5.0530690   -1.0413820    0.8495130  
C     6.2338550   -1.6345340    1.2742050  
O     6.9426340   -1.0655400    2.2892390  
C     6.7091160   -2.8235200    0.6661760  
O     7.8927880   -3.2897070    1.1947950  
C     6.0088800   -3.4366610   -0.3590140  
H     3.8798730   -4.0925350   -2.4425500  
H     4.7270680   -0.1271600    1.3266890  
H     7.7329780   -1.6128580    2.4372670  
H     8.1704590   -4.0894550    0.7238110  
H     6.3723990   -4.3618060   -0.8010840  
H     1.9410030   -2.2225810   -2.3505030  
