60


C     3.0179260   -4.2605190    1.2955730  
C     1.7064040   -3.9111640    1.0704500  
C     1.7059940   -2.6214540    0.4494870  
C     3.0610470   -2.2382620    0.3212560  
N     3.8336210   -3.2597370    0.8311890  
C     3.5004990   -0.9876090   -0.1849940  
C     2.4788010   -0.0999440   -0.5375030  
O     2.7837700    1.1306770   -1.0376330  
C     1.1083010   -0.4438670   -0.4404830  
O     0.2904900    0.5465540   -0.8649630  
C     0.6727510   -1.7190060    0.0189730  
H     0.8580730   -4.5084990    1.3618760  
H     4.8339800   -3.2095540    0.9514870  
H     1.9307390    1.5597990   -1.2415560  
H    -0.6567910    0.2362310   -0.7352770  
H     3.4331710   -5.1477510    1.7514980  
C    -0.7203780   -2.0586430    0.0281530  
C    -1.3817420   -3.2409810    0.3075420  
C    -2.7741600   -2.9860970    0.1562870  
C    -2.8516130   -1.5463080   -0.2481420  
N    -1.6654980   -1.0205700   -0.3241180  
C    -4.1116630   -0.8889290   -0.5119720  
C    -5.2345130   -1.6516760   -0.3762400  
O    -6.4670580   -1.2033020   -0.5910950  
C    -5.1857170   -3.1087430    0.0543840  
O    -6.2851270   -3.6679050    0.1397650  
C    -3.9075220   -3.7349720    0.3050390  
H    -0.9511870   -4.1947070    0.5618860  
H    -7.0483900   -1.9814730   -0.3980850  
H    -3.9040620   -4.7783160    0.6017310  
C    -3.4369860    1.0237310   -1.9594990  
C    -3.6313310    2.3612380   -2.0523270  
C    -4.5099990    2.7478220   -0.9694680  
C    -4.8188760    1.5030740   -0.2230080  
N    -4.1422030    0.4735590   -0.8793390  
C    -5.5951470    1.4538750    0.8871650  
C    -6.1827960    2.6986210    1.3800810  
O    -6.8904090    2.7482930    2.3744130  
C    -5.8851900    4.0255800    0.5920080  
O    -6.3761500    5.0720700    0.9858460  
C    -5.0185690    3.9481590   -0.5860070  
H    -3.2111200    3.0185290   -2.7997730  
H    -5.8125440    0.5400620    1.4268720  
H    -4.8031790    4.8713050   -1.1155590  
H    -2.8486380    0.3681870   -2.5863080  
C     5.9061730   -1.5464000   -0.7417210  
C     4.9205680   -0.6856600   -0.3358140  
C     5.6514480    0.5713450   -0.0524670  
C     7.0744360    0.2416790   -0.3551100  
N     7.2063150   -0.9932340   -0.7632610  
C     8.1307610    1.2033110   -0.1931930  
C     7.8004830    2.4342150    0.2670470  
O     8.6797510    3.4256740    0.4717280  
C     6.3778090    2.7922040    0.5993250  
O     6.1554680    3.9264270    1.0166620  
C     5.3085500    1.7856530    0.4153330  
H     9.1526950    0.9290620   -0.4300250  
H     8.1500190    4.1837060    0.8038660  
H     4.2941700    2.0912750    0.6404630  
H     5.7770740   -2.5675210   -1.0830960  
