60


C     1.3869860    0.1158710   -0.3466020  
C     0.6250690    1.2566180   -0.2839180  
C     1.5432210    2.3448060    0.0317360  
C     2.8351380    1.7875200    0.1655410  
N     2.7245410    0.3953200   -0.0897730  
C     3.9512580    2.5529860    0.5114020  
C     3.7547550    3.9123840    0.7203360  
O     4.8148660    4.7012420    1.0482200  
C     2.4677280    4.4854130    0.5905200  
O     2.4257360    5.8432600    0.8233850  
C     1.3654880    3.7180550    0.2563540  
H     4.9352070    2.1181310    0.6065180  
H     4.4859140    5.6142810    1.1184020  
H     1.5556220    6.1885200    0.5727190  
H     0.3919670    4.1786640    0.1329210  
H     1.0857760   -0.8830530   -0.6174530  
C    -2.5596740   -1.5209700    1.0158870  
C    -1.3943600   -0.8510580    0.8542770  
C    -1.6499000    0.2843250   -0.0043170  
C    -3.0924250    0.2253480   -0.3318800  
N    -3.6077810   -0.8868880    0.3246480  
C    -3.7378960    1.1040590   -1.1524820  
C    -2.9770800    2.2148510   -1.6946100  
O    -3.4590210    3.0718030   -2.4207780  
C    -1.4559620    2.3382240   -1.3117440  
O    -0.8498930    3.3130550   -1.7218070  
C    -0.8227730    1.2712850   -0.4921200  
H    -0.4497620   -1.1070620    1.3084670  
H    -4.7705450    0.9908480   -1.4617590  
H    -2.7709040   -2.4151400    1.5816910  
C    -7.3975950    1.1977780    1.0202290  
C    -8.2409750    0.1556250    0.8182610  
C    -7.4299830   -1.0093250    0.5287420  
C    -6.0223780   -0.5426570    0.5729790  
N    -6.0659010    0.7917400    0.9093900  
C    -4.9424040   -1.3447180    0.3180980  
C    -5.1955250   -2.7704780    0.0521680  
O    -4.2962590   -3.5755080   -0.1274550  
C    -6.6865900   -3.2734050    0.0255420  
O    -6.8884410   -4.4561120   -0.1941110  
C    -7.7512840   -2.3066220    0.2767060  
H    -9.3192790    0.1796900    0.8751240  
H    -8.7758490   -2.6634440    0.2516360  
H    -7.6210490    2.2291700    1.2579730  
H    -5.2790820    1.4200910    0.8269420  
C     3.7087230   -0.5636100   -0.1126330  
C     3.5623770   -1.9170160   -0.3502940  
C     4.8809400   -2.4506140   -0.2632570  
C     5.7493080   -1.2570480    0.0464040  
N     5.0464990   -0.1607690    0.1316760  
C     7.1680250   -1.3736310    0.2159510  
C     7.7028020   -2.6123150    0.0858010  
O     8.9998500   -2.8905980    0.2132000  
C     6.8554510   -3.8424360   -0.2265690  
O     7.4734210   -4.9081260   -0.3167060  
C     5.4246180   -3.6951570   -0.3932850  
H     2.6602740   -2.4714540   -0.5595030  
H     7.7701330   -0.4996660    0.4372800  
H     9.0600110   -3.8653360    0.0623580  
H     4.8474850   -4.5867210   -0.6158520  
