62


C    -2.2900440   -0.5483560   -0.6126970  
C    -0.9452270   -0.2766340   -0.4055780  
C    -0.8431860    1.1675330   -0.2523770  
C    -2.1450320    1.6962680   -0.3621980  
N    -3.0231920    0.6172520   -0.5932700  
C    -2.4243150    3.0564290   -0.1894380  
C    -1.3531310    3.8969250    0.0905580  
O    -1.5682520    5.2273370    0.2821590  
C    -0.0336130    3.3827070    0.1829530  
O     0.9305560    4.3191210    0.4656050  
C     0.2291170    2.0367760    0.0020340  
H    -3.4248040    3.4679870   -0.2401980  
H    -0.7033870    5.6284550    0.4807220  
H     1.7679060    3.8686080    0.6914260  
H     1.2385890    1.6517650    0.0508190  
H    -2.7758830   -1.4887830   -0.8252700  
C     0.1261450   -1.2243140   -0.3248410  
C     0.1334580   -2.6025760   -0.3746750  
C     1.4976650   -3.0006890   -0.1960700  
C     2.2527680   -1.7047990   -0.0693090  
N     1.4446500   -0.6877720   -0.1308700  
C     3.6911120   -1.6309540    0.1052360  
C     4.3125960   -2.8393070    0.2454900  
O     5.6141460   -2.9895940    0.4836830  
C     3.5798050   -4.1683030    0.1437960  
O     4.2748830   -5.1800330    0.2809740  
C     2.1472500   -4.1918220   -0.0981070  
H    -0.7121810   -3.2651310   -0.4982720  
H     5.7491020   -3.9672290    0.5162670  
H     1.6634970   -5.1604210   -0.1718630  
C     3.0129740    2.1989910    2.2902920  
C     4.0206070    2.9262250    1.7013690  
C     4.6954420    2.0427310    0.7874630  
C     4.0365210    0.7890530    0.8588680  
N     3.0429520    0.9020510    1.8145970  
C     4.4045600   -0.3303700    0.0753550  
C     5.4787950   -0.1284160   -0.7972550  
O     5.8678340   -1.1216800   -1.6427230  
C     6.1669000    1.1135490   -0.8525020  
O     7.2123130    1.1229800   -1.7580650  
C     5.7954570    2.1933610   -0.0786040  
H     4.2971910    3.9446470    1.9412750  
H     2.2548690    0.2697290    1.8426920  
H     6.6204820   -0.7806310   -2.1567030  
H     7.5952220    2.0114330   -1.8008860  
H     6.3351830    3.1358310   -0.1455670  
H     2.2948560    2.4875640    3.0455220  
C    -5.1255920    1.6524920   -1.4420180  
C    -4.4011650    0.6963410   -0.7965580  
C    -5.3971710   -0.2660540   -0.2811270  
C    -6.6918280    0.2909910   -0.7566020  
N    -6.5207690    1.4022380   -1.4221570  
C    -7.9391020   -0.3622470   -0.4663240  
C    -7.9101440   -1.4875690    0.2901170  
O    -9.0024890   -2.1907170    0.6355070  
C    -6.6243890   -2.0480550    0.8158690  
O    -6.6685510   -3.0711030    1.4974990  
C    -5.3490190   -1.3662180    0.4916010  
H    -8.8673640    0.0570490   -0.8383730  
H    -8.6738440   -2.9385750    1.1799170  
H    -4.4421600   -1.8009240    0.9004670  
H    -4.7555540    2.5296200   -1.9555380  
