58


C     0.9858460    1.6548550   -0.1684480  
C    -0.3795100    1.4578990   -0.2458380  
C    -0.6324710    0.0510130   -0.2389630  
C     0.6972980   -0.5974950   -0.1632320  
N     1.6304170    0.4171840   -0.1523290  
C     0.9083220   -1.9570550   -0.1582810  
C    -0.3079450   -2.7758280    0.0189460  
O    -0.2832310   -3.9504010    0.3419480  
C    -1.7209740   -2.1201520   -0.1657810  
O    -2.6867020   -2.8633660   -0.2175890  
C    -1.8231410   -0.6521960   -0.2906020  
H    -1.1267550    2.2342320   -0.2116860  
H     2.5485040    0.2701720    0.2753010  
C     0.0553940    5.8689800   -1.3676440  
C    -0.0185220    4.5152180   -1.2639660  
C     1.1727860    4.1197600   -0.5337260  
C     1.8792880    5.4128650   -0.2877460  
N     1.2140780    6.4303480   -0.7643060  
C     3.1456400    5.4752380    0.3890770  
C     3.7115260    4.3087880    0.7736240  
O     4.9059200    4.2190120    1.3825560  
C     3.0440640    2.9862960    0.5316070  
O     3.6688050    1.9816560    0.8742620  
C     1.6840230    2.9258150   -0.0898580  
H    -0.7750020    3.8666530   -1.6780410  
H     3.6256500    6.4330050    0.5559820  
H     5.0632620    3.2607050    1.5213170  
H    -0.6464840    6.5345620   -1.8564290  
C     4.8391940   -1.2353870    1.7944380  
C     5.5328450   -2.3374530    1.4331550  
C     4.6370190   -3.0849010    0.5579730  
C     3.3810590   -2.2630090    0.5239370  
N     3.5214270   -1.1835980    1.2395770  
C     2.2027230   -2.6567800   -0.2306160  
C     2.3603880   -3.7757090   -1.0078210  
O     1.4306630   -4.2247440   -1.8544280  
C     3.6122500   -4.6104830   -1.0049830  
O     3.6345060   -5.6017860   -1.7320800  
C     4.7543080   -4.2153300   -0.1618740  
H     6.5393680   -2.6171770    1.7108040  
H     1.7969010   -5.0533200   -2.2377740  
H     5.6377340   -4.8456930   -0.1871250  
H     5.1574420   -0.4176300    2.4287610  
C    -3.3126790    0.9937110   -1.4541160  
C    -3.1098560   -0.0212710   -0.5520390  
C    -4.4246310   -0.2893180    0.0521200  
C    -5.3725380    0.6640130   -0.5749570  
N    -4.6284650    1.4058710   -1.4761180  
C    -6.6951000    0.7571280   -0.2895670  
C    -7.2464120   -0.1322470    0.7280270  
O    -8.4226990   -0.1260420    1.0553900  
C    -6.2604590   -1.1299480    1.4330730  
O    -6.6862960   -1.8618370    2.3105560  
C    -4.8499740   -1.1459580    1.0134990  
H    -7.3610380    1.4663310   -0.7716090  
H    -4.2005250   -1.8739410    1.4832720  
H    -2.5946650    1.4406090   -2.1284540  
H    -5.0128760    2.0865300   -2.1135410  
