64


C     4.0515230    0.8195600   -0.0759370  
C     4.0701580    2.1912990   -0.1536310  
C     2.7179570    2.6454460   -0.3223470  
C     1.8931280    1.4972750   -0.3546190  
N     2.7230990    0.3843230   -0.2583770  
C     0.4842960    1.5374730   -0.4659580  
C    -0.0613510    2.8303220   -0.5243430  
O    -1.4204450    3.0045880   -0.6026800  
C     0.7528630    3.9867400   -0.5180080  
O     0.0347530    5.1661030   -0.6097110  
C     2.1308130    3.9189520   -0.4288370  
H     4.9593220    2.8061380   -0.1427270  
H     2.3874790   -0.4646540    0.1833560  
H    -1.5845910    3.9624910   -0.6511210  
H     0.6452990    5.9175750   -0.5979580  
H     2.7339750    4.8240430   -0.4198290  
C     7.8481760    0.8324170    2.3247070  
C     6.6397170    1.1662550    1.7702660  
C     6.2643360    0.0933480    0.8924750  
C     7.2967510   -0.8782080    0.9644190  
N     8.2501870   -0.3980450    1.8393730  
C     7.2615710   -2.0850090    0.2555550  
C     6.1561520   -2.3143820   -0.5477770  
O     6.0717910   -3.4651240   -1.2785150  
C     5.1083980   -1.3641620   -0.6363010  
O     4.0929320   -1.7401930   -1.4985040  
C     5.1342570   -0.1549650    0.0665410  
H     6.0738320    2.0627670    1.9763730  
H     9.0984260   -0.8782430    2.0945720  
H     8.0531150   -2.8255800    0.3076050  
H     5.2559840   -3.4019240   -1.8056870  
H     3.5197570   -0.9688850   -1.6630780  
H     8.4628920    1.3705550    3.0324640  
C    -0.3240650    0.3189270   -0.5046390  
C     0.0423910   -0.9873960   -0.8012050  
C    -1.1289040   -1.7977620   -0.7072880  
C    -2.1979740   -0.9393900   -0.3387850  
N    -1.6801260    0.3254710   -0.2007400  
C    -3.5150940   -1.4051300   -0.1164390  
C    -3.7281020   -2.7690710   -0.3445370  
O    -4.9790090   -3.2946540   -0.2250660  
C    -2.6660620   -3.6314160   -0.7249310  
O    -3.0587710   -4.9476640   -0.8976940  
C    -1.3770470   -3.1720860   -0.8943710  
H     1.0176180   -1.3321930   -1.1112720  
H    -2.2329660    1.1720190   -0.2202600  
H    -4.9030910   -4.2491930   -0.3982600  
H    -2.2940140   -5.4783580   -1.1645100  
H    -0.5770960   -3.8548070   -1.1743220  
C    -5.0934960    2.4130290   -1.6621950  
C    -6.1387310    2.6539810   -0.8385750  
C    -6.1374100    1.5446850    0.1094460  
C    -4.9786690    0.6923820   -0.3220330  
N    -4.3752640    1.2138580   -1.3521270  
C    -4.6186290   -0.5416860    0.3599530  
C    -5.3714870   -0.8472860    1.4590170  
O    -5.1483670   -1.9089940    2.2451180  
C    -6.5330510   -0.0092470    1.9141700  
O    -7.1452440   -0.3773030    2.9169670  
C    -6.8908710    1.2144420    1.1738120  
H    -6.8353770    3.4805210   -0.8601520  
H    -5.8454350   -1.8681150    2.9370650  
H    -7.7367300    1.7893540    1.5383990  
H    -4.7540650    3.0071390   -2.5024950  
