58


C     1.1873420    1.7567340   -0.0682000  
C     2.0104800    0.6484310   -0.0991440  
C     3.3565810    1.1072290   -0.2556080  
C     3.2865700    2.5911640   -0.3059260  
N     1.9542980    2.9112400   -0.1928250  
C     4.3607920    3.4148890   -0.4146780  
C     5.6828040    2.8151170   -0.5006770  
O     6.7154520    3.4657800   -0.5573730  
C     5.7851440    1.2492300   -0.5395100  
O     6.8609580    0.7435570   -0.8060390  
C     4.5577240    0.4398930   -0.3232250  
H     1.6902770   -0.3797100   -0.0366320  
H     4.2822060    4.4974120   -0.4202160  
H     1.5425000    3.8332880   -0.1781030  
C    -0.2347350    1.8700410    0.0682390  
C    -1.1911510    0.8856920    0.1820540  
C    -2.4465450    1.5734570    0.2788690  
C    -2.0820320    3.0127290    0.1913530  
N    -0.7923270    3.1830370    0.0780980  
C    -3.0699420    4.0589370    0.2147740  
C    -4.3674230    3.6882300    0.2885550  
O    -5.3940130    4.5508530    0.2934710  
C    -4.7850200    2.2414990    0.3676440  
O    -5.9964640    2.0301470    0.4254180  
C    -3.7595430    1.1577330    0.4014440  
H    -1.0310930   -0.1820180    0.1610940  
H    -2.7682610    5.0985980    0.1564190  
H    -6.2038780    3.9989390    0.3608240  
C    -3.4061670   -1.1508340    1.3153960  
C    -4.1520670   -0.2134220    0.6303730  
C    -5.3556700   -0.9729910    0.2086010  
C    -5.1120520   -2.3489030    0.7325630  
N    -3.9764670   -2.4234360    1.3879940  
C    -6.0308090   -3.4280230    0.5223900  
C    -7.1509100   -3.1728040   -0.1994710  
O    -8.0923480   -4.0813050   -0.4778680  
C    -7.4224350   -1.8041270   -0.7614150  
O    -8.4517060   -1.6482900   -1.4134700  
C    -6.4600390   -0.7072730   -0.5150880  
H    -5.8132220   -4.4096770    0.9278770  
H    -8.7683700   -3.6093960   -1.0133470  
H    -6.7130580    0.2653260   -0.9165630  
H    -2.4688880   -0.9714760    1.8277180  
C     6.9574460   -2.0354190    2.3617580  
C     6.7828550   -3.2773770    1.8571230  
C     5.8521260   -3.1064560    0.7448240  
C     5.5912880   -1.6326150    0.7119920  
N     6.2150170   -1.0195260    1.6701920  
C     4.6923620   -1.0230050   -0.2634050  
C     4.0396010   -1.8875440   -1.0926550  
O     3.1637440   -1.5051980   -2.0396470  
C     4.2754410   -3.3711100   -1.0684700  
O     3.6571310   -4.0543660   -1.8857380  
C     5.2239800   -3.9464810   -0.0992810  
H     7.2143420   -4.2082270    2.1977470  
H     2.9104310   -2.3380000   -2.4991390  
H     5.3534920   -5.0244710   -0.1109080  
H     7.5718610   -1.7349340    3.2017880  
