58


C    -1.2338340   -1.5068230    0.2388520  
C    -0.5250530   -0.3296910    0.2243490  
C    -1.5226040    0.7370620    0.1440300  
C    -2.8476990    0.0598290    0.1165850  
N    -2.5897020   -1.2935420    0.1547280  
C    -4.0642780    0.6885260    0.0129510  
C    -4.0155660    2.1684890    0.1431750  
O    -4.9940970    2.8449660    0.4050870  
C    -2.6374790    2.8918030   -0.0174340  
O    -2.6304090    4.1061300   -0.1528660  
C    -1.4214750    2.0877500    0.0219150  
H    -0.4733800    2.6059680   -0.0240610  
H    -0.8426860   -2.5116960    0.2853250  
H    -3.3153690   -1.9317790    0.4941420  
C     2.4457880   -3.0663940   -1.4328560  
C     3.6114280   -2.4426820   -1.1561180  
C     3.2354020   -1.2245950   -0.4469800  
C     1.7415660   -1.2775850   -0.3935220  
N     1.2932110   -2.3568050   -0.9664330  
C     0.9331280   -0.2376900    0.2448670  
C     1.6501310    0.7576480    0.8492010  
O     1.0857990    1.7671430    1.5442900  
C     3.1374620    0.8438630    0.8045210  
O     3.6622610    1.8279540    1.3262830  
C     3.9391650   -0.2311210    0.1431110  
H     4.6140720   -2.7488330   -1.4132760  
H     1.8396950    2.3320000    1.8270510  
H     2.2946240   -4.0054690   -1.9513290  
C     6.8727540   -0.0352500   -3.1382340  
C     8.0388840    0.1238190   -2.4729790  
C     7.6746770    0.1151700   -1.0595230  
C     6.1851670   -0.0655350   -1.0688180  
N     5.7270870   -0.1517810   -2.2815730  
C     5.4099370   -0.1134880    0.1618260  
C     6.1148140   -0.0117360    1.3241740  
O     5.5606570   -0.0945400    2.5377980  
C     7.6125290    0.1650690    1.3554710  
O     8.1458930    0.2445340    2.4595470  
C     8.3644300    0.2309990    0.0912670  
H     9.0341760    0.2374790   -2.8792870  
H     6.2996060    0.0305260    3.1750160  
H     9.4395310    0.3672200    0.1570960  
H     6.7147170   -0.0804040   -4.2090010  
C    -5.9423210   -2.9883640    1.7606490  
C    -7.2281580   -2.8297790    1.3796750  
C    -7.2355210   -1.6370420    0.5420280  
C    -5.8117480   -1.1551570    0.5575430  
N    -5.0701500   -1.9745560    1.2540720  
C    -5.3840780    0.0494970   -0.1408810  
C    -6.3364870    0.6001030   -0.9650020  
O    -6.0911130    1.6123940   -1.7990860  
C    -7.7586340    0.1198960   -1.0241170  
O    -8.5296690    0.7088120   -1.7801490  
C    -8.1758940   -1.0299420   -0.2032870  
H    -8.0792820   -3.4525950    1.6162870  
H    -6.9535480    1.8303290   -2.2183990  
H    -9.2118350   -1.3470320   -0.2714920  
H    -5.5166210   -3.7679760    2.3805050  
