60


C    -2.1390540   -0.8826280    0.6481280  
C    -3.4407760   -0.4408980    0.5758980  
C    -3.3869180    0.8808090   -0.0211090  
C    -2.0274520    1.1689780   -0.2858000  
N    -1.2687570    0.0752110    0.1477220  
C    -1.6136260    2.3547660   -0.9029870  
C    -2.5889910    3.2905240   -1.2161700  
O    -2.2343600    4.4609670   -1.8146340  
C    -3.9528310    3.0389550   -0.9155620  
O    -4.7992400    4.0684970   -1.2667210  
C    -4.3576840    1.8535050   -0.3274020  
H    -0.5790370    2.5636410   -1.1484010  
H    -3.0477020    4.9765920   -1.9533900  
H    -5.7140240    3.8303320   -1.0544570  
H    -5.4080320    1.6848070   -0.1042410  
H    -1.7494840   -1.8174800    1.0240120  
C     0.7735870   -1.1977840   -0.4461730  
C     0.1126070   -0.1054140    0.0134870  
C     1.1635780    0.8024190    0.5017770  
C     2.4353040    0.0755830    0.2072590  
N     2.1835060   -1.0835120   -0.3349170  
C     3.7525890    0.6408140    0.5134600  
C     3.7285080    1.8592020    1.1663690  
O     4.7969210    2.5493580    1.5578600  
C     2.4441260    2.5644970    1.5202280  
O     2.5332030    3.6418730    2.1081140  
C     1.1462490    1.9774450    1.1511400  
H     4.4332340    3.3593070    1.9873830  
H     0.2492150    2.5319000    1.4069180  
H     0.3482460   -2.1015870   -0.8643130  
C     4.9679090   -0.0681590    0.1562260  
C     5.0906680   -1.2820900   -0.4722380  
C     6.5096460   -1.5214530   -0.5910990  
C     7.1421690   -0.3170200    0.0345390  
N     6.2528690    0.5222000    0.4663240  
C     8.5751550   -0.1724680    0.1131880  
C     9.3349190   -1.1679390   -0.3993490  
O    10.6765750   -1.1738150   -0.3982560  
C     8.7244440   -2.3954580   -1.0361460  
O     9.5005910   -3.2457270   -1.4735830  
C     7.2635100   -2.5209240   -1.1057240  
H     4.2895520   -1.9225910   -0.8024200  
H     9.0086210    0.7097230    0.5708800  
H    10.9289960   -2.0186200   -0.8345020  
H     6.8614170   -3.4159590   -1.5704940  
C    -4.7155840   -1.9292770    2.1883790  
C    -4.5987090   -1.1772080    1.0577460  
C    -5.9042580   -1.3511330    0.3804910  
C    -6.6762310   -2.2445770    1.2918620  
N    -5.9727370   -2.5799040    2.3372300  
C    -8.0194280   -2.6597330    0.9816310  
C    -8.5612570   -2.2398310   -0.1872210  
O    -9.8016500   -2.5533740   -0.6014790  
C    -7.7966620   -1.3686690   -1.1400200  
O    -8.3539950   -1.0220480   -2.1809930  
C    -6.4186240   -0.9514100   -0.7974670  
H    -8.5602580   -3.2997550    1.6700620  
H    -9.9045940   -2.1130420   -1.4731120  
H    -5.8947050   -0.3338470   -1.5203070  
H    -3.9712820   -2.0577990    2.9653680  
