60


C     3.4900160    0.7893620    0.3456690  
C     3.6483610    2.1733560    0.2859110  
C     2.3759490    2.7465500    0.0307160  
C     1.4515550    1.6652840   -0.0555500  
N     2.1435670    0.5047950    0.1380410  
C     0.0785770    1.8730260   -0.2919380  
C    -0.3532720    3.1912390   -0.4263180  
O    -1.6726950    3.4614090   -0.6539590  
C     0.5633880    4.2751020   -0.3225340  
O    -0.0414110    5.5056430   -0.4719110  
C     1.9088060    4.0731920   -0.1033260  
H     4.5676460    2.7106010    0.4594880  
H     1.7719650   -0.4341800    0.2055760  
H    -1.7425500    4.4270180   -0.7680670  
H     0.6307700    6.2018480   -0.5197250  
H     2.5907930    4.9164290   -0.0264380  
C    -2.0175020    0.7241550    0.3797040  
C    -2.8130720   -0.3157900    0.0003510  
C    -2.1065060   -0.9898440   -1.0935340  
C    -0.8597620   -0.2198230   -1.3213150  
N    -0.8436050    0.8010860   -0.3703040  
C     0.0460680   -0.4876670   -2.2961180  
C    -0.2020670   -1.6226110   -3.1811650  
O     0.5540390   -1.9370130   -4.0876150  
C    -1.5064430   -2.4637860   -2.9479360  
O    -1.7380400   -3.4128870   -3.6787010  
C    -2.4120260   -2.0646300   -1.8618490  
H     0.9375990    0.1067220   -2.4616670  
H    -3.3015660   -2.6627500   -1.7050670  
H    -2.1723660    1.4398600    1.1750610  
C    -6.1450870    2.3849550    0.8386910  
C    -7.0384140    1.5056910    1.3607370  
C    -6.4134410    0.1996610    1.3496260  
C    -5.0621040    0.3955350    0.7742650  
N    -4.9522360    1.7485320    0.5110880  
C    -4.1427700   -0.5964480    0.5508660  
C    -4.5497020   -1.9618360    0.9311580  
O    -3.8215200   -2.9317880    0.7932590  
C    -5.9785860   -2.1861570    1.5558110  
O    -6.3046470   -3.3229710    1.8593030  
C    -6.8512740   -1.0299820    1.7347410  
H    -8.0322440    1.7333890    1.7175070  
H    -7.8352640   -1.1975390    2.1613880  
H    -6.2469310    3.4493290    0.6723640  
H    -4.1848510    2.1645750    0.0018430  
C     7.9733570    0.5473660    0.3403700  
C     6.7143890    1.0097340    0.1310530  
C     5.8314090   -0.0773330    0.5349540  
C     6.7681670   -1.1487180    0.9603320  
N     8.0162820   -0.7769650    0.8609500  
C     6.3106570   -2.4362330    1.4167930  
C     4.9795230   -2.6681030    1.4192160  
O     4.4211570   -3.8369390    1.7845410  
C     4.0016420   -1.6208510    0.9871610  
O     2.8125510   -1.9522370    0.9708110  
C     4.4718680   -0.2443850    0.5997850  
H     6.4305530    1.9578510   -0.2994550  
H     7.0283910   -3.1903830    1.7195980  
H     3.4552680   -3.7290660    1.6583720  
H     8.9090450    1.0583330    0.1470090  
