60


C     1.8020920    1.8572470   -1.0802030  
C     2.9066390    1.0627490   -1.1079210  
C     2.6534440   -0.0699000   -0.2535110  
C     1.3471640    0.0856290    0.2672660  
N     0.8270520    1.2817880   -0.2553200  
C     0.7787590   -0.8283890    1.1611650  
C     1.5300070   -1.9471750    1.4913490  
O     1.0190760   -2.8641410    2.3584220  
C     2.8235520   -2.1436490    0.9510790  
O     3.4344300   -3.2948090    1.3825540  
C     3.4193370   -1.2128830    0.0931760  
H     3.7939220    1.2456040   -1.6963240  
H    -0.1908770   -0.6880800    1.6210110  
H     1.7024520   -3.5438610    2.4965100  
H     4.3701720   -3.2737500    1.1123640  
H     1.5778010    2.7699030   -1.6111290  
C    -0.4187220    1.8398400   -0.0401980  
C    -0.7918610    3.1549700   -0.0743940  
C    -2.2162300    3.2048650    0.1246050  
C    -2.6589650    1.8037630    0.2909160  
N    -1.5101590    1.0131360    0.2464550  
C    -3.9500360    1.3885430    0.4372910  
C    -4.9757710    2.4587780    0.4685340  
O    -6.1625460    2.2216190    0.6131510  
C    -4.5194910    3.9592070    0.3364040  
O    -5.3813330    4.8254800    0.3623020  
C    -3.1017350    4.2403350    0.1715750  
H    -0.1308580    4.0028160   -0.1764250  
H    -2.7983700    5.2767410    0.0628830  
H    -1.5517690    0.0515960   -0.0691300  
C    -3.7391390   -0.8997640    1.4837750  
C    -4.3271620   -0.0190610    0.6184030  
C    -5.3741370   -0.7736460   -0.0801320  
C    -5.3227230   -2.1548530    0.4587710  
N    -4.3096870   -2.1595490    1.3994580  
C    -6.1300920   -3.1727530    0.0663370  
C    -7.1184130   -2.9099230   -0.9740430  
O    -7.8863100   -3.7602980   -1.3976760  
C    -7.1784880   -1.4599060   -1.5773920  
O    -7.9772650   -1.2226700   -2.4683940  
C    -6.2606340   -0.4397260   -1.0507100  
H    -6.0732050   -4.1738300    0.4827650  
H    -6.3439480    0.5630850   -1.4527800  
H    -2.9485530   -0.7145480    2.1994200  
H    -4.0646920   -2.9470250    1.9793880  
C     5.3409080   -2.5426870   -0.9548120  
C     4.7911820   -1.4272040   -0.3889510  
C     5.9240410   -0.4782380   -0.3128620  
C     7.0717490   -1.2238130   -0.9081620  
N     6.7216730   -2.4250310   -1.2767520  
C     8.3800580   -0.6340530   -1.0164150  
C     8.5512810    0.6211750   -0.5354440  
O     9.7143380    1.2878220   -0.5684690  
C     7.4193150    1.3868380    0.0947780  
O     7.6508400    2.5190930    0.5103930  
C     6.0803710    0.7607490    0.1879150  
H     9.1923870   -1.1963510   -1.4631900  
H     9.5358430    2.1584550   -0.1504900  
H     5.2892540    1.3435130    0.6491210  
H     4.8306780   -3.4658270   -1.2082840  
