62


C    -0.1354220    0.7166870    1.5448640  
C    -1.2957480    0.0394060    1.2830540  
C    -1.9308960    0.6909830    0.1716890  
C    -1.0827650    1.7643900   -0.2095830  
N     0.0092660    1.7731850    0.6510700  
C    -1.3426540    2.5904600   -1.3037740  
C    -2.4797500    2.3101540   -2.0473030  
O    -2.7855400    3.0684880   -3.1332600  
C    -3.3422480    1.2371000   -1.7058560  
O    -4.4355780    1.1209200   -2.5377370  
C    -3.1170800    0.4333790   -0.5811040  
H    -1.6617540   -0.8122020    1.8372070  
H    -0.6927880    3.4095950   -1.5880070  
H    -3.5977710    2.6766240   -3.5077750  
H    -4.5225030    0.1714430   -2.7652240  
H     0.6032690    0.5663280    2.3195100  
C     4.1673520    0.7910700   -0.2111400  
C     4.6636840    2.0790000   -0.0774820  
C     3.5734840    2.9387250    0.2490160  
C     2.4137690    2.1215360    0.3077020  
N     2.7978680    0.8232830    0.0586970  
C     1.1361450    2.6324850    0.5880520  
C     1.0322670    4.0040660    0.8186650  
O    -0.1759700    4.5548160    1.1013120  
C     2.1887140    4.8315410    0.7596030  
O     1.9147130    6.1599680    1.0097480  
C     3.4440030    4.3233160    0.4904880  
H     5.7056600    2.3557380   -0.1603390  
H     2.1507430    0.0870000   -0.1825970  
H    -0.0373220    5.5111920    1.2205250  
H     2.7331410    6.6768220    0.9723540  
H     4.3092550    4.9811640    0.4530220  
C     6.0162970   -0.6024170   -1.2321360  
C     4.8452640   -0.4337680   -0.5464870  
C     4.4380410   -1.8152160   -0.1869120  
C     5.5062090   -2.6708620   -0.7709050  
N     6.4204440   -1.9501220   -1.3665920  
C     5.4824400   -4.1015540   -0.6392540  
C     4.4641330   -4.6624920    0.0595520  
O     4.3230560   -5.9858150    0.2564720  
C     3.3927640   -3.8279730    0.6871460  
O     2.4994470   -4.3982370    1.3133510  
C     3.4378590   -2.3548230    0.5348930  
H     6.2706050   -4.6982410   -1.0851140  
H     3.5082520   -6.0843590    0.7952050  
H     2.6519050   -1.7941950    1.0318960  
H     6.6280120    0.1715740   -1.6793420  
C    -5.0182530   -0.7082970    3.3016640  
C    -4.3441830   -0.0141350    2.3564350  
C    -4.4848930   -0.7972050    1.1284790  
C    -5.3053670   -1.9664760    1.5472180  
N    -5.6079770   -1.9208110    2.8133470  
C    -5.6909950   -2.9999290    0.6190230  
C    -5.3177980   -2.8498740   -0.6707620  
O    -5.6371310   -3.7165300   -1.6511690  
C    -4.5452210   -1.6505780   -1.1295740  
O    -4.3501450   -1.5657900   -2.3503060  
C    -4.0485080   -0.6308190   -0.1535000  
H    -3.8220050    0.9251500    2.4594530  
H    -6.2771680   -3.8468860    0.9574830  
H    -5.2723350   -3.3332690   -2.4762550  
H    -5.1610870   -0.4520650    4.3444290  
