62


C     0.4686610    0.8627770   -0.2740630  
C     1.5665770    0.0912110    0.0146630  
C     2.6838970    0.6874540   -0.6556990  
C     2.1999890    1.8446560   -1.3186030  
N     0.8434280    1.9340730   -1.0672960  
C     3.0220460    2.7047520   -2.0501370  
C     4.3721370    2.3969310   -2.1089260  
O     5.2137490    3.1948990   -2.8225310  
C     4.8939000    1.2647100   -1.4319620  
O     6.2477250    1.1124400   -1.6218650  
C     4.0747200    0.3859980   -0.7084920  
H     1.5638020   -0.7838000    0.6466090  
H     0.1980630    2.5633610   -1.5204390  
H     2.6494640    3.5862790   -2.5613000  
H     6.1084070    2.8218030   -2.7353700  
H     6.5986860    0.4216120   -1.0369450  
C    -1.5515780   -0.5276300   -0.0234290  
C    -2.8338720   -0.3675410    0.4377290  
C    -2.9869300    1.0053650    0.8478760  
C    -1.7411970    1.6336990    0.6151560  
N    -0.8718090    0.6774900    0.0821110  
C    -1.5077590    2.9778230    0.9341090  
C    -2.5619490    3.6985600    1.4740970  
O    -2.3899170    5.0108360    1.7924230  
C    -3.8234180    3.0828010    1.7012540  
O    -4.7638690    3.9312800    2.2429200  
C    -4.0440080    1.7513250    1.4039140  
H    -0.5480380    3.4602750    0.7890570  
H    -3.2355810    5.3388760    2.1448860  
H    -5.6192230    3.4801470    2.3041840  
H    -5.0114610    1.2935450    1.5930430  
H    -1.0632170   -1.3920120   -0.4482050  
C    -3.6819640   -2.5643070    1.2677990  
C    -4.7733800   -3.3599680    1.1410540  
C    -5.6977300   -2.6817750    0.2583710  
C    -5.0367230   -1.4100080   -0.1301270  
N    -3.8066530   -1.3874090    0.5206560  
C    -5.5770400   -0.4919430   -0.9721640  
C    -6.9052460   -0.7518990   -1.5209990  
O    -7.4761540    0.0212530   -2.2759310  
C    -7.6296350   -2.0876790   -1.1131690  
O    -8.7430990   -2.3169030   -1.5599770  
C    -6.9327370   -3.0052770   -0.2092020  
H    -4.9284590   -4.3174060    1.6168960  
H    -5.0707710    0.4246390   -1.2541060  
H    -7.4369620   -3.9291860    0.0578580  
H    -2.7818360   -2.7116750    1.8497600  
C     7.4497410   -0.3358160    2.1498360  
C     6.5353840    0.2941860    1.3696930  
C     5.7152840   -0.7768500    0.8054810  
C     6.3058240   -2.0185280    1.3840590  
N     7.3183570   -1.7557090    2.1637680  
C     5.7732710   -3.3231440    1.0884850  
C     4.7041580   -3.3893770    0.2640910  
O     4.0982670   -4.5344900   -0.0918720  
C     4.0877880   -2.1581250   -0.3499860  
O     3.1456790   -2.3369200   -1.1156160  
C     4.6469510   -0.7969900   -0.0417030  
H     6.4012310    1.3570030    1.2256810  
H     6.2248600   -4.2072400    1.5244640  
H     3.3873540   -4.2716860   -0.7164940  
H     8.2304000    0.1148610    2.7513130  
