58


C     0.1599790    0.5522240    0.4158860  
C     0.8566260   -0.6169350    0.6004390  
C    -0.0935320   -1.6932980    0.6692800  
C    -1.4305360   -1.0785760    0.5259510  
N    -1.2153420    0.2646850    0.3901310  
C    -2.6244470   -1.7689230    0.4995760  
C    -2.5359210   -3.2362520    0.7054560  
O    -3.5060480   -3.9471220    0.8844980  
C    -1.1149630   -3.9045280    0.7754440  
O    -1.0411420   -5.1227060    0.8221110  
C     0.0633950   -3.0415070    0.7968000  
H     1.9263770   -0.6945980    0.6891180  
H     1.0380280   -3.5131840    0.8795920  
H    -1.9336200    0.9465120    0.1914520  
C     4.2604340    2.1426880   -0.0158880  
C     4.0023390    3.4958490   -0.0113440  
C     2.5857810    3.6307440    0.0868380  
C     2.0747250    2.2158720    0.1584510  
N     3.0478140    1.3620780    0.0861280  
C     0.6454550    1.9154600    0.2825030  
C    -0.1748630    3.0135010    0.2624220  
O    -1.5112170    2.9585450    0.3394070  
C     0.3199320    4.4402110    0.1686310  
O    -0.5583220    5.3100910    0.1710600  
C     1.7415640    4.6980740    0.0913120  
H     4.7150540    4.3034510   -0.1014870  
H    -1.7969150    3.9079850    0.2983050  
H     2.0691760    5.7306750    0.0314830  
C     6.7815590    1.9863780   -0.0428180  
C     5.5066480    1.4559960   -0.1036720  
C     5.7384010    0.0085930   -0.2782840  
C     7.2231260   -0.1206000   -0.2916500  
N     7.8091030    1.0512440   -0.1532690  
C     7.8796930   -1.3813240   -0.4483080  
C     7.0969560   -2.4821750   -0.5956840  
O     7.5681150   -3.7213510   -0.7495800  
C     5.5895370   -2.3861010   -0.6012070  
O     4.9553910   -3.4271140   -0.7389310  
C     4.9436400   -1.0648030   -0.4426620  
H     8.9623990   -1.4364760   -0.4500730  
H     6.7796320   -4.3034780   -0.8321030  
H     3.8619540   -1.0171970   -0.4675100  
H     7.0422670    3.0299090    0.0938350  
C    -3.9029950   -1.1164310    0.3106310  
C    -4.2919790    0.1433250    0.7062880  
C    -5.6442150    0.3056030    0.2332210  
C    -5.9357370   -0.9803340   -0.4817430  
N    -4.9317550   -1.8030890   -0.4313510  
C    -7.2019260   -1.2088600   -1.1315690  
C    -8.1334760   -0.2305530   -1.0519210  
O    -9.3565490   -0.3033590   -1.5970320  
C    -7.8740530    1.0688310   -0.3221430  
O    -8.7876320    1.8964020   -0.3118520  
C    -6.5749110    1.2872910    0.3166280  
H    -3.7551450    0.8359430    1.3404820  
H    -7.3853540   -2.1441520   -1.6483520  
H    -9.7886530    0.5503130   -1.3666870  
H    -6.4221140    2.2361470    0.8218380  
