62


C     3.2851010    0.1548500   -0.0345860  
C     2.0267310    0.7271680    0.1494230  
C     2.0986070    2.0927920   -0.2428460  
C     3.4371770    2.3192650   -0.6497280  
N     4.1225460    1.1340320   -0.5295360  
C     3.9136580    3.5695040   -1.0647860  
C     3.0212730    4.6260220   -1.0581130  
O     3.4277130    5.8670550   -1.4382040  
C     1.6658600    4.4501180   -0.6614010  
O     0.9437320    5.5893320   -0.7220370  
C     1.1578540    3.1805390   -0.2692620  
H     1.1917270    0.2381860    0.6225110  
H     5.1158270    1.0003070   -0.6502550  
H     4.9413830    3.7330440   -1.3727250  
H     2.6486700    6.4479350   -1.3548990  
H     0.0170810    5.3749200   -0.3840020  
C     0.9734030   -3.5876990    0.2063230  
C     2.0305450   -4.4291380    0.5469560  
C     3.2049220   -3.6361170    0.5876510  
C     2.8190800   -2.2944510    0.2775910  
N     1.4731940   -2.3022170    0.0580340  
C     3.7322110   -1.2106180    0.2172590  
C     5.0713580   -1.5584070    0.4215010  
O     6.0474310   -0.6020840    0.3447010  
C     5.4714840   -2.8908210    0.7263140  
O     6.8333000   -3.0135900    0.9114680  
C     4.5680420   -3.9242110    0.8278370  
H     1.9559610   -5.4909000    0.7370140  
H     0.9012340   -1.5483580   -0.2953120  
H     6.8953510   -1.0364170    0.5483100  
H     7.0518310   -3.9251540    1.1556560  
H     4.8965830   -4.9326270    1.0670010  
C    -0.4209600   -3.8062200   -0.0043340  
C    -1.1799340   -4.9498280    0.0758410  
C    -2.5158130   -4.5527360   -0.2530080  
C    -2.4125690   -3.0746370   -0.5233980  
N    -1.1927200   -2.6452140   -0.3735780  
C    -3.5601950   -2.2942110   -0.8992910  
C    -4.7463060   -2.9412690   -0.9975880  
O    -5.8973680   -2.3580090   -1.3396270  
C    -4.8856300   -4.4313720   -0.7258190  
O    -6.0201970   -4.9021850   -0.8482890  
C    -3.7104640   -5.1993700   -0.3504730  
H    -0.8467760   -5.9457920    0.3315130  
H    -3.4622400   -1.2328300   -1.0994010  
H    -6.5636880   -3.0853090   -1.3170860  
H    -3.8416710   -6.2607380   -0.1654400  
C    -0.2322350    3.0198650    0.0582700  
C    -0.9981120    1.8960680    0.3103840  
C    -2.3208560    2.3519690    0.5805110  
C    -2.2452380    3.8469510    0.4534800  
N    -1.0364410    4.2189800    0.1446070  
C    -3.3862470    4.6907500    0.6540050  
C    -4.5533370    4.0752960    0.9662180  
O    -5.7040290    4.7095240    1.1847810  
C    -4.6718060    2.5604300    1.1046720  
O    -5.7961760    2.1393960    1.3985900  
C    -3.5008220    1.7378860    0.8936070  
H    -0.6992880    0.8615980    0.2686130  
H    -3.3054860    5.7677260    0.5580970  
H    -6.3480580    3.9864380    1.3857850  
H    -3.6104440    0.6631730    0.9975990  
