58


C     2.4210440    3.7354960    0.4675550  
C     1.2784150    3.0075840    0.3949140  
C     1.6531940    1.6115720    0.3935220  
C     3.1287610    1.5839170    0.4876790  
N     3.5298110    2.9006310    0.5623640  
C     3.9279300    0.4609090    0.4959670  
C     3.2051900   -0.8185530    0.3885320  
O     3.7602390   -1.9055640    0.3783900  
C     1.6332570   -0.8178400    0.2915690  
O     1.0840220   -1.8927010    0.1298210  
C     0.9018700    0.4641260    0.3470040  
H     0.2749810    3.3937350    0.3198490  
H     2.5553350    4.8089120    0.4744090  
H     4.4911130    3.1912280    0.4580030  
C    -1.9477340    2.2385950   -2.5002780  
C    -3.1371480    1.7643460   -2.0526420  
C    -2.8163920    0.9914700   -0.8647780  
C    -1.3238780    1.1025540   -0.7534290  
N    -0.8312170    1.8380840   -1.7106100  
C    -0.5697780    0.4269010    0.2856040  
C    -1.3059720   -0.3103480    1.1686800  
O    -0.7722450   -0.9439360    2.2161620  
C    -2.8076850   -0.4174490    1.1086900  
O    -3.3522300   -1.0223880    2.0248960  
C    -3.5603760    0.2517900    0.0050730  
H    -4.1147140    1.8980670   -2.4911570  
H    -1.5268320   -1.3716450    2.6804490  
H    -1.7657360    2.8566220   -3.3717790  
C    -5.0079310    0.1057700   -0.0644540  
C    -5.9256420    1.0634700   -0.3960600  
C    -7.2167130    0.4078450   -0.3201630  
C    -6.8882480   -0.9998720    0.0718640  
N    -5.6093860   -1.1720190    0.2255760  
C    -7.9180340   -1.9946430    0.2367500  
C    -9.2017160   -1.6113260    0.0419220  
O   -10.2591310   -2.4259960    0.1670220  
C    -9.5631070   -0.1968130   -0.3415890  
O   -10.7545700    0.0628050   -0.4992420  
C    -8.4936170    0.8017850   -0.5153730  
H    -5.7430580    2.1063960   -0.6127110  
H    -7.6533800   -3.0082540    0.5159590  
H   -11.0446960   -1.8702850   -0.0329640  
H    -8.7933180    1.8059490   -0.7995810  
C     6.0980570    1.4345450    1.3755010  
C     5.3740100    0.5185370    0.6540660  
C     6.4211680   -0.3398920    0.0382870  
C     7.7015460    0.2514710    0.5149020  
N     7.4972520    1.2761170    1.3021020  
C     8.9809690   -0.2815910    0.1318480  
C     8.9990000   -1.3467170   -0.7049860  
O    10.1167620   -1.9413870   -1.1520250  
C     7.7273140   -1.9585550   -1.2160940  
O     7.8192840   -2.9164550   -1.9816460  
C     6.4226130   -1.4018670   -0.7894250  
H     9.8899220    0.1753250    0.5071600  
H     9.8078640   -2.6719760   -1.7320640  
H     5.5314740   -1.9028650   -1.1458370  
H     5.7065790    2.2107610    2.0232590  
