58


C     2.1392840    2.0779990   -0.7526700  
C     0.9276350    1.5078600   -0.4326060  
C     1.1914730    0.0788470   -0.2309730  
C     2.6409670   -0.1105520   -0.4396400  
N     3.1457760    1.1474010   -0.7451140  
C     3.3227920   -1.2994930   -0.3698570  
C     2.4706430   -2.5020330   -0.1579930  
O     2.9059950   -3.6373810   -0.2173970  
C     0.9426690   -2.3070120    0.1559380  
O     0.2821640   -3.2958190    0.4298670  
C     0.3771100   -0.9630910    0.0858930  
H    -0.6815700   -0.8301280    0.2673040  
H     2.3562990    3.1069650   -1.0069700  
H     4.0938160    1.3200130   -1.0452040  
C    -0.3276670    2.2055570   -0.3436650  
C    -0.5687470    3.5577040   -0.3359560  
C    -1.9902770    3.7015280   -0.2448280  
C    -2.5149710    2.2896370   -0.2065520  
N    -1.5366860    1.4341620   -0.2584610  
C    -3.9399420    1.9817130   -0.1075020  
C    -4.7680130    3.0832930   -0.0521580  
O    -6.0915660    3.0443490   -0.0047340  
C    -4.2486180    4.5139380   -0.0804840  
O    -5.1035550    5.4016140   -0.0267640  
C    -2.8227860    4.7698340   -0.1776940  
H     0.1511270    4.3642300   -0.3570990  
H    -6.3675200    3.9942220    0.0226370  
H    -2.4937020    5.8038120   -0.1959520  
C    -4.4130490    0.6088600   -0.0691530  
C    -3.7453260   -0.5333990   -0.4267250  
C    -4.6648010   -1.6203080   -0.1835740  
C    -5.8943130   -0.9495110    0.3480690  
N    -5.7498710    0.3384770    0.4135050  
C    -7.0611410   -1.7065410    0.7293240  
C    -7.0112890   -3.0504940    0.5818690  
O    -8.0169110   -3.8841730    0.8872260  
C    -5.7847830   -3.7542550    0.0440980  
O    -5.8425910   -4.9805120   -0.0533030  
C    -4.6051380   -2.9649540   -0.3279950  
H    -2.7452980   -0.6064490   -0.8205350  
H    -7.9380790   -1.1980140    1.1141000  
H    -7.6765910   -4.7821820    0.6721580  
H    -3.7370230   -3.5045010   -0.6941170  
C     5.4304810   -2.5093310   -1.0925930  
C     4.7595350   -1.4587080   -0.5216280  
C     5.8408430   -0.5818360   -0.0176080  
C     7.0995030   -1.2716990   -0.4448790  
N     6.8414980   -2.3888400   -1.0666650  
C     8.3990160   -0.7392220   -0.1423810  
C     8.4665180    0.3978200    0.5928130  
O     9.6112440    0.9986740    0.9492520  
C     7.2263260    1.0862440    1.0860310  
O     7.3593690    2.1106370    1.7521500  
C     5.8987500    0.5246830    0.7507930  
H     9.2868770   -1.2594680   -0.4840900  
H     9.3481050    1.7802870    1.4824180  
H     5.0378670    1.0418870    1.1628340  
H     4.9913880   -3.3866450   -1.5449820  
