64


C     1.3562290   -0.0522300    0.7674480  
C     1.7881300   -1.2456610    0.2283430  
C     2.8582410   -0.9101850   -0.6843410  
C     3.0231460    0.4966600   -0.6369260  
N     2.0907840    1.0075080    0.2602720  
C     3.9884460    1.1741030   -1.3998140  
C     4.7868530    0.4120280   -2.2410340  
O     5.7448480    1.0164130   -2.9998100  
C     4.6210740   -0.9956580   -2.3130320  
O     5.4854520   -1.6141410   -3.1967720  
C     3.6792330   -1.6583060   -1.5485060  
H     4.1569770    2.2428770   -1.3196830  
H     6.2011760    0.3162050   -3.4978080  
H     5.3543400   -2.5729620   -3.1564840  
H     3.5897360   -2.7394770   -1.5989200  
H     0.5871180    0.1389570    1.5023160  
C     2.1855640    3.2155730    4.1128460  
C     2.2772430    2.2353550    3.1593390  
C     1.9551480    2.8462860    1.9005630  
C     1.6774420    4.2151320    2.1556250  
N     1.8238400    4.4086950    3.5140580  
C     1.3490370    5.1284100    1.1463150  
C     1.2910690    4.6478440   -0.1522130  
O     0.9774650    5.4891740   -1.1781200  
C     1.5379250    3.2790650   -0.4399420  
O     1.3818980    2.9456730   -1.7677380  
C     1.8684160    2.3795420    0.5698460  
H     2.5483360    1.2034090    3.3297720  
H     1.6964170    5.2864960    3.9922950  
H     1.1512900    6.1774960    1.3403560  
H     1.0136130    4.9612300   -1.9957000  
H     1.8671540    2.1267980   -1.9684240  
H     2.3511550    3.1660710    5.1797700  
C    -2.4252080   -2.5208880    0.3379000  
C    -2.2065240   -3.8514460    0.6995510  
C    -0.8084280   -4.0342590    0.8145710  
C    -0.1921160   -2.7768000    0.5173770  
N    -1.1930830   -1.8909120    0.2385030  
C     1.2069000   -2.5679160    0.5192330  
C     1.9729930   -3.6914540    0.8281730  
O     3.3316840   -3.6005800    0.8732910  
C     1.3748470   -4.9568000    1.1193710  
O     2.3025760   -5.9408140    1.3999880  
C     0.0128470   -5.1438590    1.1243230  
H    -2.9765090   -4.5941630    0.8574000  
H    -1.0994330   -0.9268330   -0.0514750  
H     3.6672320   -4.4689290    1.1590790  
H     1.8461640   -6.7461950    1.6854980  
H    -0.4176200   -6.1165770    1.3506740  
C    -3.6136210   -1.7796440    0.0779400  
C    -4.9374240   -2.1598620    0.1068460  
C    -5.6834360   -0.9922720   -0.2434810  
C    -4.6366800    0.0678220   -0.4683330  
N    -3.4350430   -0.3962360   -0.2799540  
C    -4.9915160    1.4099070   -0.8439800  
C    -6.3093600    1.6854510   -0.9885560  
O    -6.7988850    2.8809830   -1.3325050  
C    -7.3908720    0.6389440   -0.7691560  
O    -8.5551370    1.0211230   -0.9337470  
C    -7.0093060   -0.7079480   -0.3907310  
H    -5.3374720   -3.1356300    0.3440270  
H    -4.2218640    2.1574520   -1.0006720  
H    -7.7771100    2.7490860   -1.3506470  
H    -7.8031630   -1.4329450   -0.2416030  
