58


C    -1.5751880   -0.0180400    0.8919420  
C    -2.9334560    0.0724980    0.8034800  
C    -3.2223090    1.3758280    0.2131980  
C    -1.9135530    2.0244020   -0.0375030  
N    -0.9358450    1.1354530    0.4280150  
C    -1.7671030    3.2245620   -0.6480360  
C    -2.9706000    3.9617010   -1.0390710  
O    -2.9251420    5.0435530   -1.6022280  
C    -4.3665190    3.3290280   -0.7099690  
O    -5.3820180    3.9444470   -0.9914180  
C    -4.3893820    2.0034840   -0.0840670  
H    -0.8087560    3.6862500   -0.8441540  
H    -5.3599600    1.5621080    0.1161820  
H    -0.9788330   -0.8468180    1.2413140  
C     2.0304570   -1.6433650   -0.9978380  
C     3.1951290   -0.9491490   -0.8272480  
C     2.7603280    0.3464870   -0.2525150  
C     1.2846350    0.2176780   -0.1463410  
N     0.8737640   -0.9394700   -0.5854870  
C     0.4590460    1.2979770    0.3673160  
C     1.0974200    2.4429330    0.7586950  
O     0.4688210    3.5002940    1.3002790  
C     2.5675050    2.6081390    0.6087600  
O     3.0689580    3.6696620    0.9830340  
C     3.3809900    1.4965320    0.0654480  
H     1.1756430    4.1646690    1.4640380  
H     4.4469760    1.6734890   -0.0340430  
H     1.9187340   -2.6501930   -1.3805720  
C     4.9033370   -2.0882070   -2.2938810  
C     4.5313560   -1.3581260   -1.1979440  
C     5.8001040   -1.1466930   -0.4664900  
C     6.8257870   -1.8287130   -1.3121170  
N     6.2859180   -2.3751970   -2.3691220  
C     8.2131530   -1.8632050   -0.9408210  
C     8.5726230   -1.2779770    0.2283220  
O     9.8283830   -1.2382680    0.6953400  
C     7.5596570   -0.6165370    1.1211670  
O     7.9546100   -0.1159840    2.1707350  
C     6.1365540   -0.5897450    0.7115460  
H     8.9329240   -2.3573860   -1.5837410  
H     9.7804640   -0.7641430    1.5541730  
H     5.4401720   -0.1187570    1.3980800  
H     4.2565590   -2.4298870   -3.0935360  
C    -3.8282780   -1.6636900    2.4133940  
C    -3.8758890   -0.9386620    1.2602060  
C    -5.0517110   -1.4794400    0.5464120  
C    -5.5829780   -2.5313280    1.4651440  
N    -4.8598890   -2.6318540    2.5460250  
C    -6.7451210   -3.3107820    1.1293660  
C    -7.3354700   -3.0861180   -0.0690900  
O    -8.4187400   -3.7430200   -0.5122410  
C    -6.8027490   -2.0592770   -1.0303260  
O    -7.3843870   -1.9205510   -2.1036120  
C    -5.6144130   -1.2596850   -0.6565730  
H    -7.1138680   -4.0580640    1.8231730  
H    -8.6078730   -3.3704450   -1.4012970  
H    -5.2645070   -0.5302250   -1.3800460  
H    -3.1093550   -1.5592520    3.2179160  
