62


C    -0.5016390    1.0413120    1.3325540  
C    -1.8047140    0.8485740    0.9227330  
C    -2.0549960    1.8401620   -0.1046660  
C    -0.8662140    2.5921190   -0.2614550  
N     0.0782590    2.0858400    0.6299240  
C    -0.7468980    3.6445400   -1.1747900  
C    -1.8601960    3.9560740   -1.9390760  
O    -1.8001460    4.9733390   -2.8460200  
C    -3.0706670    3.2308680   -1.7808920  
O    -4.0939320    3.6692480   -2.5982350  
C    -3.1806320    2.1894090   -0.8777760  
H     0.1646240    4.2198120   -1.2872460  
H    -2.6784410    5.0438900   -3.2582760  
H    -4.8953210    3.1546810   -2.4212630  
H    -4.1240780    1.6612610   -0.7642080  
H     0.0683540    0.5075840    2.0800420  
C     3.7488390   -0.0259300   -0.3964870  
C     4.6312290    0.9513630   -0.0068810  
C     3.8473260    2.0494460    0.4811010  
C     2.4872960    1.6662310    0.3709780  
N     2.4469610    0.3949100   -0.1607050  
C     1.4278910    2.5051710    0.7586330  
C     1.7578440    3.7597350    1.2688230  
O     0.7751920    4.6111640    1.6596280  
C     3.1193210    4.1528910    1.3787780  
O     3.2773480    5.4202140    1.8996780  
C     4.1569470    3.3225750    0.9999090  
H     5.7091080    0.8756520   -0.0372250  
H     1.6122420   -0.0893020   -0.4572550  
H     1.2054750    5.4252470    1.9754660  
H     4.2200350    5.6272870    1.9816360  
H     5.1891100    3.6515000    1.0966210  
C     4.8221670   -1.4635850   -2.1107480  
C     4.9389560   -2.7769020   -2.4206860  
C     4.1550200   -3.5221310   -1.4577830  
C     3.5683450   -2.5179000   -0.5365800  
N     3.9987150   -1.2687200   -0.9911230  
C     2.7867680   -2.8208380    0.5295800  
C     2.4833630   -4.2284570    0.7892810  
O     1.7958740   -4.5943210    1.7292850  
C     3.0731040   -5.3078780   -0.1894280  
O     2.8169980   -6.4856270    0.0034310  
C     3.9171330   -4.8500840   -1.2968630  
H     5.5041120   -3.1928020   -3.2421460  
H     2.3843800   -2.0765980    1.2081400  
H     4.3346510   -5.6042720   -1.9570440  
H     5.2457380   -0.5940770   -2.5948890  
C    -2.8736820   -0.5173820    2.7769200  
C    -2.7162080   -0.1404910    1.4771830  
C    -3.6369270   -1.0341170    0.7359780  
C    -4.2702650   -1.8721060    1.7940530  
N    -3.8158590   -1.5670500    2.9769940  
C    -5.2438460   -2.8832890    1.4724240  
C    -5.5515630   -3.0787260    0.1674770  
O    -6.4402340   -3.9887530   -0.2728680  
C    -4.9067180   -2.2740260   -0.9207890  
O    -5.2380740   -2.5031500   -2.0844200  
C    -3.9135180   -1.2362100   -0.5657700  
H    -5.6955700   -3.4701460    2.2646580  
H    -6.4404470   -3.8977140   -1.2505100  
H    -3.4636590   -0.6814260   -1.3832770  
H    -2.3782560   -0.0948820    3.6429150  
