62


C    -1.2367330   -0.6884790   -0.2094210  
C    -0.6807450    0.5885530   -0.1578370  
C    -1.8041640    1.4980920   -0.0287540  
C    -2.9783310    0.7119110   -0.0101100  
N    -2.5913270   -0.6054900   -0.1216190  
C    -4.2930320    1.2486180    0.1055350  
C    -4.3488040    2.6573710    0.2033160  
O    -5.5443540    3.2907990    0.3183400  
C    -3.1763240    3.4466490    0.1852650  
O    -3.4251120    4.8018410    0.2913470  
C    -1.9131190    2.8952520    0.0717620  
H    -3.2923170   -1.3442650   -0.1279270  
H    -5.3554780    4.2457880    0.3719030  
H    -2.5865540    5.2866750    0.2768330  
H    -1.0156270    3.5058860    0.0591780  
H    -0.7470860   -1.6473020   -0.3023890  
C     0.7154450    0.9134360   -0.2187100  
C     1.8087670    0.0819930   -0.3341830  
C     2.9642070    0.9287820   -0.3327090  
C     2.4009170    2.3039810   -0.1987250  
N     1.0993690    2.2969990   -0.1407050  
C     3.2399020    3.4740820   -0.1296170  
C     4.5736140    3.2747770   -0.1701200  
O     5.4890690    4.2524600   -0.0935380  
C     5.1843860    1.8917780   -0.3067000  
O     6.4186120    1.8642060   -0.3330810  
C     4.3221200    0.6986520   -0.4145720  
H     1.8066200   -0.9973260   -0.3762980  
H     2.8010700    4.4609730   -0.0341340  
H     6.3539670    3.7862160   -0.1666120  
C     4.3286510   -1.5465560   -1.5230100  
C     4.9065220   -0.6143990   -0.6742580  
C     6.1084610   -1.2428110   -0.1509990  
C     6.1773170   -2.5413010   -0.7148560  
N     5.0823860   -2.6898750   -1.5491160  
C     7.1914030   -3.4580810   -0.4148990  
C     8.1659330   -3.0573500    0.4845820  
O     9.1838760   -3.9039700    0.8122810  
C     8.1126800   -1.7650590    1.0692350  
O     9.1500790   -1.5082190    1.9462590  
C     7.1075780   -0.8660610    0.7684100  
H     4.8989060   -3.4934520   -2.1297660  
H     7.2370520   -4.4498740   -0.8530560  
H     9.7580510   -3.4310340    1.4393770  
H     9.0930390   -0.5902100    2.2501260  
H     7.1090390    0.1238060    1.2120280  
H     3.4485360   -1.4464050   -2.1410600  
C    -5.4719840    0.4155310    0.1215030  
C    -6.8055220    0.7421950    0.2247960  
C    -7.5273220   -0.4933950    0.1861770  
C    -6.4666320   -1.5488920    0.0506870  
N    -5.2801850   -1.0204290    0.0135150  
C    -6.7921230   -2.9477400   -0.0230990  
C    -8.1030020   -3.2815380    0.0346200  
O    -8.5673720   -4.5327330   -0.0208550  
C    -9.2027160   -2.2388550    0.1716360  
O   -10.3576860   -2.6720500    0.2130440  
C    -8.8447460   -0.8318280    0.2439960  
H    -7.2251190    1.7297060    0.3166680  
H    -6.0101270   -3.6926900   -0.1204900  
H    -9.5474670   -4.4377960    0.0455930  
H    -9.6507390   -0.1116440    0.3414780  
