58


C    -0.5507600   -0.7865130    3.0533360  
C     0.2475790    0.0853600    2.3797120  
C    -0.5464280    0.6744540    1.3244080  
C    -1.8933850    0.0897740    1.4531780  
N    -1.8314020   -0.7775520    2.5258550  
C    -2.9928030    0.3728470    0.6673830  
C    -2.7524630    1.3485580   -0.4133070  
O    -3.6201560    1.7238730   -1.1840200  
C    -1.3129350    1.9490570   -0.6059640  
O    -1.1077970    2.5989260   -1.6133340  
C    -0.2450900    1.6222300    0.3695930  
H     1.2785560    0.3107120    2.6044900  
H    -0.3202070   -1.4174920    3.9013550  
H    -2.5720470   -1.4195230    2.7668850  
C     3.9678060    0.1267020   -0.0796180  
C     2.5972520    0.2355180    0.0687270  
C     2.2593650    1.6248580    0.1153160  
C     3.5337050    2.3604290   -0.0458870  
N     4.5231440    1.4053030   -0.1255830  
C     3.6470020    3.7119290   -0.1290750  
C     2.4344370    4.5120160   -0.0519850  
O     2.4214440    5.7283340   -0.1601460  
C     1.0743920    3.7710920    0.2004210  
O     0.0857830    4.4347490    0.4511460  
C     1.0490070    2.2788930    0.2142760  
H     1.8979380   -0.5838640    0.0784110  
H     4.5937640    4.2213090   -0.2777660  
H     5.4853500    1.5595640   -0.3946040  
C    -4.8609790   -0.5188240    2.1317510  
C    -4.3115960   -0.1840100    0.9168790  
C    -5.3650610   -0.5771820   -0.0560650  
C    -6.4498010   -1.1424020    0.7932660  
N    -6.1448130   -1.0892380    2.0657560  
C    -7.6669980   -1.6639090    0.2365350  
C    -7.8060030   -1.6443550   -1.1115130  
O    -8.8812150   -2.1036240   -1.7681750  
C    -6.7268290   -1.0940300   -1.9995440  
O    -6.9148540   -1.1207570   -3.2137350  
C    -5.4898960   -0.5454530   -1.3963550  
H    -8.4338750   -2.0610710    0.8921430  
H    -8.6902720   -1.9551610   -2.7206860  
H    -4.7597380   -0.1177350   -2.0717180  
H    -4.4368790   -0.3321420    3.1120660  
C     3.3816350   -4.2191340    0.8655760  
C     3.1887030   -2.8730400    0.8383620  
C     4.3539970   -2.3340670    0.1608620  
C     5.1775120   -3.5439140   -0.1433380  
N     4.5965860   -4.6416850    0.2576900  
C     6.4537000   -3.4554990   -0.7979160  
C     6.9220050   -2.2243450   -1.1066810  
O     8.1134400   -2.0010120   -1.6854310  
C     6.1401900   -0.9836390   -0.7977240  
O     6.6898700    0.0920160   -1.0541280  
C     4.7666450   -1.0775010   -0.2089310  
H     2.3668640   -2.3222710    1.2703720  
H     7.0186190   -4.3565130   -1.0090410  
H     8.1997340   -1.0277290   -1.7671170  
H     2.7320400   -4.9713160    1.2976890  
