62


C     1.3577140    0.2283780   -2.2532670  
C     0.2151080    0.8585580   -1.8507540  
C     0.5319710    1.6213610   -0.6701130  
C     1.9115440    1.4197170   -0.4140580  
N     2.4023700    0.5387550   -1.3830040  
C     2.6038930    2.1032070    0.5906520  
C     1.8717790    2.9949330    1.3592840  
O     2.4804280    3.7067720    2.3429130  
C     0.4817850    3.1993420    1.1436310  
O    -0.0819950    4.1042560    2.0055410  
C    -0.2238610    2.5041430    0.1558090  
H    -0.7438950    0.7871680   -2.3426650  
H     3.6693210    1.9968920    0.7565700  
H     1.7891130    4.2957270    2.7041130  
H    -0.6961240    4.6648170    1.4687560  
H     1.5357450   -0.4488990   -3.0758240  
C    -3.4028080   -0.5314650   -0.1401500  
C    -4.4735840    0.2979800   -0.3934230  
C    -4.0005320    1.6531210   -0.3965150  
C    -2.5410760    1.5806500   -0.1317980  
N    -2.2515080    0.2498640    0.0140730  
C    -1.6871680    2.6583920   -0.0395360  
C    -2.3398860    3.9649060   -0.1010080  
O    -1.7746900    5.0241450    0.1835180  
C    -3.8522740    4.0703360   -0.5178670  
O    -4.3151250    5.1817150   -0.7273700  
C    -4.6289680    2.8448800   -0.6013300  
H    -5.4786760   -0.0088030   -0.6402480  
H    -5.6847510    2.9240740   -0.8401720  
H    -1.3216690   -0.1401090    0.0880320  
C    -6.5812160   -3.3918850    0.9757880  
C    -5.8531040   -4.5395810    0.8189430  
C    -4.5316200   -4.1461190    0.4203410  
C    -4.5240050   -2.7298610    0.3346430  
N    -5.7899920   -2.2990760    0.6640350  
C    -3.3677570   -1.9803230   -0.0068280  
C    -2.1985490   -2.7327230   -0.2106120  
O    -1.0247770   -2.1037790   -0.5126710  
C    -2.2001800   -4.1456560   -0.1381770  
O    -0.9657740   -4.7072450   -0.3974850  
C    -3.3457820   -4.8577550    0.1605880  
H    -6.2097120   -5.5484240    0.9727750  
H    -6.0293950   -1.3379150    0.8538670  
H    -0.3432960   -2.7893840   -0.6319890  
H    -1.0186370   -5.6715090   -0.3234340  
H    -3.3230510   -5.9441850    0.2109290  
H    -7.6098980   -3.2513610    1.2756430  
C     4.4343980    0.0005520   -2.6930410  
C     3.7179240    0.0963220   -1.5416590  
C     4.5660570   -0.5324190   -0.5063900  
C     5.7927340   -0.9246980   -1.2555390  
N     5.7039200   -0.6158370   -2.5202570  
C     6.8978000   -1.5703960   -0.5973370  
C     6.7717780   -1.8629500    0.7199950  
O     7.7189980   -2.4767770    1.4507910  
C     5.5276670   -1.5239280    1.4862680  
O     5.4785180   -1.8309270    2.6763220  
C     4.4154370   -0.8291120    0.7970770  
H     7.7882760   -1.8250400   -1.1614630  
H     7.3446800   -2.5496120    2.3556470  
H     3.5435160   -0.5754940    1.3916290  
H     4.1389510    0.3334060   -3.6802600  
