58


C     1.6992940   -3.3105030    1.5270720  
C     2.9098630   -2.8038090    1.1730250  
C     2.6787620   -1.5374110    0.5139430  
C     1.2172880   -1.3332050    0.5319000  
N     0.6827970   -2.4480740    1.1407080  
C     0.5449220   -0.2544190    0.0090020  
C     1.3841330    0.8174090   -0.5433580  
O     0.9426020    1.8952810   -0.9002810  
C     2.9420410    0.6120310   -0.6091780  
O     3.5976270    1.5026200   -1.1212850  
C     3.5492270   -0.6293270   -0.0634370  
H     3.8678430   -3.2574880    1.3718610  
H     1.4609660   -4.2325390    2.0398470  
H    -0.3033520   -2.5937760    1.2922580  
C    -2.6310470   -0.4565960    3.1442350  
C    -1.4431300   -0.4366080    2.4848200  
C    -1.7313910   -0.2128600    1.0808870  
C    -3.2019690   -0.0911800    0.9818800  
N    -3.6866430   -0.2791270    2.2597150  
C    -3.9073150    0.1460610   -0.1718490  
C    -3.1097630    0.3648880   -1.3915640  
O    -3.5942330    0.7637510   -2.4359660  
C    -1.5672250    0.1090680   -1.3368290  
O    -0.9593780    0.0307090   -2.3866340  
C    -0.9115700   -0.1044120   -0.0161550  
H    -0.4643600   -0.5326240    2.9298110  
H    -2.8301550   -0.5818750    4.2002460  
H    -4.6497120   -0.1299230    2.5243270  
C    -7.1625880    2.3593390    2.0186080  
C    -5.9289730    1.9387450    1.6348720  
C    -6.1719930    0.9864370    0.5564750  
C    -7.6603010    0.9732750    0.4225090  
N    -8.2304320    1.7709100    1.2852830  
C    -8.3293480    0.1764880   -0.5712480  
C    -7.5632560   -0.5790260   -1.3911880  
O    -8.0506970   -1.3720280   -2.3569060  
C    -6.0647870   -0.6414520   -1.2467820  
O    -5.4732760   -1.4731540   -1.9246590  
C    -5.3688690    0.2330260   -0.2439660  
H    -4.9698780    2.2819810    1.9966780  
H    -9.4106870    0.1989850   -0.6473630  
H    -7.2715420   -1.8274680   -2.7446850  
H    -7.4038970    3.0848170    2.7870630  
C     5.5638490   -2.1019150   -0.4367460  
C     4.9697630   -0.8825700   -0.2147630  
C     6.1208280    0.0545830   -0.1477310  
C     7.3113780   -0.8234370   -0.3342950  
N     6.9662640   -2.0740160   -0.5154550  
C     8.6537270   -0.3135110   -0.3142120  
C     8.8226790    1.0139660   -0.1002640  
O    10.0134340    1.6276820   -0.0482710  
C     7.6467510    1.9267420    0.1086470  
O     7.8771410    3.1165540    0.3127330  
C     6.2735450    1.3755540    0.0639770  
H     9.4896350   -0.9883510   -0.4607840  
H     9.8124100    2.5749780    0.1202680  
H     5.4576300    2.0777970    0.1777750  
H     5.0583030   -3.0459120   -0.5986420  
