64


C     2.5477890    3.0845500    0.0027580  
C     3.8418360    3.1581250   -0.4765200  
C     4.2702320    1.8246540   -0.7852900  
C     3.1835010    0.9625340   -0.4914200  
N     2.1510140    1.7513840   -0.0322620  
C     3.2108790   -0.4383580   -0.6668140  
C     4.4198410   -0.9646850   -1.1353490  
O     4.5499950   -2.3099610   -1.3517690  
C     5.5186290   -0.1201600   -1.4301430  
O     6.6311230   -0.8050310   -1.8927730  
C     5.4606270    1.2540140   -1.2763860  
H     4.4062930    4.0682090   -0.6278640  
H     1.3574550    1.3908370    0.4753630  
H     5.4256120   -2.4428910   -1.7565830  
H     7.2789890   -0.1714730   -2.2344080  
H     6.3236900    1.8710010   -1.5184980  
C     1.9481770    5.3436720    0.9690790  
C     1.6214990    4.0956960    0.4791220  
C     0.1763380    3.9930260    0.5578180  
C    -0.2988090    5.2099610    1.1072720  
N     0.8021680    6.0142180    1.3352210  
C    -1.6578310    5.4610770    1.3364680  
C    -2.5599520    4.4609040    1.0085520  
O    -3.8936140    4.6449710    1.2240290  
C    -2.1097600    3.2376780    0.4422500  
O    -3.1200490    2.3478370    0.1493090  
C    -0.7672170    3.0040250    0.2064090  
H     0.7761110    6.9318630    1.7511330  
H    -2.0199900    6.3918270    1.7613090  
H    -4.3395030    3.8244860    0.9482760  
H    -2.7533470    1.4661710   -0.0490070  
H    -0.4705030    2.0745640   -0.2683990  
H     2.9204700    5.7959000    1.1022820  
C     0.7429090   -0.8422500   -0.7806570  
C     2.0009350   -1.2358830   -0.4137150  
C     1.8408110   -2.4860760    0.3169110  
C     0.4610000   -2.7838230    0.3729820  
N    -0.2210450   -1.7488170   -0.3223350  
C    -0.0349750   -3.9095290    1.0325270  
C     0.8886750   -4.7483230    1.6472700  
O     0.4510040   -5.8613910    2.2992220  
C     2.2726170   -4.4602770    1.6017660  
O     3.0643340   -5.3817060    2.2526560  
C     2.7560620   -3.3382130    0.9480670  
H    -1.0915780   -4.1299490    1.0753950  
H     1.2336710   -6.3172290    2.6541880  
H     3.9959010   -5.1326690    2.1584230  
H     3.8213800   -3.1380970    0.8966770  
H     0.4460820    0.0057980   -1.3758410  
C    -1.5592550   -1.5753220   -0.5204420  
C    -2.1871220   -0.5437030   -1.2230020  
C    -3.5760070   -0.8529440   -1.1602000  
C    -3.6419570   -2.1089550   -0.3291830  
N    -2.4509480   -2.5140990    0.0337060  
C    -4.8844490   -2.7392340   -0.0055580  
C    -6.0099530   -2.1633220   -0.4989450  
O    -7.2411500   -2.6254850   -0.2982900  
C    -5.9820300   -0.8978610   -1.3544630  
O    -7.0878470   -0.4913760   -1.7318950  
C    -4.7149840   -0.2762720   -1.6524180  
H    -1.7278980    0.2170970   -1.8375120  
H    -4.9068670   -3.6379790    0.6002370  
H    -7.8224560   -1.9879930   -0.7837870  
H    -4.7205450    0.6304940   -2.2480900  
