60


C    -0.6386240   -0.3764020    3.1311730  
C    -0.0328370    0.5787010    2.3557710  
C    -0.9564460    0.9353180    1.3170500  
C    -2.1303730    0.1668430    1.5370680  
N    -1.9037680   -0.6228840    2.6437860  
C    -3.2915880    0.2429710    0.7358770  
C    -3.2237020    1.1774500   -0.3083810  
O    -4.2927550    1.3586650   -1.1299930  
C    -2.0839180    1.9849840   -0.5314980  
O    -2.2253060    2.8310470   -1.6087850  
C    -0.9144930    1.8698750    0.2347640  
H     0.9593640    0.9751850    2.5094440  
H    -2.5391090   -1.3313280    2.9773130  
H    -4.0369630    2.0900610   -1.7276100  
H    -1.8888890    3.7110640   -1.3287540  
H    -0.2721010   -0.9005340    4.0023050  
C     3.4490340    0.8565570   -0.1412470  
C     2.0790500    0.7537850   -0.0379280  
C     1.5726140    2.0984030   -0.0784140  
C     2.7976260    2.9364790   -0.2162810  
N     3.8841720    2.2245350   -0.2430350  
C     2.7289400    4.3733530   -0.3121080  
C     1.5014430    4.9367380   -0.3313850  
O     1.2866660    6.2584880   -0.4534450  
C     0.2491120    4.1106850   -0.2667080  
O    -0.8136850    4.7393370   -0.3983420  
C     0.3082930    2.6410520   -0.0446580  
H     1.4902320   -0.1474950    0.0429050  
H     3.6376410    4.9592120   -0.3902310  
H     0.3128520    6.3710930   -0.4777200  
C     4.4083400   -0.2116580   -0.1655630  
C     4.1591760   -1.5642110   -0.0842990  
C     5.4449690   -2.2052380   -0.1561260  
C     6.4142900   -1.0669260   -0.2826910  
N     5.8132470    0.0842110   -0.2875620  
C     7.8338250   -1.2982140   -0.3826080  
C     8.2658710   -2.5806780   -0.3587570  
O     9.5532360   -2.9456240   -0.4423340  
C     7.3126340   -3.7470560   -0.2322500  
O     7.8039780   -4.8764740   -0.2191710  
C     5.8716660   -3.4919010   -0.1318500  
H     3.2010350   -2.0556840    0.0126870  
H     8.5148830   -0.4595150   -0.4734320  
H     9.5461150   -3.9282700   -0.3981160  
H     5.2178710   -4.3541380   -0.0430130  
C    -5.0019190   -0.8618010    2.2520930  
C    -4.4812560   -0.5557250    1.0245000  
C    -5.3682600   -1.2759380    0.0807990  
C    -6.3613050   -1.9576800    0.9591600  
N    -6.1412500   -1.7028610    2.2212090  
C    -7.4090870   -2.7850970    0.4233030  
C    -7.4616220   -2.9486920   -0.9204950  
O    -8.3778350   -3.6954700   -1.5566970  
C    -6.4637740   -2.2895920   -1.8312050  
O    -6.5721030   -2.4885620   -3.0397060  
C    -5.4019520   -1.4352500   -1.2549200  
H    -8.1187580   -3.2597320    1.0917960  
H    -8.1594090   -3.6199230   -2.5116490  
H    -4.7203350   -0.9547070   -1.9463900  
H    -4.6631520   -0.4943620    3.2143280  
