62


C    -0.2299670   -0.4632450    3.0932880  
C    -1.5439110   -0.5868850    2.7180730  
C    -1.7438690    0.2756590    1.5892730  
C    -0.4926090    0.8890710    1.3117150  
N     0.4044400    0.4243560    2.2495560  
C    -0.2743580    1.8159410    0.2659400  
C    -1.4177700    2.1224160   -0.4732010  
O    -1.3464170    3.0649210   -1.4803740  
C    -2.6710230    1.5225590   -0.2270500  
O    -3.6691700    1.9685270   -1.0814010  
C    -2.8747180    0.5811860    0.7826370  
H    -2.2814190   -1.2169130    3.1930620  
H     1.3744220    0.6994800    2.2879460  
H    -2.2491450    3.1588530   -1.8389710  
H    -4.5328920    1.8490090   -0.6558420  
H     0.3082230   -0.9276580    3.9078960  
C     3.8220430   -0.0146360   -0.1868010  
C     2.4473050    0.2043220   -0.0745150  
C     2.2289440    1.6128620   -0.0541520  
C     3.5099470    2.2247150   -0.1762390  
N     4.4446280    1.2223720   -0.2346610  
C     3.6834810    3.6111250   -0.2471000  
C     2.5351280    4.3853760   -0.2214140  
O     2.6195090    5.7373890   -0.3103960  
C     1.2398530    3.8002040   -0.0960890  
O     0.2192980    4.7229730   -0.0535540  
C     1.0562930    2.4236440    0.0227670  
H     1.6740680   -0.5467590   -0.1312630  
H     5.4378640    1.3017330   -0.4185340  
H     4.6563830    4.0802390   -0.3461520  
H     1.6982120    6.0613480   -0.2991060  
H    -0.5125760    4.3854340   -0.6150690  
C     2.7541120   -4.1594060    0.8422910  
C     3.8898980   -4.7852890    0.4390640  
C     4.7913160   -3.7673810   -0.0556350  
C     4.0743610   -2.4853320    0.0769510  
N     2.8310780   -2.7916970    0.5982040  
C     4.5785200   -1.2479040   -0.2630570  
C     5.9923070   -1.2458250   -0.6992550  
O     6.6345640   -0.2198300   -0.8908500  
C     6.7407060   -2.6148160   -0.9267040  
O     7.8710320   -2.5727930   -1.3902420  
C     6.0582060   -3.8411620   -0.5591320  
H     4.0899440   -5.8460920    0.4799290  
H     6.5859430   -4.7803090   -0.6895510  
H     1.8567360   -4.5745270    1.2816910  
H     2.2133280   -2.1017110    1.0000600  
C    -4.8104280   -0.2515070    2.2171790  
C    -4.1876790   -0.0263710    1.0230070  
C    -5.1043480   -0.6381080    0.0304270  
C    -6.2347130   -1.1669130    0.8499880  
N    -6.0538570   -0.9311120    2.1203060  
C    -7.3508690   -1.8478930    0.2492480  
C    -7.3377840   -2.0277600   -1.0937510  
O    -8.3081550   -2.6510080   -1.7817970  
C    -6.2023170   -1.5308360   -1.9428060  
O    -6.2588770   -1.7307100   -3.1546000  
C    -5.0724190   -0.8183080   -1.3046380  
H    -8.1613050   -2.2105450    0.8718240  
H    -8.0208190   -2.6287620   -2.7207830  
H    -4.2789380   -0.4658320   -1.9554120  
H    -4.4581350    0.0428040    3.1982940  
