60


C    -0.9274690   -1.5991310   -0.6355280  
C     0.4362360   -1.6661540   -0.6484780  
C     0.9388390   -0.3266930   -0.4552470  
C    -0.2449010    0.5377250   -0.3086560  
N    -1.3459880   -0.2859590   -0.4279470  
C    -0.2341440    1.9013120   -0.1370780  
C     1.0877760    2.5132230    0.0323640  
O     1.2492570    3.6790450    0.3512590  
C     2.3703420    1.6165170   -0.1266250  
O     3.4493020    2.1757550   -0.0334180  
C     2.2303970    0.1621880   -0.3953660  
H     1.0274390   -2.5666970   -0.7022720  
H    -2.2974940    0.0455290   -0.4907390  
C    -1.6106300   -3.7389160   -1.6374110  
C    -2.6442080   -4.6083230   -1.6053290  
C    -3.6476060   -4.0661130   -0.7116260  
C    -3.1050410   -2.7819650   -0.2051030  
N    -1.8536440   -2.6165660   -0.8216650  
C    -3.7384200   -2.0006660    0.7034410  
C    -5.0530220   -2.4245320    1.1950830  
O    -5.6790780   -1.7812420    2.0214900  
C    -5.6617040   -3.7576980    0.6380450  
O    -6.7637690   -4.1155470    1.0181360  
C    -4.8609680   -4.5300910   -0.3187350  
H    -2.7175370   -5.5332480   -2.1589570  
H    -3.3377340   -1.0797770    1.1089140  
H    -5.2715600   -5.4692090   -0.6768040  
H    -0.6887150   -3.7767320   -2.2002200  
C    -4.1310630    1.8501700    2.1151720  
C    -2.8652720    1.5416420    1.7278470  
C    -2.5297170    2.5207660    0.7001450  
C    -3.7450610    3.3841000    0.6234220  
N    -4.6779160    2.9808620    1.4435020  
C    -3.8150220    4.5226390   -0.2546450  
C    -2.7386460    4.7848900   -1.0307040  
O    -2.6645490    5.8103560   -1.8940360  
C    -1.5234740    3.8944230   -1.0358390  
O    -0.6669930    4.1251300   -1.8818190  
C    -1.4380140    2.7353100   -0.0855500  
H    -2.2161250    0.7763230    2.1295030  
H    -4.7073420    5.1383090   -0.2752970  
H    -1.7979260    5.7109850   -2.3458210  
H    -4.7388390    1.3413440    2.8540980  
C     3.4536050   -1.6589390   -1.6200330  
C     3.4067650   -0.6546970   -0.6600710  
C     4.7231060   -0.6360670   -0.0402340  
C     5.4876040   -1.6547590   -0.6589400  
N     4.6862250   -2.2508860   -1.6198460  
C     6.8044020   -1.9590020   -0.2963910  
C     7.3703620   -1.2109980    0.7234870  
O     8.6521920   -1.4507590    1.1158790  
C     6.6206820   -0.1883150    1.3633570  
O     7.3165400    0.4702810    2.3570870  
C     5.3191680    0.1009860    1.0020420  
H     4.9910720   -2.9579020   -2.2713010  
H     7.3833070   -2.7399540   -0.7785260  
H     8.8635680   -0.8063870    1.8140680  
H     6.8068880    1.2394360    2.6533680  
H     4.7832800    0.9083930    1.4882800  
H     2.7043460   -1.9437180   -2.3441020  
