58


C    -1.8320660   -2.6643230    1.4627210  
C    -3.0630830   -2.2311270    1.0698180  
C    -2.8828440   -0.9609050    0.4146600  
C    -1.4324150   -0.6675430    0.5041060  
N    -0.8554050   -1.7309680    1.1697360  
C    -0.8218180    0.4844430    0.0718120  
C    -1.6788920    1.3792240   -0.7422480  
O    -1.2297950    2.2897190   -1.4141570  
C    -3.2267670    1.1201060   -0.8126330  
O    -3.8903150    1.8927460   -1.4760700  
C    -3.7857360   -0.0844760   -0.1543970  
H    -4.0005870   -2.7366450    1.2369450  
H    -1.5616710   -3.5861060    1.9614120  
H     0.1343500   -1.9331560    1.0135480  
C     3.0107330   -1.7603930   -0.1040980  
C     3.9413650   -0.7526410   -0.0372810  
C     3.1334140    0.4652940    0.1645860  
C     1.7205830   -0.0118660    0.1505340  
N     1.6868680   -1.3230580    0.0147430  
C     0.5839230    0.8759670    0.2826970  
C     0.9099420    2.1772250    0.5955070  
O     0.0097480    3.1056270    0.9050790  
C     2.3270940    2.6820620    0.6435210  
O     2.4953860    3.8686830    0.9128750  
C     3.4451130    1.7537020    0.3884210  
H     0.5148460    3.9399230    1.0388920  
H     4.4628990    2.1238370    0.4195360  
H     3.1979030   -2.8202930   -0.2294600  
C     5.3690530   -0.8410220   -0.1222860  
C     6.1612110   -1.9441590   -0.3466030  
C     7.5138430   -1.4667120   -0.3323590  
C     7.3840890    0.0101420   -0.0783560  
N     6.1387930    0.3664070    0.0415820  
C     8.5369010    0.8657290    0.0098170  
C     9.7531390    0.2910480   -0.1461040  
O    10.9122690    0.9534530   -0.0908170  
C     9.9182660   -1.1962990   -0.4042340  
O    11.0721700   -1.6089450   -0.5291420  
C     8.7328550   -2.0448220   -0.4893370  
H     5.8436490   -2.9646470   -0.5096520  
H     8.4184140    1.9276770    0.1936050  
H    11.6062730    0.2701910   -0.2400820  
H     8.8869290   -3.1030870   -0.6749810  
C    -5.2180420   -0.3129870   -0.1769740  
C    -5.8938890   -1.4969780   -0.3315410  
C    -7.2972380   -1.1611780   -0.2753950  
C    -7.3082660    0.3208070   -0.0516330  
N    -6.1076030    0.8126100   -0.0025790  
C    -8.5442290    1.0502880    0.0888990  
C    -9.7001470    0.3542360   -0.0130610  
O   -10.9226730    0.8981520    0.0870310  
C    -9.7192590   -1.1370840   -0.2553060  
O   -10.8223880   -1.6807700   -0.3297210  
C    -8.4504670   -1.8628730   -0.3799830  
H    -5.4776660   -2.4725770   -0.5380790  
H    -8.5256880    2.1212670    0.2567570  
H   -11.5469490    0.1470930   -0.0303950  
H    -8.5047010   -2.9350370   -0.5426670  
