60


C     0.7135660    1.5740590   -0.1313930  
C    -0.5735130    1.0616240   -0.1179230  
C    -0.4959700   -0.3654050   -0.1701310  
C     0.9439870   -0.6890850   -0.1940980  
N     1.6126420    0.5166430   -0.1836650  
C     1.4851960   -1.9466400   -0.1964570  
C     0.5232140   -3.0670510   -0.1369950  
O     0.8705380   -4.2184160    0.0526650  
C    -1.0052800   -2.7591730   -0.2772050  
O    -1.7461780   -3.6916650   -0.5245100  
C    -1.4696350   -1.3536700   -0.1690230  
H    -1.4796400    1.6275310    0.0254810  
H     2.6146770    0.6383710   -0.1587340  
C     4.7097500   -0.7923150    2.5951730  
C     5.7580940   -1.4115000    1.9953220  
C     5.2494750   -2.0696650    0.8088830  
C     3.7978930   -1.7712390    0.7633400  
N     3.5398740   -0.9719150    1.8624760  
C     2.9268430   -2.2326250   -0.1844120  
C     3.5064120   -3.0630460   -1.2667470  
O     2.8557290   -3.4351470   -2.2256410  
C     5.0366350   -3.4179740   -1.2113090  
O     5.5005210   -4.1457250   -2.0743720  
C     5.8444750   -2.8498350   -0.1328100  
H     6.7817220   -1.4224860    2.3403270  
H     6.9022030   -3.0936920   -0.1105550  
H     4.6843390   -0.2117830    3.5079640  
H     2.6152070   -0.7201120    2.1766300  
C    -2.8871660   -1.0737380   -0.1212460  
C    -3.5791930   -0.0106120   -0.6530870  
C    -4.9598840   -0.2170370   -0.2993070  
C    -4.9433560   -1.4833740    0.5037870  
N    -3.7483140   -1.9819990    0.6004200  
C    -6.1506800   -2.0245560    1.0768370  
C    -7.3082710   -1.3644420    0.8416690  
O    -8.5079110   -1.7524200    1.3001170  
C    -7.3577660   -0.0962020    0.0201140  
O    -8.4626060    0.4306610   -0.1307130  
C    -6.1185040    0.4459950   -0.5384840  
H    -3.1942920    0.7698530   -1.2935810  
H    -6.1122160   -2.9380290    1.6596060  
H    -9.1387050   -1.0767310    0.9625170  
H    -6.1924740    1.3643470   -1.1130900  
C    -1.3529460    5.3010330   -1.3143610  
C    -0.3671650    6.1760640   -0.9486210  
C     0.7194610    5.3915240   -0.4355210  
C     0.3216230    4.0303470   -0.5005040  
N    -0.9499710    4.0077200   -1.0271710  
C     1.1612950    2.9575670   -0.1007880  
C     2.4493750    3.3267980    0.3260860  
O     3.3542720    2.3703360    0.7042740  
C     2.8484170    4.6806290    0.4050280  
O     4.1357580    4.8443910    0.8784410  
C     2.0023160    5.7118580    0.0436880  
H    -0.4035880    7.2527980   -1.0365050  
H    -1.4183110    3.1725520   -1.3428740  
H     4.1825900    2.8337660    0.9265710  
H     4.3989150    5.7739960    0.8092080  
H     2.3310570    6.7462790    0.1145610  
H    -2.3242930    5.4842040   -1.7510580  
