58


C     1.7830560   -0.1489930   -0.4701820  
C     3.0773440   -0.2019080   -0.0272160  
C     3.3984040    1.1357530    0.4673770  
C     2.1684800    1.9475230    0.2989570  
N     1.2190090    1.1094790   -0.2985680  
C     2.0360760    3.2346920    0.6982140  
C     3.1970760    3.9071700    1.2798630  
O     3.1634040    5.0635630    1.6712160  
C     4.5346160    3.0993860    1.3841550  
O     5.5300630    3.6532460    1.8251790  
C     4.5336290    1.6972130    0.9593230  
H     1.1252070    3.8070540    0.5826000  
H     5.4504100    1.1390450    1.0937190  
H     1.2038320   -0.9330380   -0.9274310  
C    -2.3410710   -1.0505290    0.7102230  
C    -3.3365210   -0.3027970    0.1370180  
C    -2.6141040    0.8297900   -0.4927430  
C    -1.1826690    0.5480750   -0.1952910  
N    -1.0382020   -0.5480050    0.4935770  
C    -0.1113430    1.4299880   -0.6272190  
C    -0.4642190    2.5487150   -1.3254960  
O     0.4122790    3.4359080   -1.8200030  
C    -1.8946000    2.8764440   -1.5880250  
O    -2.1335920    3.9081220   -2.2174360  
C    -2.9630570    1.9610530   -1.1338540  
H    -0.1393660    4.1266840   -2.2527780  
H    -3.9798350    2.2379380   -1.3777250  
H    -2.4634800   -1.9468920    1.2986820  
C    -5.6131520   -2.5385880    3.1409120  
C    -6.8786340   -2.4442890    2.6788680  
C    -6.7773840   -1.6670410    1.4481020  
C    -5.3153620   -1.3612820    1.3206330  
N    -4.6501710   -1.8726570    2.3122410  
C    -4.7679730   -0.5724280    0.2079390  
C    -5.6950540   -0.1694460   -0.7175960  
O    -5.3945140    0.5194620   -1.8360480  
C    -7.1568040   -0.4709170   -0.6104880  
O    -7.8878540   -0.0610880   -1.5141370  
C    -7.6679820   -1.2423820    0.5349090  
H    -7.7841520   -2.8470390    3.1106870  
H    -6.2580610    0.6409390   -2.2953840  
H    -8.7361220   -1.4326290    0.5739760  
H    -5.2587850   -3.0394920    4.0333850  
C     3.1513140   -3.3464100   -3.0674580  
C     4.1604960   -4.1400640   -2.6464160  
C     4.6423360   -3.5211080   -1.4155960  
C     3.7762650   -2.3109090   -1.2464470  
N     2.9128050   -2.2187470   -2.2150450  
C     3.9320270   -1.3851120   -0.1223200  
C     4.8903640   -1.7324420    0.7908820  
O     5.1263840   -1.0471270    1.9258330  
C     5.7667620   -2.9340430    0.6405810  
O     6.5968350   -3.1520910    1.5250010  
C     5.6041940   -3.8228200   -0.5258500  
H     4.5439190   -5.0405380   -3.1056400  
H     5.8599730   -1.5307080    2.3688140  
H     6.2645210   -4.6820580   -0.5935330  
H     2.5287470   -3.4634960   -3.9462190  
