60


C     0.7901250    1.5148700   -0.7738010  
C    -0.5662290    1.4189900   -0.5536920  
C    -0.8538540    0.0405020   -0.2842970  
C     0.3798560   -0.6471120   -0.3281830  
N     1.3633440    0.2674210   -0.6465440  
C     0.5426420   -2.0269260   -0.0585630  
C    -0.6219530   -2.7143750    0.2740300  
O    -0.5603770   -4.0228830    0.6112770  
C    -1.8907390   -2.0684970    0.3221720  
O    -2.8883470   -2.9043840    0.6733070  
C    -2.0522990   -0.6883600    0.0247740  
H    -1.2379740    2.2610880   -0.5131070  
H     2.3224270    0.0394970   -0.8616610  
H    -1.4779890   -4.3189060    0.7603230  
H    -3.7393820   -2.3628820    0.7125680  
C     1.3074430    3.6295900   -1.9953540  
C     2.2388880    4.6133000   -1.9718200  
C     3.2089830    4.2709630   -0.9506400  
C     2.7486260    2.9907280   -0.3629780  
N     1.5875080    2.6333780   -1.0453360  
C     3.3748680    2.3442260    0.6529200  
C     4.6010230    2.9125840    1.1941800  
O     5.2379440    2.3781870    2.0927720  
C     5.1173260    4.2649650    0.5825060  
O     6.1399590    4.7632220    1.0232220  
C     4.3382930    4.8784660   -0.5015060  
H     2.2621700    5.4863120   -2.6077140  
H     3.0139160    1.4146390    1.0727290  
H     4.7005350    5.8180800   -0.9072950  
H     0.4359640    3.5117860   -2.6250170  
C    -3.3603230   -0.0890070    0.0223130  
C    -3.7981530    1.1619890   -0.3665950  
C    -5.2088260    1.1890900   -0.1533750  
C    -5.5389590   -0.1698900    0.3947420  
N    -4.4636140   -0.8986820    0.4852220  
C    -6.8747390   -0.5502610    0.7465880  
C    -7.8451170    0.3778120    0.5563770  
O    -9.1333820    0.1845310    0.8303900  
C    -7.5521700    1.7663320   -0.0025740  
O    -8.5282590    2.5121890   -0.1250310  
C    -6.1887900    2.1186650   -0.3455710  
H    -3.2198900    1.9618580   -0.7980130  
H    -7.0859780   -1.5370000    1.1429970  
H    -9.5729010    1.0345030    0.5842700  
H    -6.0086940    3.1127120   -0.7417040  
C     4.4027130   -1.2079410    1.9294990  
C     5.1612230   -2.1704040    1.3484830  
C     4.3066090   -2.9214970    0.4517860  
C     2.9621890   -2.3018410    0.5492450  
N     3.0907840   -1.2532100    1.4460780  
C     1.8521410   -2.7039680   -0.1414070  
C     2.0344460   -3.8407990   -1.0756340  
O     1.1589260   -4.2206320   -1.8309010  
C     3.4376720   -4.5488080   -1.1397510  
O     3.5607490   -5.5334420   -1.8506370  
C     4.5381480   -3.9893130   -0.3573700  
H     6.2167620   -2.3359450    1.5078900  
H     5.5100370   -4.4666730   -0.4361950  
H     4.6888110   -0.4260010    2.6215170  
H     2.3019400   -0.8141650    1.8982510  
