58


C     1.8877710   -0.3305760   -0.0932360  
C     3.2406760   -0.1347870   -0.0576190  
C     3.4428870    1.3159310    0.0077640  
C     2.0914980    1.9228310   -0.0025460  
N     1.1758960    0.8607560   -0.0574330  
C     1.8426360    3.2504420    0.0756860  
C     2.9801300    4.1692770    0.1353240  
O     2.8491550    5.3793870    0.2200630  
C     4.4211500    3.5549650    0.0899390  
O     5.3872450    4.2993160    0.1088130  
C     4.5537130    2.0930320    0.0396960  
H     0.8459400    3.6750720    0.0723820  
H     5.5570240    1.6858910    0.0611500  
H     1.3487190   -1.2672440   -0.1368170  
C    -1.7938160   -0.8763060    2.6460550  
C    -0.6347200   -0.4838970    2.0516000  
C    -0.9914170    0.2964370    0.8909570  
C    -2.4681840    0.3196540    0.8504470  
N    -2.8941100   -0.3908430    1.9529510  
C    -3.2125980    0.9636620   -0.1041050  
C    -2.4822470    1.7290580   -1.1255130  
O    -3.0367020    2.4202000   -1.9622340  
C    -0.9078900    1.6737900   -1.1342420  
O    -0.3217370    2.2187440   -2.0504560  
C    -0.2308350    0.9564340   -0.0421000  
H     0.3647670   -0.6887440    2.4040100  
H    -1.9404520   -1.4626370    3.5431390  
H    -3.8523650   -0.6633300    2.1188720  
C    -5.4211920    2.0963560   -0.3319420  
C    -6.7366270    1.7853100   -0.3001910  
C    -6.8474140    0.3560400   -0.1048250  
C    -5.4569650   -0.1586470   -0.0283670  
N    -4.6182500    0.9501830   -0.1417750  
C    -5.1420760   -1.4769630    0.0888690  
C    -6.2309480   -2.4508530    0.1892600  
O    -6.0317660   -3.6500540    0.2985250  
C    -7.7066310   -1.9179990    0.1608570  
O    -8.6259660   -2.7106890    0.2794730  
C    -7.9156460   -0.4769880   -0.0160990  
H    -7.5578260    2.4790340   -0.4078780  
H    -4.1281990   -1.8599260    0.0601680  
H    -8.9396390   -0.1220050   -0.0816450  
H    -4.9400220    3.0514400   -0.4746130  
C     3.5859470   -3.8884840   -2.4443480  
C     3.1624740   -2.6758600   -2.0106580  
C     4.0964960   -2.3007900   -0.9532090  
C     5.0507900   -3.4449790   -0.8989130  
N     4.7442850   -4.3720440   -1.7632950  
C     6.1661030   -3.4649900    0.0126580  
C     6.3329070   -2.3970980    0.8246950  
O     7.3348870   -2.2747180    1.7120090  
C     5.3822140   -1.2321850    0.8110940  
O     5.5959050   -0.3266820    1.6138540  
C     4.2165020   -1.2210200   -0.1299390  
H     2.3398250   -2.0868930   -2.3900080  
H     6.8432070   -4.3117620    0.0241560  
H     7.1875700   -1.4159080    2.1637790  
H     3.1604090   -4.4981470   -3.2325070  
