64


C     2.1958370   -0.8538560    0.4443750  
C     1.2077660    0.0863240    0.3432240  
C     1.8376400    1.3627650    0.1053060  
C     3.2324990    1.1285230    0.0806920  
N     3.4398480   -0.2395890    0.3115250  
C     4.1508040    2.1474190   -0.1922460  
C     3.6504340    3.4237940   -0.4087820  
O     4.5103660    4.4485850   -0.6776900  
C     2.2567030    3.6758810   -0.3577390  
O     1.9143910    4.9938430   -0.5838740  
C     1.3483280    2.6633190   -0.1042850  
H     5.2192730    1.9846160   -0.2301400  
H     3.9712330    5.2456220   -0.8207490  
H     0.9507760    5.0715210   -0.6480870  
H     0.2804820    2.8646780   -0.0893300  
H     2.1234190   -1.9194730    0.5859850  
C    -0.7406090   -0.7926550    1.6057600  
C    -2.0957160   -0.8888830    1.4391100  
C    -2.4148880   -0.2827050    0.1720960  
C    -1.1860310    0.1490450   -0.3922880  
N    -0.1702010   -0.1583650    0.5088740  
C    -1.0916350    0.7204690   -1.6671160  
C    -2.2730210    0.8582600   -2.3766620  
O    -2.2633720    1.3942210   -3.6295150  
C    -3.5208030    0.4538220   -1.8291920  
O    -4.5960110    0.6961980   -2.6597150  
C    -3.6283690   -0.0983370   -0.5508160  
H    -2.7843670   -1.3576000    2.1272200  
H    -0.1483240    1.0186490   -2.1094240  
H    -3.1913670    1.3554560   -3.9313400  
H    -5.1639820   -0.1048650   -2.6502450  
H    -0.1083430   -1.1085640    2.4231130  
C    -5.3524540    1.0002040    3.3680600  
C    -6.5650010    0.3744090    3.2339550  
C    -6.5676430   -0.2624040    1.9482380  
C    -5.3104480    0.0122290    1.3443860  
N    -4.6013760    0.7984980    2.2284430  
C    -4.9446980   -0.4331610    0.0514390  
C    -5.9297190   -1.1646020   -0.6112490  
O    -5.6938430   -1.6302110   -1.8942010  
C    -7.1882010   -1.4504160   -0.0314940  
O    -8.0216030   -2.1909650   -0.8539970  
C    -7.5204240   -1.0160480    1.2360870  
H    -7.3670360    0.3749530    3.9592330  
H    -3.6357280    1.0620520    2.1008920  
H    -6.4891520   -2.1236100   -2.1658190  
H    -8.8492020   -2.3807090   -0.3884810  
H    -8.4956400   -1.2411640    1.6628140  
H    -4.9568160    1.5851160    4.1866090  
C     4.6064350   -3.9623960   -1.5760280  
C     5.9016580   -4.0628370   -1.2030020  
C     6.1532160   -2.8886300   -0.3715710  
C     4.8426350   -2.1686300   -0.3582680  
N     3.9472820   -2.7986740   -1.0574340  
C     4.6692370   -0.9151960    0.3689500  
C     5.7447840   -0.4595380    1.0782420  
O     5.7233550    0.6466250    1.8439570  
C     7.0599340   -1.1631770    1.0655950  
O     7.9725610   -0.6796610    1.7385320  
C     7.2205020   -2.4135350    0.2952730  
H     6.6159550   -4.8333370   -1.4576580  
H     6.6320310    0.7156690    2.2140670  
H     8.1957680   -2.8899060    0.3218200  
H     4.0328850   -4.6380070   -2.1986300  
