60


C     0.7230380    1.4420060   -0.3512590  
C     1.2819540    2.6660030   -0.7229190  
C     2.6948390    2.5040890   -0.7483270  
C     2.9652140    1.1545700   -0.3824060  
N     1.7607320    0.5439860   -0.1460250  
C     4.2755780    0.6403130   -0.2699140  
C     5.3136590    1.5254350   -0.5694010  
O     6.5974690    1.0853360   -0.5434620  
C     5.0546080    2.8717950   -0.9492700  
O     6.1996930    3.5936940   -1.2146510  
C     3.7718530    3.3690200   -1.0377390  
H     0.7418350    3.5457200   -1.0427400  
H     1.5856770   -0.4349570    0.0482440  
H     7.1732170    1.8468260   -0.7336840  
H     5.9672440    4.5057000   -1.4436410  
H     3.5978230    4.4032260   -1.3269980  
C    -2.9271530    3.7774650    0.3098240  
C    -3.8436190    2.7745500    0.2971860  
C    -3.1368000    1.5325180    0.1036840  
C    -1.7160790    1.9043110   -0.0291570  
N    -1.6515410    3.2799980    0.0722610  
C    -0.6585580    1.0383880   -0.2027600  
C    -1.0396370   -0.3799320   -0.1777620  
O    -0.2379510   -1.3014690   -0.0995460  
C    -2.5595770   -0.7726480   -0.2909490  
O    -2.7678110   -1.9361550   -0.6291100  
C    -3.5915930    0.2216980   -0.0023850  
H    -4.9054930    2.8941980    0.4314300  
H    -3.0743030    4.8394530    0.4536870  
H    -0.7953020    3.7621260    0.3063280  
C    -6.3507430   -2.6129740   -2.0764790  
C    -7.4930970   -2.3464100   -1.3918480  
C    -7.1660180   -1.3614840   -0.3870120  
C    -5.7198230   -1.0596780   -0.5609280  
N    -5.2979440   -1.8233520   -1.6305950  
C    -5.0059410   -0.1460760    0.1837000  
C    -5.7515050    0.4382900    1.3303710  
O    -5.2150980    1.0995480    2.2041000  
C    -7.3021990    0.1985690    1.4608680  
O    -7.9093510    0.8304770    2.3128930  
C    -7.9301970   -0.7513100    0.5602020  
H    -8.4659520   -2.7854470   -1.5585180  
H    -8.9950350   -0.9344360    0.6653840  
H    -6.1845480   -3.3123480   -2.8856220  
H    -4.3161780   -2.0805500   -1.6954830  
C     3.1413560   -3.4458790   -1.7221480  
C     3.2414370   -2.0986390   -1.6270990  
C     4.0735400   -1.8612980   -0.4506660  
C     4.3958370   -3.2357490    0.0430980  
N     3.8530700   -4.1548410   -0.7037030  
C     5.2313650   -3.4524710    1.1960880  
C     5.7161510   -2.3624860    1.8319310  
O     6.4990420   -2.4106230    2.9229790  
C     5.3877910   -0.9624250    1.3814620  
O     5.7983150   -0.0418600    2.0803310  
C     4.5563210   -0.7457440    0.1537680  
H     2.8106140   -1.3492090   -2.2751210  
H     5.4495590   -4.4616530    1.5271750  
H     6.6518070   -1.4728550    3.1729520  
H     2.6023460   -4.0207890   -2.4657470  
