62


C     1.3101290   -0.3734210   -0.9588370  
C     2.6137720    0.0018820   -0.7141380  
C     2.5430280    1.1988290    0.1014500  
C     1.1729560    1.4818340    0.3141460  
N     0.4288790    0.5055940   -0.3502870  
C     0.7300310    2.5706720    1.0730960  
C     1.6941700    3.4091860    1.6117530  
O     1.3172790    4.4833760    2.3606770  
C     3.0736270    3.1613540    1.3846260  
O     3.9093530    4.0913140    1.9685050  
C     3.5038100    2.0777070    0.6402450  
H    -0.3198020    2.7800800    1.2431640  
H     2.1279540    4.9519430    2.6247620  
H     4.8309980    3.8829100    1.7551080  
H     4.5657650    1.9184510    0.4706640  
H     0.9291120   -1.2185050   -1.5141270  
C    -1.6872010   -0.6644210    0.1402010  
C    -0.9727710    0.3813820   -0.3565660  
C    -1.9163240    1.3123690   -0.9536180  
C    -3.2532980    0.7024010   -0.7589980  
N    -3.0540660   -0.4970300   -0.0784920  
C    -4.4118930    1.2576040   -1.2017820  
C    -4.3456760    2.5369380   -1.9072530  
O    -5.3359490    3.1087220   -2.3360400  
C    -2.9351080    3.1974910   -2.1187610  
O    -2.8625520    4.2655170   -2.7042480  
C    -1.7558190    2.4942210   -1.6018040  
H    -5.3810260    0.7856610   -1.0841340  
H    -0.7824010    2.9472610   -1.7594850  
H    -1.3317910   -1.5518880    0.6435520  
C    -6.6303410   -0.0333250    2.4375390  
C    -7.0612440   -1.3296420    2.3450920  
C    -6.1254390   -2.0290460    1.5102300  
C    -5.1367680   -1.0850210    1.1249390  
N    -5.4605680    0.1178940    1.7125860  
C    -4.0529040   -1.4358400    0.2976890  
C    -3.9692120   -2.7594890   -0.1325970  
O    -2.9315520   -3.1465830   -0.9297190  
C    -4.9437630   -3.7082270    0.2651450  
O    -4.7073050   -4.9737520   -0.2345580  
C    -6.0123640   -3.3622160    1.0707500  
H    -7.9406100   -1.7432240    2.8186590  
H    -4.9845260    0.9916310    1.5494000  
H    -3.0698280   -4.0877760   -1.1380210  
H    -5.4547670   -5.5533640   -0.0257650  
H    -6.7452070   -4.1105360    1.3641670  
H    -7.0561160    0.8083660    2.9648340  
C     3.9768540   -1.2505510   -2.4516400  
C     3.7873330   -0.6886820   -1.2248320  
C     5.0276010   -1.0254270   -0.4862000  
C     5.8468240   -1.7897740   -1.4689390  
N     5.2237500   -1.9212030   -2.6066910  
C     7.1477060   -2.3043040   -1.1274100  
C     7.6011070   -2.1029350    0.1335250  
O     8.7940600   -2.5312530    0.5866750  
C     6.7845810   -1.3683960    1.1539020  
O     7.2617990   -1.2201810    2.2793190  
C     5.4530910   -0.8433810    0.7778930  
H     7.7267930   -2.8452920   -1.8678150  
H     8.8336680   -2.2408790    1.5238870  
H     4.8886080   -0.3273780    1.5482680  
H     3.2971810   -1.2201580   -3.2949080  
