58


C    -0.2468060    1.7696220    0.0736310  
C    -0.6239960    3.0811380    0.0285600  
C    -2.0695320    3.0752690    0.1358530  
C    -2.4311380    1.6283840    0.2345280  
N    -1.3727310    0.8802470    0.1883780  
C    -3.8214960    1.1658400    0.3474980  
C    -4.7568720    2.1696340    0.3702430  
O    -6.0810030    1.9573200    0.5188500  
C    -4.4183920    3.6170370    0.2733380  
O    -5.3474630    4.4291600    0.3177290  
C    -3.0123120    4.0373680    0.1459210  
H     0.0123140    3.9533200   -0.0203000  
H    -6.4799920    2.8579280    0.5163020  
H    -2.8131640    5.1017480    0.0671470  
C     3.4845870    2.8122820   -2.1321440  
C     2.2023140    2.8275130   -1.6901800  
C     2.1123290    1.7300940   -0.7409570  
C     3.4867690    1.1327830   -0.7517470  
N     4.2792450    1.7743740   -1.5615780  
C     3.8295790   -0.0356050    0.0365050  
C     2.8289350   -0.5574420    0.8003280  
O     2.9980840   -1.5997130    1.6194350  
C     1.4424430    0.0331490    0.8585170  
O     0.6643910   -0.4829050    1.6532150  
C     1.0998110    1.2194020    0.0163830  
H     1.4033360    3.4876540   -1.9929540  
H     2.1262080   -1.7432610    2.0519330  
H     3.9463040    3.4739210   -2.8554120  
C     8.0210950    1.3518860    0.8425950  
C     6.6778920    1.3583020    0.6836730  
C     6.3373590    0.0044400    0.2590660  
C     7.6588620   -0.7019590    0.2183930  
N     8.6347460    0.0864580    0.5638950  
C     7.7680260   -2.0909550   -0.1441650  
C     6.6283230   -2.7495760   -0.4524240  
O     6.5782140   -4.0403720   -0.8202530  
C     5.2837330   -2.0714250   -0.4297450  
O     4.3156500   -2.7363940   -0.7859260  
C     5.1758420   -0.6398250   -0.0132400  
H     5.9921290    2.1817230    0.8130310  
H     8.7394120   -2.5721430   -0.1661760  
H     5.6297700   -4.2238440   -0.9988820  
H     8.6589270    2.1731950    1.1472160  
C    -3.2483870   -1.2180550    0.9487800  
C    -4.1035740   -0.2570250    0.4640000  
C    -5.3107740   -1.0224840    0.0750390  
C    -4.9731920   -2.4333340    0.4364960  
N    -3.7758140   -2.5263980    0.9511160  
C    -5.8814350   -3.5239690    0.2122790  
C    -7.0685210   -3.2475540   -0.3787140  
O    -8.0080430   -4.1617570   -0.6595920  
C    -7.4275790   -1.8460170   -0.7888800  
O    -8.5174900   -1.6728040   -1.3310080  
C    -6.4803190   -0.7409760   -0.5320760  
H    -5.5969730   -4.5293060    0.5021450  
H    -8.7396700   -3.6619140   -1.0851530  
H    -6.7945480    0.2517040   -0.8260670  
H    -2.2423460   -1.0614210    1.3107680  
