60


C     1.0214580   -2.0645010    0.0487780  
C     1.6314900   -3.2357030    0.4256110  
C     3.0443970   -3.0360170    0.2649520  
C     3.2325470   -1.7070230   -0.1860540  
N     1.9788330   -1.1268350   -0.3030940  
C     4.4957120   -1.1420910   -0.4655980  
C     5.5874720   -2.0048790   -0.3171120  
O     6.8450050   -1.5600170   -0.5944650  
C     5.4167670   -3.3376780    0.1404560  
O     6.6034390   -4.0347320    0.2545570  
C     4.1731130   -3.8592120    0.4435310  
H     1.1335810   -4.1200220    0.7980600  
H     1.7852570   -0.2716090   -0.8026810  
H     7.4604660   -2.2809770   -0.3732690  
H     6.4332800   -4.9114060    0.6294850  
H     4.0728270   -4.8847790    0.7917950  
C    -1.2949170   -2.6704480   -0.5626550  
C    -2.5354800   -2.1255880   -0.5788080  
C    -2.4220420   -0.7716580   -0.0740610  
C    -0.9909510   -0.5746250    0.2557570  
N    -0.3439850   -1.7713570   -0.0626640  
C    -0.4676290    0.5770450    0.7517820  
C    -1.3554180    1.7191350    0.9322730  
O    -0.9597410    2.8175330    1.2906240  
C    -2.8855330    1.5188220    0.6580350  
O    -3.6581030    2.4033940    0.9746890  
C    -3.3492220    0.2224420    0.0894300  
H    -3.4340710   -2.5974570   -0.9467650  
H     0.5779570    0.7041700    1.0033280  
H    -0.9602150   -3.6438660   -0.8937530  
C    -6.4466480   -2.5417630    1.6082790  
C    -7.5162470   -2.0858500    0.9082300  
C    -7.0516260   -0.9999120    0.0692990  
C    -5.5992240   -0.8633600    0.3392620  
N    -5.2940370   -1.8390770    1.2685880  
C    -4.7801360    0.0753610   -0.2217620  
C    -5.3956520    0.9865660   -1.2119830  
O    -4.7437440    1.7867620   -1.8587330  
C    -6.9387820    0.8736780   -1.4868140  
O    -7.4534780    1.6592910   -2.2662330  
C    -7.6923990   -0.1764620   -0.8027150  
H    -8.5289100   -2.4570730    0.9672190  
H    -8.7566240   -0.2489450   -1.0048550  
H    -6.3931220   -3.3353940    2.3418600  
H    -4.3935450   -1.9399580    1.7103110  
C     5.3837470    0.8006060   -1.8836600  
C     4.6531740    0.2605360   -0.8687050  
C     4.0769360    1.4331000   -0.1843050  
C     4.5513890    2.6025690   -0.9878680  
N     5.3160650    2.2214120   -1.9724100  
C     4.1859380    3.9507570   -0.6414580  
C     3.4323400    4.1403890    0.4692910  
O     3.0233220    5.3393560    0.9068900  
C     3.0026730    2.9881570    1.3396630  
O     2.3602750    3.2397040    2.3546160  
C     3.3676180    1.6100980    0.9469620  
H     4.5219470    4.7777930   -1.2570170  
H     2.4941140    5.1622930    1.7156650  
H     3.0508340    0.8069320    1.6051880  
H     5.9930920    0.2660220   -2.6012680  
