60


C     1.4783010   -1.4538560   -1.6932690  
C     0.7691890   -0.6769560   -0.8010780  
C     1.7437190    0.1339410   -0.1039820  
C     3.0152940   -0.1980800   -0.6304700  
N     2.8181320   -1.1634920   -1.5971900  
C     4.2302710    0.3635060   -0.1696910  
C     4.1054540    1.2889060    0.8714590  
O     5.2141740    1.9073060    1.3711600  
C     2.8393090    1.6241660    1.4178520  
O     2.9129870    2.5486800    2.4402940  
C     1.6655570    1.0652340    0.9510500  
H     3.5601080   -1.6216240   -2.1043740  
H     4.9090510    2.5441140    2.0420960  
H     2.0237450    2.8516100    2.6767900  
H     0.7120940    1.3320500    1.3996270  
H     1.1168460   -2.1703280   -2.4174010  
C    -1.4650270   -1.8142930   -0.4650220  
C    -0.6792980   -0.7120800   -0.6075670  
C    -1.5904050    0.4338100   -0.5891170  
C    -2.9556530   -0.1060830   -0.3983630  
N    -2.8130450   -1.4615340   -0.3156840  
C    -4.1137780    0.6481930   -0.3416500  
C    -3.9548440    2.0845970   -0.6206550  
O    -4.8934300    2.8579570   -0.7739510  
C    -2.5074630    2.6821580   -0.7430130  
O    -2.3856460    3.8914110   -0.8354090  
C    -1.3686990    1.7636780   -0.7498700  
H    -0.3769190    2.1805700   -0.8891210  
H    -1.1762440   -2.8557570   -0.4280410  
H    -3.5903880   -2.1045370   -0.3674540  
C    -5.4211350    0.0756350   -0.0769960  
C    -5.7630430   -1.1282100    0.5129690  
C    -7.1969680   -1.2057030    0.5649250  
C    -7.6968130    0.0523550   -0.0443560  
N    -6.5805780    0.7670460   -0.4205750  
C    -9.0101390    0.3697830   -0.1732250  
C   -10.0058720   -0.5816100    0.3127380  
O   -11.2090960   -0.3825880    0.2379650  
C    -9.4983190   -1.9228710    0.9601460  
O   -10.3200900   -2.7301920    1.3697960  
C    -8.0566920   -2.1490250    1.0441480  
H    -5.0904230   -1.8349500    0.9760170  
H    -9.3580670    1.2959660   -0.6197710  
H    -7.7182170   -3.0765600    1.4964550  
H    -6.5421940    1.7283700   -0.7375970  
C     5.7869210   -0.1828570   -2.1021290  
C     5.5146680    0.0008660   -0.7771740  
C     6.7936290   -0.3291910   -0.1080320  
C     7.7121340   -0.6876500   -1.2271830  
N     7.1169800   -0.5959320   -2.3845020  
C     9.0766650   -1.0824180   -0.9919550  
C     9.5069930   -1.1405810    0.2908480  
O    10.7486650   -1.4975470    0.6572750  
C     8.5989580   -0.8034340    1.4404630  
O     9.0594610   -0.8833550    2.5777870  
C     7.2038600   -0.3904460    1.1717750  
H     9.7205320   -1.3281670   -1.8291440  
H    10.7574360   -1.4441120    1.6381420  
H     6.5893750   -0.1300720    2.0254720  
H     5.1160140   -0.0114690   -2.9368300  
