60


C     2.2470200    2.7089950   -0.4089380  
C     3.2899010    2.8699640   -1.3101800  
C     3.9281420    1.6074140   -1.4707040  
C     3.2401790    0.6814850   -0.6387480  
N     2.2098860    1.3666720   -0.0298210  
C     3.6248300   -0.6685150   -0.4949750  
C     4.7251530   -1.0722890   -1.2619410  
O     5.1167520   -2.3681720   -1.2383800  
C     5.4090270   -0.1626840   -2.1166080  
O     6.4542120   -0.7422670   -2.8049360  
C     5.0300790    1.1581730   -2.2301910  
H     3.5271520    3.7882570   -1.8295880  
H     1.7005330    1.0189720    0.7687830  
H     5.9383110   -2.4382370   -1.7562740  
H     6.9582730   -0.0591270   -3.2714760  
H     5.5710100    1.8361030   -2.8865620  
C    -0.6347740   -1.9087210    0.0497980  
C     0.5449330   -1.3630390   -0.4093120  
C     1.6048240   -1.8370180    0.4384480  
C     0.9659410   -2.7356560    1.4345860  
N    -0.3794450   -2.7243760    1.1471060  
C     1.6320840   -3.4238170    2.3982180  
C     3.0754900   -3.2713980    2.4759080  
O     3.7770880   -3.8847220    3.2665300  
C     3.7691700   -2.2496650    1.5028970  
O     4.9427900   -1.9831080    1.6865570  
C     2.9598690   -1.5986100    0.4351330  
H     0.6547300   -0.7107860   -1.2625270  
H     1.1429070   -4.0966300    3.0952920  
H    -1.1177240   -3.2146560    1.6322000  
C    -1.9910830   -1.7525150   -0.4026500  
C    -2.4919860   -1.0156930   -1.4412850  
C    -3.9208030   -1.2156240   -1.3962270  
C    -4.1329780   -2.1384430   -0.2315480  
N    -3.0057380   -2.4507690    0.3382320  
C    -5.4467330   -2.5861160    0.1472960  
C    -6.4952440   -2.1417630   -0.5854990  
O    -7.7702660   -2.4706880   -0.3510230  
C    -6.3139690   -1.2107000   -1.7661990  
O    -7.3297040   -0.8657940   -2.3682290  
C    -4.9637980   -0.7702960   -2.1360000  
H    -1.9484260   -0.4044640   -2.1479440  
H    -5.5747730   -3.2524750    0.9928140  
H    -8.2932470   -2.0003340   -1.0391880  
H    -4.8718120   -0.1046030   -2.9884350  
C     1.4162930    5.0232960    0.1966690  
C     1.2941790    3.6648140    0.0866890  
C    -0.0935810    3.3913240    0.5454970  
C    -0.6267070    4.7297370    0.9030600  
N     0.2603760    5.6681160    0.6877020  
C    -1.9664210    4.8988830    1.3933690  
C    -2.7568870    3.7998370    1.4906850  
O    -4.0303730    3.8235650    1.9298610  
C    -2.2653390    2.4469740    1.0954880  
O    -3.0401500    1.4912420    1.1847610  
C    -0.8742190    2.2957270    0.6103840  
H    -2.3236880    5.8875350    1.6601030  
H    -4.3382290    2.8930090    1.8803990  
H    -0.5687900    1.2940760    0.3224840  
H     2.2898730    5.6210560   -0.0324590  
