64


C    -0.4717320    1.1621980   -0.6132800  
C    -0.4685760    2.5455240   -0.7316620  
C    -1.8125260    2.9934400   -0.5505290  
C    -2.6073700    1.8366920   -0.3179650  
N    -1.7705400    0.7574030   -0.3613180  
C    -4.0168800    1.8900960   -0.0964580  
C    -4.5800930    3.1863330   -0.1250950  
O    -5.9154340    3.3602660    0.0709830  
C    -3.7909410    4.3348670   -0.3569100  
O    -4.5145370    5.5155470   -0.3424390  
C    -2.4260260    4.2583760   -0.5673430  
H     0.3762750    3.1590480   -1.0120080  
H    -2.1104450   -0.1961500   -0.2817530  
H    -6.0903920    4.3157010   -0.0071620  
H    -3.9430470    6.2505320   -0.6081550  
H    -1.8450840    5.1620840   -0.7417840  
C     3.7813420    1.6966780    0.3693920  
C     4.2382500    0.4494880   -0.0058790  
C     3.0775010   -0.2748150   -0.4754560  
C     1.9643250    0.5931010   -0.3704430  
N     2.4264100    1.7942660    0.1267690  
C     0.6396730    0.2151870   -0.6986680  
C     0.4814050   -1.1145000   -1.1042360  
O    -0.7623540   -1.5919750   -1.4185470  
C     1.5882010   -1.9921120   -1.2162680  
O     1.2419880   -3.2598510   -1.6515490  
C     2.8760440   -1.5948650   -0.9198580  
H     1.8233020    2.5418350    0.4346480  
H    -0.6477720   -2.5137140   -1.7097900  
H     2.0459830   -3.7836290   -1.7824370  
H     3.7123860   -2.2777850   -1.0328440  
H     4.3372420    2.5490730    0.7351170  
C     7.0163150    0.7130260    3.3888050  
C     8.1067560    0.1270400    2.7997070  
C     7.7234710   -0.2297640    1.4624590  
C     6.3750290    0.1775560    1.2950150  
N     5.9754760    0.7612010    2.4807510  
C     5.6301100   -0.0218500    0.1111100  
C     6.3100810   -0.6724020   -0.9207160  
O     5.6834660   -0.9082660   -2.1159810  
C     7.6581340   -1.0895820   -0.7707270  
O     8.1718340   -1.7160450   -1.8962190  
C     8.3730230   -0.8744560    0.3914110  
H     9.0712070   -0.0316920    3.2627090  
H     5.0264790    1.0415500    2.6756040  
H     6.3503930   -1.2997380   -2.7068230  
H     9.1244400   -1.8464820   -1.7812270  
H     9.4054450   -1.2080500    0.4760980  
H     6.8932330    1.1138780    4.3852260  
C    -4.8112270    0.7065710    0.1343500  
C    -6.1606530    0.5536410    0.3649520  
C    -6.3851840   -0.8522480    0.5191700  
C    -5.0266710   -1.4724100    0.3526240  
N    -4.1207240   -0.5703530    0.1322590  
C    -4.8244140   -2.8950560    0.4390660  
C    -5.9137190   -3.6612690    0.6783990  
O    -5.8942440   -4.9946520    0.7861500  
C    -7.3023270   -3.0666040    0.8526340  
O    -8.2143900   -3.8708230    1.0668520  
C    -7.4786270   -1.6259910    0.7606630  
H    -6.9021220    1.3325270    0.4186080  
H    -3.8328810   -3.3160410    0.3147860  
H    -6.8335230   -5.2421780    0.9585650  
H    -8.4822700   -1.2333540    0.8898180  
