62


C     1.2232400   -1.6470320   -0.3174690  
C     0.5093920   -0.4661080   -0.2453230  
C     1.4992910    0.5860400   -0.1527230  
C     2.7731050   -0.0333340   -0.1475870  
N     2.5752180   -1.3991060   -0.2230830  
C     3.9878750    0.6844510   -0.0227300  
C     3.8591590    2.0822100   -0.0124010  
O     4.9642830    2.8755500   -0.0244090  
C     2.5863880    2.7077270   -0.0169400  
O     2.6515600    4.0903880    0.0246620  
C     1.4124750    1.9866520   -0.0582470  
H     3.2964390   -1.9893180   -0.6298510  
H     4.6490770    3.7964880   -0.0036060  
H     1.7618160    4.4547820   -0.0917290  
H     0.4492890    2.4868390   -0.0721150  
H     0.8613930   -2.6537070   -0.4774420  
C    -2.4291340   -2.7712740    2.0372290  
C    -3.5701090   -2.1818860    1.5592640  
C    -3.1698200   -1.1604370    0.6346380  
C    -1.7522470   -1.1967600    0.5795230  
N    -1.3305360   -2.1867880    1.4413010  
C    -0.9567310   -0.3567290   -0.2300690  
C    -1.6759360    0.5414460   -1.0226300  
O    -1.0224720    1.3976130   -1.8627630  
C    -3.0918440    0.5859060   -1.0150570  
O    -3.6158520    1.5472350   -1.8596490  
C    -3.8736760   -0.2304580   -0.1846160  
H    -4.5778510   -2.4324340    1.8519680  
H    -0.3624400   -2.3604230    1.6640230  
H    -1.7333670    1.8702210   -2.3386880  
H    -4.3150920    1.1236980   -2.4025340  
H    -2.3059720   -3.5676780    2.7576280  
C    -6.7650800    0.2162480    3.1372430  
C    -7.9480220    0.2454670    2.4844170  
C    -7.6032750    0.1264920    1.0703270  
C    -6.1103270    0.0048830    1.0633990  
N    -5.6331570    0.0714750    2.2700030  
C    -5.3435500   -0.1221060   -0.1827840  
C    -6.0987930   -0.0633790   -1.3196260  
O    -5.5624700   -0.1354680   -2.5749870  
C    -7.5754420    0.0589170   -1.3439000  
O    -8.1380830    0.0691480   -2.4451690  
C    -8.3140150    0.1502250   -0.0717650  
H    -8.9417190    0.3555870    2.8962230  
H    -6.3437440   -0.0907620   -3.1753450  
H    -9.3941700    0.2473150   -0.1270070  
H    -6.5848640    0.2884500    4.2030030  
C     6.0089690   -2.6515280   -2.1739470  
C     7.2648000   -2.5761840   -1.6813880  
C     7.2144380   -1.5269670   -0.6703480  
C     5.7970710   -1.0281600   -0.7155810  
N     5.1026760   -1.7168510   -1.5807160  
C     5.3215120    0.0594590    0.1297010  
C     6.2108790    0.4718310    1.0889690  
O     5.9201470    1.3706690    2.0368540  
C     7.6207160   -0.0356390    1.1801100  
O     8.3372490    0.4194990    2.0724230  
C     8.0953890   -1.0565780    0.2302590  
H     8.1286110   -3.1677030   -1.9506390  
H     6.7489740    1.4765090    2.5554280  
H     9.1210580   -1.3979450    0.3309040  
H     5.6280780   -3.3184650   -2.9381470  
