62


C     1.5367850   -0.4511200    0.0027590  
C     2.7957470    0.1406520    0.0068290  
C     2.5643740    1.5744110    0.0278050  
C     1.1646200    1.7676590    0.0456620  
N     0.5561990    0.5049150    0.0222180  
C     0.5685460    3.0355370    0.1010290  
C     1.4181740    4.1345490    0.1171910  
O     0.8978280    5.3914600    0.1722350  
C     2.8254350    3.9570310    0.0845190  
O     3.5354640    5.1388750    0.1030140  
C     3.4045420    2.7007560    0.0479890  
H    -0.5038310    3.1821180    0.1720670  
H     1.6460960    6.0136010    0.1844970  
H     4.4848330    4.9444950    0.0957520  
H     4.4813590    2.5652660    0.0353960  
H     1.2638280   -1.4955020   -0.0366840  
C    -2.0572340   -1.8854010    2.6968700  
C    -0.9802770   -1.2374930    2.1503860  
C    -1.4542600   -0.5585750    0.9778790  
C    -2.8427140   -0.8268520    0.8672140  
N    -3.1796750   -1.6395600    1.9291640  
C    -3.6560000   -0.3281170   -0.1725970  
C    -3.0156420    0.4752040   -1.1187230  
O    -3.7384690    1.0365160   -2.1217490  
C    -1.6257350    0.7507310   -1.0447880  
O    -1.1540480    1.5146580   -2.0865580  
C    -0.8432610    0.2408770   -0.0130780  
H     0.0281490   -1.2385140    2.5383780  
H    -4.1022820   -2.0078770    2.0994590  
H    -3.1150520    1.5204340   -2.6922480  
H    -0.2974880    1.9148820   -1.8589010  
H    -2.1220340   -2.5043610    3.5804080  
C    -7.1173110    0.3233240    2.5455470  
C    -5.8824900    0.2980480    1.9810300  
C    -6.0073660   -0.3657650    0.6964500  
C    -7.4405470   -0.7230260    0.5588530  
N    -8.0521490   -0.2969640    1.7231110  
C    -7.9935020   -1.3249470   -0.5257230  
C    -7.1206580   -1.6578650   -1.6414620  
O    -7.5204480   -2.1639310   -2.6790660  
C    -5.5822720   -1.3625640   -1.4953170  
O    -4.8316190   -1.7699840   -2.3617630  
C    -5.0941220   -0.6448400   -0.2848830  
H    -4.9775800    0.7119330    2.3993950  
H    -9.0519100   -1.5513770   -0.6103280  
H    -7.4296760    0.7419170    3.4932430  
H    -9.0446830   -0.3337630    1.8946470  
C     4.0470420   -0.5549710   -0.0150060  
C     4.2986760   -1.9115940   -0.0209430  
C     5.7183680   -2.0529200   -0.0459060  
C     6.2312790   -0.6356220   -0.0523600  
N     5.2591400    0.2279460   -0.0343130  
C     7.6399730   -0.3435930   -0.0754890  
C     8.4915940   -1.3954820   -0.0911470  
O     9.8241550   -1.2913010   -0.1130410  
C     8.0058860   -2.8382890   -0.0847480  
O     8.8881140   -3.7037180   -0.0996800  
C     6.5815950   -3.1085580   -0.0617040  
H     3.5757520   -2.7155340   -0.0096680  
H     7.9876430    0.6835110   -0.0802770  
H    10.1423420   -2.2260470   -0.1199590  
H     6.2666450   -4.1472500   -0.0583990  
