60


C    -0.4022270   -1.5530480   -0.3419930  
C     0.9774450   -1.5130280   -0.1910580  
C     1.3715740   -0.1496740   -0.0716170  
C     0.1791610    0.6273320   -0.1412410  
N    -0.8752550   -0.2453030   -0.2908470  
C     0.1496540    2.0296580   -0.0612350  
C     1.3896230    2.6418060    0.1568960  
O     1.4545720    3.9812230    0.3162100  
C     2.5921520    1.8933560    0.2743670  
O     3.7004270    2.6803960    0.4835420  
C     2.6281080    0.5043660    0.1239580  
H     1.6154580   -2.3823860   -0.1344180  
H    -1.8056190    0.0387760   -0.5570010  
H     2.3986450    4.1912640    0.4575560  
H     4.2279410    2.2554190    1.1936270  
C    -3.7620480    1.9883760    2.0789050  
C    -2.4788420    1.7594240    1.6888240  
C    -2.2046880    2.6352890    0.5657030  
C    -3.4482110    3.4147450    0.3448510  
N    -4.3523380    2.9647590    1.2894990  
C    -3.6063240    4.3802330   -0.5960480  
C    -2.4766400    4.6800280   -1.4647870  
O    -2.4973410    5.5591210   -2.3120330  
C    -1.1721050    3.8153330   -1.3123290  
O    -0.2847610    3.9588890   -2.1322780  
C    -1.0896950    2.8177770   -0.2099230  
H    -1.7835580    1.0734090    2.1481740  
H    -4.5210210    4.9515840   -0.7202040  
H    -4.3276240    1.5283880    2.8784520  
H    -5.2963870    3.3035000    1.3901330  
C    -1.0173150   -3.9285570   -0.9738700  
C    -1.2872060   -2.6747380   -0.4958890  
C    -2.7232140   -2.7362840   -0.1180200  
C    -3.1317010   -4.1191360   -0.4716470  
N    -2.1265200   -4.8016020   -0.9592260  
C    -4.4721100   -4.5867530   -0.2509780  
C    -5.3614370   -3.7367780    0.3228660  
O    -6.6445830   -4.0519010    0.5837940  
C    -4.9698810   -2.3540140    0.7269350  
O    -5.8185990   -1.6314230    1.2552570  
C    -3.5844060   -1.8931540    0.4825570  
H    -4.7445410   -5.5986230   -0.5303160  
H    -7.0291540   -3.2518620    1.0021240  
H    -3.3447030   -0.8893740    0.8213630  
H    -0.0736200   -4.2902480   -1.3633450  
C     4.4155750   -2.6604680   -2.4862830  
C     3.6104360   -1.6708220   -2.0361310  
C     4.2049970   -1.2338050   -0.7734220  
C     5.4039700   -2.1068340   -0.6262710  
N     5.5199030   -2.9445050   -1.6163910  
C     6.2950790   -1.9953570    0.5008150  
C     6.0346330   -1.0291170    1.4088780  
O     6.8017170   -0.7875310    2.4885820  
C     4.8721110   -0.0974160    1.2508600  
O     4.7912530    0.8175250    2.0830890  
C     3.8797910   -0.2808360    0.1474370  
H     2.7286120   -1.2609230   -2.5050450  
H     7.1509230   -2.6552510    0.5873390  
H     6.4012260   -0.0132880    2.9364470  
H     4.3238720   -3.2316550   -3.4020880  
