60


C     1.4115930    2.9249000   -0.2685400  
C     2.4368740    3.2422280   -1.1484310  
C     3.2616990    2.0900930   -1.2939480  
C     2.7009830    1.0690800   -0.4795820  
N     1.5649670    1.5883010    0.1056790  
C     3.2777510   -0.2091580   -0.3267540  
C     4.4505810   -0.4397900   -1.0567670  
O     5.0329860   -1.6611200   -1.0172820  
C     5.0121440    0.5653770   -1.8935060  
O     6.1527160    0.1528800   -2.5492850  
C     4.4389160    1.8131440   -2.0226780  
H     2.5476500    4.1881090   -1.6606920  
H     1.1159620    1.1754580    0.9094660  
H     5.8678230   -1.6071850   -1.5156030  
H     6.5568760    0.9034910   -3.0093860  
H     4.8886380    2.5655880   -2.6665400  
C    -0.7639590   -2.0904650   -0.0277340  
C     0.3558540   -1.3784190   -0.4149190  
C     1.4164390   -1.6723530    0.5066720  
C     0.8597860   -2.6456500    1.4735840  
N    -0.4547450   -2.8338540    1.1136110  
C     1.5632400   -3.2249680    2.4814550  
C     2.9639700   -2.8652370    2.6345440  
O     3.7012410   -3.3655460    3.4706240  
C     3.5579740   -1.7608540    1.6850490  
O     4.6737660   -1.3345490    1.9188710  
C     2.7179820   -1.2322860    0.5738450  
H     0.4512270   -0.7664810   -1.2957440  
H     1.1385900   -3.9569710    3.1609530  
H    -1.0970500   -3.5100310    1.5030060  
C    -2.9461700    0.3127120   -3.1397590  
C    -2.0012100   -0.0666230   -2.2388500  
C    -2.5269430   -1.2660580   -1.6109530  
C    -3.8545860   -1.4568350   -2.2805940  
N    -4.0850230   -0.5396290   -3.1780730  
C    -4.7378200   -2.5364580   -1.9397810  
C    -4.3493930   -3.3809750   -0.9582780  
O    -5.0892140   -4.4137390   -0.5241890  
C    -3.0366960   -3.2186220   -0.2503360  
O    -2.8107740   -4.0180100    0.6629310  
C    -2.0759860   -2.1416350   -0.6538000  
H    -1.0773910    0.4452500   -2.0206640  
H    -5.6876960   -2.6424290   -2.4514650  
H    -4.5755400   -4.8321010    0.1989560  
H    -2.9202560    1.1717230   -3.7998900  
C     0.2136410    5.0878710    0.2831970  
C     0.3200160    3.7247930    0.2163740  
C    -0.9914120    3.2388060    0.7204410  
C    -1.7369890    4.4806760    1.0472700  
N    -1.0246180    5.5464210    0.7814790  
C    -3.0765530    4.4397820    1.5644880  
C    -3.6665060    3.2276780    1.7243730  
O    -4.9158140    3.0541860    2.1959150  
C    -2.9565190    1.9625240    1.3733060  
O    -3.5473520    0.8914650    1.5282500  
C    -1.5713200    2.0309260    0.8541180  
H    -3.5917390    5.3637090    1.8034260  
H    -5.0654530    2.0844210    2.1871310  
H    -1.1095790    1.0830770    0.5960080  
H     0.9691470    5.8159150    0.0144420  
