60


C     1.7966630   -0.3408810    0.0248390  
C     1.4544410    1.0034780   -0.0154140  
C     2.7043610    1.7401030   -0.1270470  
C     3.7498090    0.7955480   -0.1356020  
N     3.1617630   -0.4912700   -0.0281750  
C     5.0879350    1.1524150   -0.3132560  
C     5.3733220    2.5059930   -0.4487390  
O     6.6627890    2.9062180   -0.6150330  
C     4.3349540    3.4695910   -0.4136950  
O     4.7718900    4.7673690   -0.5520280  
C     3.0083320    3.1031860   -0.2619830  
H     5.8978170    0.4346450   -0.3462040  
H     6.6592140    3.8757880   -0.6986400  
H     4.0127570    5.3696990   -0.5352360  
H     2.2060440    3.8338140   -0.2543180  
H     1.1588030   -1.2049630    0.1110920  
C     0.1251050    1.5199870    0.0498650  
C    -1.0775540    0.8216720    0.1143770  
C    -2.1011970    1.7971310    0.1598580  
C    -1.3583320    3.1064930    0.1012120  
N    -0.0657150    2.9322860    0.0437620  
C    -2.0368410    4.3659090    0.0916120  
C    -3.3907770    4.3377080    0.1262690  
O    -4.1595330    5.4256930    0.1273620  
C    -4.1911340    3.0426850    0.2075400  
O    -5.4045050    3.1939250    0.3300690  
C    -3.4881910    1.7450140    0.1961490  
H    -1.2058210   -0.2497030    0.0930830  
H    -1.4772900    5.2938150    0.0541590  
H    -5.0823940    5.0784880    0.1956510  
C    -4.2435660    0.5130080    0.2428500  
C    -3.8719510   -0.6863010    0.8051620  
C    -4.9637550   -1.5928560    0.5611360  
C    -5.9553090   -0.7715270   -0.2070770  
N    -5.5429200    0.4476770   -0.3829630  
C    -7.1994700   -1.3342550   -0.6688250  
C    -7.4546720   -2.6280580   -0.3644420  
O    -8.5703280   -3.2826770   -0.7182020  
C    -6.4811460   -3.4756920    0.4233890  
O    -6.8084830   -4.6432370    0.6458660  
C    -5.2166920   -2.8886410    0.8712050  
H    -2.9817880   -0.8948360    1.3803600  
H    -7.8974360   -0.7226450   -1.2294780  
H    -8.4588110   -4.1902570   -0.3542690  
H    -4.5385710   -3.5296860    1.4262270  
C     6.6992910   -2.1640370    2.0940600  
C     5.7260830   -1.2926690    1.7300700  
C     4.9457150   -1.9982150    0.7203150  
C     5.6202800   -3.3222660    0.6020860  
N     6.6432860   -3.4128390    1.4053540  
C     5.1410240   -4.3563130   -0.2793280  
C     4.0203390   -4.1117020   -0.9948680  
O     3.4522330   -4.9985390   -1.8313790  
C     3.2902850   -2.8071480   -0.8964110  
O     2.2682220   -2.6709560   -1.5634060  
C     3.8320940   -1.7226310   -0.0101490  
H     5.5466810   -0.2975470    2.1085040  
H     5.6673060   -5.3024000   -0.3376590  
H     2.6654950   -4.5512460   -2.2084710  
H     7.4781420   -2.0166830    2.8324200  
