58


C    -0.0896030    1.6429930   -0.0144830  
C     1.1279590    1.0074520   -0.0510710  
C     0.8385080   -0.4045320   -0.0546580  
C    -0.6549230   -0.4729170   -0.0184250  
N    -1.1868920    0.7091820    0.0065840  
C    -1.3769910   -1.7349130   -0.0214190  
C    -0.6100530   -2.8576760   -0.0893840  
O    -1.1123750   -4.0946390   -0.1423350  
C     0.8983400   -2.8239330   -0.1033880  
O     1.4682850   -3.9102140   -0.0478480  
C     1.6163360   -1.5241060   -0.1184130  
H     2.0963570    1.4779000   -0.0790700  
H    -0.3303000   -4.6929880   -0.1343970  
C     2.6634560    5.0648600    0.0945870  
C     1.8163190    6.1171690    0.0759030  
C     0.4851400    5.5283590    0.0335440  
C     0.7279190    4.0450680    0.0317200  
N     2.0039500    3.7943240    0.0705050  
C    -0.3644260    3.0669560   -0.0065480  
C    -1.6339740    3.6111280   -0.0408520  
O    -2.7683410    2.9209440   -0.0887850  
C    -1.8829590    5.1037620   -0.0370670  
O    -3.0552880    5.4745590   -0.0712200  
C    -0.7565200    6.0437020    0.0030820  
H     2.0516360    7.1721210    0.0873300  
H    -3.4829780    3.6012730   -0.1071450  
H    -0.9876810    7.1044520    0.0043420  
H     3.7463940    5.0776350    0.1233500  
C    -4.8301360   -0.1106600   -2.3886550  
C    -3.5686460   -0.3598860   -1.9710890  
C    -3.7177070   -1.1792210   -0.7716230  
C    -5.1998890   -1.3233410   -0.6181110  
N    -5.8435240   -0.7032240   -1.5642310  
C    -5.7838260   -2.0897790    0.4527220  
C    -4.9426230   -2.6826980    1.3286460  
O    -5.3411580   -3.4161230    2.3826190  
C    -3.4473560   -2.5502190    1.2122830  
O    -2.7716230   -3.0638800    2.0996760  
C    -2.8491140   -1.7913200    0.0710380  
H    -2.6394780   -0.0174540   -2.3999460  
H    -6.8616710   -2.1737640    0.5361870  
H    -4.5121980   -3.6852070    2.8362030  
H    -5.1448760    0.4676060   -3.2493220  
C     4.8375270    0.1532220    2.4757370  
C     3.6373080   -0.1850600    1.9352750  
C     3.9037130   -0.9397730    0.7311440  
C     5.3820010   -1.0208840    0.6175620  
N     5.8856720   -0.3243680    1.6992750  
C     6.0545910   -1.6811230   -0.3593540  
C     5.2801710   -2.3647700   -1.3864830  
O     5.7874100   -3.0122720   -2.2886030  
C     3.7156690   -2.2503660   -1.3306810  
O     3.0648890   -2.6968490   -2.2584170  
C     3.0839100   -1.5502030   -0.1829540  
H     2.6655800    0.0740850    2.3260350  
H     7.1376270   -1.7419400   -0.4036440  
H     5.0476510    0.7158300    3.3757520  
H     6.8643610   -0.2469090    1.9271700  
