58


C    -1.2351960   -0.6706110    2.8868490  
C    -2.4074180   -0.8152130    2.2092320  
C    -2.3125780   -0.0282370    1.0031340  
C    -0.9790180    0.6034860    1.0359360  
N    -0.3613910    0.1420520    2.1849230  
C    -0.4979520    1.5199960    0.1395560  
C    -1.3902910    1.8534740   -0.9916440  
O    -1.0626870    2.6106960   -1.8856500  
C    -2.7798680    1.1282040   -1.1044350  
O    -3.4104240    1.2828130   -2.1314410  
C    -3.2186540    0.2228530   -0.0092440  
H    -3.2617070   -1.3881820    2.5326850  
H    -0.9372830   -1.0906290    3.8384490  
H     0.5146210    0.5012430    2.5322780  
C     3.7050740   -0.0268000    0.3418750  
C     2.3337390    0.1020400    0.2977560  
C     2.0083780    1.4997970    0.3104120  
C     3.3010270    2.2193740    0.3665000  
N     4.2911490    1.2460130    0.3386510  
C     3.4424610    3.5661670    0.4075090  
C     2.2362710    4.3867330    0.3679040  
O     2.2612200    5.6065200    0.3653860  
C     0.8461820    3.6591280    0.3337420  
O    -0.1623730    4.3295080    0.4590220  
C     0.8104920    2.1764180    0.2423030  
H     1.6359770   -0.7133500    0.1771190  
H     4.4055900    4.0667660    0.4306050  
H     5.2315570    1.4188200    0.6631490  
C     4.1510470   -2.4689950    0.7915880  
C     4.5089060   -1.2178730    0.3556640  
C     5.9021220   -1.3838870   -0.1040150  
C     6.1963920   -2.8247040    0.1564560  
N     5.1602080   -3.4388890    0.6739010  
C     7.4662630   -3.4084350   -0.1626580  
C     8.4047660   -2.6120910   -0.7345650  
O     9.6289800   -3.0262950   -1.0814450  
C     8.1314270   -1.1635090   -1.0377150  
O     9.0261850   -0.5047000   -1.5594270  
C     6.8102480   -0.5869860   -0.6988430  
H     7.6485310   -4.4567810    0.0451230  
H    10.0783090   -2.2463360   -1.4750320  
H     6.6476610    0.4514470   -0.9700180  
H     3.1993420   -2.7567790    1.2231030  
C    -4.5387840   -0.3733210   -0.0597870  
C    -4.9230560   -1.6311120    0.3343680  
C    -6.3408040   -1.7105550    0.0730440  
C    -6.6852320   -0.3605910   -0.4794590  
N    -5.6430660    0.4096150   -0.5625030  
C    -8.0372010   -0.0228070   -0.8495490  
C    -8.9858600   -0.9769650   -0.7043480  
O   -10.2802700   -0.8101770   -1.0149150  
C    -8.6645920   -2.3514680   -0.1658150  
O    -9.5973260   -3.1502700   -0.0676400  
C    -7.2849840   -2.6698830    0.2195200  
H    -4.2917480   -2.4336550    0.6884130  
H    -8.2618690    0.9631190   -1.2406440  
H   -10.7081220   -1.6697480   -0.8016960  
H    -7.0954510   -3.6640060    0.6129110  
