60


C     1.2866740    1.9026240    0.0277210  
C     2.0035700    0.7047810   -0.0276620  
C     3.3791830    1.0272730   -0.0886350  
C     3.4738310    2.4501940   -0.0555870  
N     2.2016380    2.9500940    0.0072230  
C     4.6951980    3.1294810   -0.0701280  
C     5.8464430    2.3599520   -0.1019950  
O     7.0600870    2.9661060   -0.1212400  
C     5.7867170    0.9340420   -0.1121940  
O     7.0335930    0.3599650   -0.1671580  
C     4.5745890    0.2434850   -0.1244170  
H     1.5465950   -0.2702490   -0.0290890  
H     1.9328340    3.9227760    0.0463250  
H     4.7711430    4.2113750   -0.0520740  
H     7.7361460    2.2651070   -0.1351840  
H     6.9743780   -0.5990570   -0.0242200  
C    -2.0416250   -0.9404590    0.1841880  
C    -3.1329180   -0.1161460    0.1910300  
C    -2.5603580    1.2418400    0.1579350  
C    -1.0888720    1.0211490    0.1236040  
N    -0.8118980   -0.2563320    0.1493320  
C    -0.1362580    2.1355560    0.0925790  
C    -0.7061230    3.3901830    0.1323320  
O     0.0246960    4.5374810    0.1121710  
C    -2.1513740    3.6317290    0.2018590  
O    -2.5577550    4.8019630    0.2345740  
C    -3.0798810    2.4805980    0.2259770  
H    -0.6451800    5.2580020    0.1535830  
H    -4.1389430    2.7035440    0.3119800  
H    -2.0376730   -2.0236720    0.1785720  
C    -4.5231800   -0.4917420    0.2278770  
C    -5.1063260   -1.6236510    0.7410130  
C    -6.5235360   -1.5446250    0.5133420  
C    -6.7541460   -0.2610040   -0.1932210  
N    -5.5165530    0.3643880   -0.2835070  
C    -7.9608910    0.1612490   -0.6398140  
C    -9.1295620   -0.6816910   -0.3848200  
O   -10.2551690   -0.3798480   -0.7484010  
C    -8.9163620   -2.0258850    0.4028590  
O    -9.8853110   -2.7336540    0.6345460  
C    -7.5585600   -2.3780600    0.8160720  
H    -4.5910450   -2.4064560    1.2791370  
H    -8.1112660    1.0997440   -1.1648480  
H    -7.4193910   -3.3174670    1.3423740  
H    -5.3155080    1.0497820   -0.9982420  
C     6.4502070   -3.0691550    2.2401410  
C     6.0658950   -1.8301740    1.8398400  
C     5.2223780   -2.0555900    0.6677940  
C     5.2130900   -3.5409300    0.5164230  
N     5.9339720   -4.1249750    1.4339940  
C     4.4709370   -4.1936330   -0.5297500  
C     3.7729140   -3.4109890   -1.3831680  
O     3.0332530   -3.8804140   -2.4003230  
C     3.7789440   -1.9064080   -1.2787460  
O     3.1663700   -1.2901150   -2.1437680  
C     4.5439870   -1.2288360   -0.1769490  
H     6.2862150   -0.8809420    2.3076940  
H     4.4812940   -5.2747460   -0.6114310  
H     2.6801420   -3.0860280   -2.8578060  
H     7.0745300   -3.3267500    3.0877010  
