58


C    -1.6336750    1.6494180   -0.2860150  
C    -2.9703960    1.4540320   -0.2804070  
C    -3.2158080    0.0679450    0.0497640  
C    -1.8837410   -0.5531450    0.2381040  
N    -0.9343160    0.4595070   -0.0070860  
C    -1.6885400   -1.8208820    0.6677480  
C    -2.8621720   -2.6609060    0.8947870  
O    -2.7826940   -3.8060550    1.3075450  
C    -4.2780230   -2.0642010    0.5920000  
O    -5.2434880   -2.8030860    0.6455700  
C    -4.3801000   -0.6254290    0.2316470  
H    -3.7203030    2.1889670   -0.5259010  
H    -0.7153100   -2.2597270    0.8456750  
H    -1.0671700    2.5416570   -0.5113550  
C     2.0817720    3.0433850    1.8798430  
C     0.8831710    2.5330600    1.5067900  
C     1.2061380    1.3518010    0.7224380  
C     2.6951410    1.2992150    0.7144340  
N     3.1889970    2.2956410    1.3973120  
C     3.4604520    0.2419710    0.0397720  
C     2.6953070   -0.7243940   -0.5795050  
O     3.1696420   -1.7835890   -1.2345330  
C     1.1913710   -0.6845560   -0.6016240  
O     0.6168950   -1.5521050   -1.2547010  
C     0.4549240    0.3974100    0.1120300  
H    -0.1020310    2.8923460    1.7666620  
H     2.3768860   -2.2460070   -1.5918780  
H     2.2741800    3.9167490    2.4910220  
C     4.9104010    0.2467690    0.0505940  
C     5.7523250    1.1359980    0.6724510  
C     7.0908380    0.6894130    0.3667260  
C     6.8909930   -0.5263230   -0.4833500  
N     5.6329420   -0.7819460   -0.6670720  
C     8.0087740   -1.2746270   -1.0037400  
C     9.2527580   -0.8400710   -0.6953980  
O    10.3844840   -1.4323710   -1.1055590  
C     9.4850320    0.3834750    0.1605220  
O    10.6540380    0.6994290    0.3843640  
C     8.3318820    1.1306810    0.6784340  
H     5.4643470    1.9886720    1.2649820  
H     7.8377790   -2.1521160   -1.6172550  
H    11.1107700   -0.8899930   -0.7235700  
H     8.5371430    2.0051600    1.2883060  
C    -6.2704780    1.4053380   -3.2058090  
C    -7.5374340    1.5846110   -2.7693670  
C    -7.5500170    1.0530960   -1.4103780  
C    -6.1440940    0.5736860   -1.1921470  
N    -5.4065370    0.7869780   -2.2421810  
C    -5.7272190   -0.0510320    0.0546610  
C    -6.6819820   -0.1452510    1.0255370  
O    -6.4482240   -0.6394880    2.2452250  
C    -8.0968610    0.3352780    0.8307900  
O    -8.8734430    0.2032170    1.7739950  
C    -8.4906630    0.9388700   -0.4541040  
H    -8.3746010    2.0198960   -3.2969510  
H    -7.3124190   -0.6126650    2.7136670  
H    -9.5214440    1.2636670   -0.5577490  
H    -5.8535660    1.6667040   -4.1710840  
