60


C    -1.1208080   -0.7432980    0.1411440  
C     0.0627420   -1.4575160    0.1587540  
C     1.1325990   -0.5195320    0.1207190  
C     0.5399670    0.7722380    0.0724400  
N    -0.8298290    0.6185880    0.0355880  
C     1.2806540    1.9760210    0.0623360  
C     2.6620590    1.8132510    0.2307820  
O     3.4694290    2.8900000    0.3649270  
C     3.2775820    0.5295780    0.2861500  
O     4.6497560    0.5916860    0.3860710  
C     2.5509860   -0.6555820    0.1784410  
H     0.1429090   -2.5335640    0.1437320  
H    -1.3943770    1.3407400    0.4906490  
H     4.3735620    2.5290440    0.4570630  
H     4.9391300   -0.0369430    1.0820940  
C    -2.4770150   -1.2089000    0.1677040  
C    -2.9958200   -2.4260900    0.5402070  
C    -4.4182770   -2.3821620    0.3611250  
C    -4.7247680   -1.0265400   -0.1606430  
N    -3.5207080   -0.3397930   -0.1991900  
C    -5.9630340   -0.6043350   -0.5140000  
C    -7.0866920   -1.5237010   -0.3421260  
O    -8.2361520   -1.2235310   -0.6288050  
C    -6.7932920   -2.9509980    0.2492160  
O    -7.7292330   -3.7244680    0.4061500  
C    -5.4138050   -3.2920830    0.5741550  
H    -2.4297020   -3.2526670    0.9448970  
H    -6.1678790    0.3881430   -0.9044340  
H    -5.2202500   -4.2861570    0.9658840  
H    -3.3637100    0.4498600   -0.8099490  
C     2.1184530   -4.0916250   -2.5672940  
C     2.9943070   -4.9827210   -2.0541630  
C     3.5868550   -4.3128570   -0.8990020  
C     2.9045530   -2.9794300   -0.8581200  
N     2.0601230   -2.8571980   -1.8359860  
C     3.2200940   -1.9715990    0.1608910  
C     4.2060840   -2.3321300    1.0300680  
O     4.6554030   -1.5198150    2.0279920  
C     4.9035090   -3.6491510    1.0115220  
O     5.7650820   -3.8502450    1.8703930  
C     4.5400290   -4.6467110   -0.0101060  
H     3.2335280   -5.9739390   -2.4134310  
H     5.3454210   -2.0518770    2.4909550  
H     5.0719530   -5.5930770    0.0031200  
H     1.4805760   -4.1998940   -3.4357960  
C    -2.2529760    4.0131930    1.8595030  
C    -2.1018670    5.2760580    1.4042950  
C    -0.9412640    5.2296910    0.5236170  
C    -0.4705540    3.8039450    0.5966740  
N    -1.2643900    3.1050990    1.3619630  
C     0.7003370    3.3260680   -0.1245560  
C     1.2431580    4.2285430   -1.0020620  
O     2.2439650    3.9433090   -1.8376170  
C     0.7703900    5.6546440   -1.1188520  
O     1.3482300    6.3782970   -1.9276640  
C    -0.3518240    6.1241850   -0.2902610  
H    -2.7100670    6.1433630    1.6192030  
H     2.4302400    4.7803420   -2.3202590  
H    -0.6631450    7.1578600   -0.4039480  
H    -3.0105740    3.6273250    2.5306400  
