60


C    -0.7574190    1.8512790   -0.1584480  
C    -1.3564310    3.0707250    0.0286230  
C    -2.7648720    2.8226360    0.1287520  
C    -2.9601830    1.4221250    0.0022020  
N    -1.7222770    0.8575180   -0.2239110  
C    -4.2349900    0.8075990    0.0617720  
C    -5.3124870    1.6753590    0.2945650  
O    -6.5745510    1.1827490    0.4225450  
C    -5.1243060    3.0763260    0.4259810  
O    -6.2993910    3.7681280    0.6459340  
C    -3.8774850    3.6593450    0.3343780  
H    -0.8505270    4.0228050    0.1060730  
H    -1.5275440   -0.1274680   -0.1256910  
H    -7.1547570    1.9331150    0.6435570  
H    -6.1015200    4.6904240    0.8659940  
H    -3.7598160    4.7363270    0.4307110  
C     1.4614180    2.1441480   -1.2354640  
C     2.7207870    1.6481130   -1.1423820  
C     2.7143800    0.6409750   -0.1053790  
C     1.3256050    0.5937290    0.4129760  
N     0.5988400    1.5348230   -0.3192950  
C     0.8931790   -0.2294630    1.4019880  
C     1.8517550   -1.1619410    1.9871680  
O     1.5500640   -1.9721240    2.8486200  
C     3.3364350   -1.1144040    1.4858930  
O     4.1685520   -1.8016660    2.0507780  
C     3.6890460   -0.1902180    0.3801100  
H     3.5691300    1.9456240   -1.7395660  
H    -0.1263080   -0.2459520    1.7726210  
H     1.0610520    2.8972940   -1.9005310  
C     7.0049160    2.8203920    0.0052210  
C     5.7927880    2.2732800    0.2649420  
C     5.9140870    0.8747720   -0.1335460  
C     7.3260840    0.7613160   -0.6175530  
N     7.9550890    1.8999340   -0.5356330  
C     7.8732760   -0.4867620   -1.0814100  
C     7.0637780   -1.5704130   -1.0716560  
O     7.4348260   -2.7920600   -1.4849390  
C     5.6273740   -1.4870420   -0.6268140  
O     4.9374770   -2.4910020   -0.7659970  
C     5.0793160   -0.1953810   -0.1028340  
H     4.9202920    2.7515580    0.6857260  
H     8.9016680   -0.5357400   -1.4214830  
H     6.6352980   -3.3554170   -1.3930540  
H     7.3190890    3.8447590    0.1682690  
C    -6.9532440   -1.7174200   -2.4499550  
C    -6.3119380   -0.6466780   -1.9312270  
C    -5.3881390   -1.1928900   -0.9400440  
C    -5.6274640   -2.6678260   -1.0071990  
N    -6.5406890   -2.9700290   -1.8830790  
C    -4.8976960   -3.5968580   -0.1838150  
C    -3.9501080   -3.0918950    0.6368480  
O    -3.1762270   -3.8413060    1.4401490  
C    -3.6531580   -1.6188370    0.6906920  
O    -2.7100660   -1.2745730    1.4075000  
C    -4.4608530   -0.6449260   -0.1082500  
H    -6.4425430    0.3954990   -2.1786540  
H    -5.1035130   -4.6594880   -0.2463700  
H    -2.5679770   -3.2184310    1.8925440  
H    -7.7149430   -1.7307970   -3.2202670  
