60


C     0.5560360   -0.7449810    2.3619930  
C    -0.7392930   -0.7845020    1.9310070  
C    -0.7690170   -1.5627650    0.7220270  
C     0.5615110   -1.9817370    0.4734210  
N     1.3703430   -1.4545680    1.4805310  
C     0.9101410   -2.8404510   -0.5747000  
C    -0.1184490   -3.2874210   -1.3889120  
O     0.1449330   -4.1378170   -2.4174300  
C    -1.4612450   -2.8801400   -1.1705870  
O    -2.3557690   -3.3893470   -2.0885860  
C    -1.8106630   -1.9931440   -0.1462440  
H    -1.5762080   -0.3025220    2.4133080  
H     1.9245030   -3.1821450   -0.7460370  
H    -0.7188660   -4.3293070   -2.8295800  
H    -3.1355790   -3.7306790   -1.6036620  
H     1.0016820   -0.2506400    3.2131020  
C    -3.3969460    2.1022980    0.1614460  
C    -4.7454470    1.8648450    0.3036860  
C    -4.9023210    0.4397140    0.2581370  
C    -3.5031190   -0.0876770    0.1056290  
N    -2.6431630    0.8777060    0.0399070  
C    -3.2020680   -1.5167990    0.0099270  
C    -4.3001490   -2.3193380   -0.0053430  
O    -4.2358710   -3.6674180   -0.1480210  
C    -5.7131620   -1.8297420    0.1403030  
O    -6.5983010   -2.6927930    0.1300660  
C    -5.9675480   -0.4019400    0.2852050  
H    -5.5393530    2.5923830    0.4001120  
H    -5.1794600   -3.9608770   -0.1047930  
H    -6.9994020   -0.0808970    0.3846520  
C    -3.1120840    4.6251380    0.2072310  
C    -2.6626080    3.3254570    0.1085210  
C    -1.2031020    3.4705770   -0.0847410  
C    -0.9829300    4.9399540   -0.0748080  
N    -2.1110650    5.5956730    0.0993990  
C     0.3187320    5.5162290   -0.2400720  
C     1.3642370    4.6672320   -0.4114900  
O     2.6318460    5.0613420   -0.5820630  
C     1.1731470    3.1713590   -0.4228810  
O     2.1729000    2.4742060   -0.5843970  
C    -0.1823020    2.6066170   -0.2451990  
H     0.4443090    6.5930980   -0.2299610  
H     3.1554320    4.2359380   -0.6862060  
H    -0.3047300    1.5297960   -0.2503260  
H    -4.1356010    4.9504350    0.3554600  
C     3.4439680   -2.0804070    2.6963400  
C     2.7533500   -1.6245780    1.6196970  
C     3.7817710   -1.2051110    0.6496770  
C     5.0619230   -1.5333130    1.3374780  
N     4.8568770   -2.0307380    2.5265070  
C     6.3335750   -1.2828920    0.7099490  
C     6.3319010   -0.6880910   -0.5072090  
O     7.4420070   -0.3876260   -1.2018350  
C     5.0531080   -0.2964430   -1.1967490  
O     5.1385990    0.2487160   -2.2950770  
C     3.7560340   -0.5877030   -0.5450590  
H     7.2521060   -1.5518130    1.2197800  
H     7.1249120    0.0319190   -2.0315630  
H     2.8538060   -0.2802200   -1.0630190  
H     3.0368630   -2.4565560    3.6270020  
