62


C    -0.6055110    1.4289420   -0.2339770  
C    -0.7401300    2.7994930   -0.3257090  
C    -2.1394160    3.0992610   -0.3361990  
C    -2.8306940    1.8646790   -0.2447160  
N    -1.8846180    0.8674960   -0.2199760  
C    -4.2503710    1.7595080   -0.1931680  
C    -4.9433200    2.9871040   -0.2760220  
O    -6.3017530    3.0122910   -0.2384830  
C    -4.2585770    4.2196850   -0.3922810  
O    -5.1034520    5.3115020   -0.4668420  
C    -2.8783610    4.2943260   -0.4205610  
H     0.0734010    3.5034360   -0.4291120  
H    -2.1568420   -0.0780520    0.0429270  
H    -6.5710960    3.9475950   -0.2892100  
H    -4.5837250    6.1284420   -0.4820190  
H    -2.3799060    5.2580510   -0.5017440  
C     3.3693320    1.9376360    1.7564280  
C     2.0827590    2.1006860    1.3294060  
C     1.7703110    0.9880850    0.4737550  
C     2.9224140    0.1654540    0.4273310  
N     3.9094520    0.7741650    1.2074620  
C     2.9501510   -1.0621680   -0.2434710  
C     1.7997620   -1.4417630   -0.9190540  
O     1.7798460   -2.6168290   -1.6098150  
C     0.6438830   -0.6234760   -0.9107960  
O    -0.4021260   -1.1435150   -1.6462340  
C     0.5965720    0.5916470   -0.2193610  
H     1.4265540    2.9164750    1.5942530  
H     3.8135310   -1.7167960   -0.2488540  
H     0.9063170   -2.6831190   -2.0340890  
H    -1.0832640   -0.4609550   -1.7741280  
H     3.9878300    2.5619300    2.3846840  
C     5.8355720    0.2481640    2.6736910  
C     5.1949570    0.2962060    1.4758740  
C     6.2084340   -0.1102270    0.4799040  
C     7.4130320   -0.3963960    1.3090490  
N     7.1877810   -0.1812850    2.5762280  
C     8.6437370   -0.8442250    0.7120740  
C     8.6948630   -0.9494340   -0.6380140  
O     9.7825520   -1.3418670   -1.3239610  
C     7.5107230   -0.6213480   -1.4994950  
O     7.6331610   -0.7335530   -2.7180730  
C     6.2444260   -0.1913630   -0.8624360  
H     9.4994560   -1.0661160    1.3401850  
H     9.5177140   -1.3179960   -2.2693020  
H     5.4037490    0.0166070   -1.5166320  
H     5.4296510    0.4978410    3.6461510  
C    -4.9258650    0.4890500   -0.0512630  
C    -6.2651670    0.1777800   -0.0214290  
C    -6.3439210   -1.2438230    0.1480230  
C    -4.9133500   -1.6985890    0.2117150  
N    -4.0971240   -0.6947970    0.0959000  
C    -4.5614550   -3.0829370    0.3811870  
C    -5.5779010   -3.9716640    0.4808380  
O    -5.4173040   -5.2884630    0.6394110  
C    -7.0368940   -3.5462580    0.4200810  
O    -7.8719110   -4.4477690    0.5228670  
C    -7.3638030   -2.1372390    0.2490470  
H    -7.0924620    0.8618440   -0.1069950  
H    -3.5210990   -3.3857820    0.4243200  
H    -6.3334450   -5.6514750    0.6774070  
H    -8.4140390   -1.8661370    0.2111820  
