64


C     0.0921170    1.6053020    0.0135540  
C    -1.0998370    0.9161680    0.1053630  
C    -0.8210670   -0.4861070    0.0050680  
C     0.5854850   -0.6098230   -0.1221420  
N     1.1296200    0.6655570   -0.0835390  
C     1.2684370   -1.8300540   -0.2247460  
C     0.4632030   -2.9747440   -0.1629410  
O     1.0298610   -4.2041710   -0.2143080  
C    -0.9420300   -2.8896320   -0.0037990  
O    -1.5651180   -4.1193920    0.0324500  
C    -1.6235120   -1.6655430    0.0496470  
H    -2.0637290    1.3712530    0.2723360  
H     2.0226030    0.8745810   -0.5126540  
H     0.2905430   -4.8365870   -0.1243950  
H    -2.1981230   -4.0977560    0.7813990  
C    -2.2632150    5.1971340   -1.2946580  
C    -1.8443520    3.9144510   -1.0514020  
C    -0.5667140    4.0005760   -0.3997530  
C    -0.2591220    5.3820130   -0.2839390  
N    -1.3122820    6.0852950   -0.8312200  
C     0.9296510    5.8582860    0.2798870  
C     1.8319850    4.9141500    0.7416190  
O     3.0026800    5.3167560    1.3160960  
C     1.5555400    3.5276110    0.6402490  
O     2.5683720    2.7370210    1.1562950  
C     0.3700220    3.0385290    0.0762550  
H    -2.3830020    3.0181120   -1.3204440  
H    -1.3696430    7.0893720   -0.8937030  
H     1.1609040    6.9147380    0.3694920  
H     3.4660820    4.5088010    1.5998070  
H     2.2389660    1.8380220    1.3315210  
H    -3.1684550    5.5561820   -1.7635780  
C    -4.7391510    0.6537670   -2.1694480  
C    -3.5546030    0.0963250   -1.8233300  
C    -3.8482460   -0.7432170   -0.6625990  
C    -5.3081220   -0.5574090   -0.4524270  
N    -5.8261930    0.2639620   -1.3225600  
C    -6.0187080   -1.2353770    0.6026800  
C    -5.3179080   -2.0948800    1.3749990  
O    -5.8599260   -2.8236590    2.3702810  
C    -3.8599040   -2.3470060    1.1441510  
O    -3.3428310   -3.2287310    1.8464400  
C    -3.0937190   -1.5641830    0.1259920  
H    -2.5943650    0.2123640   -2.3032160  
H    -7.0810170   -1.0680620    0.7407540  
H    -5.1316700   -3.3772900    2.7222010  
H    -4.9451880    1.3254010   -2.9941300  
C     4.3543450   -0.4591660    2.6138200  
C     5.4566590   -0.7881770    1.8724880  
C     4.9857140   -1.3700150    0.6451300  
C     3.5698090   -1.3592910    0.6987120  
N     3.2063490   -0.7702910    1.8978630  
C     2.7467750   -1.8833780   -0.3209340  
C     3.4063300   -2.4298770   -1.4232410  
O     2.6860230   -2.9286460   -2.4645770  
C     4.8243610   -2.4414920   -1.4947010  
O     5.3127580   -3.0052330   -2.6593040  
C     5.6151860   -1.9201670   -0.4884100  
H     6.4868140   -0.6307370    2.1614660  
H     2.2765920   -0.8219720    2.2871390  
H     3.3219640   -3.2885320   -3.1069980  
H     6.2802800   -3.0301210   -2.6251900  
H     6.6999340   -1.9418260   -0.5727470  
H     4.2810450   -0.0077980    3.5932730  
