62


C     2.3474540   -0.6210830   -0.0956950  
C     3.2018900    0.4613730   -0.0626290  
C     2.3719020    1.6489870   -0.1921950  
C     1.0302500    1.2186240   -0.2994780  
N     1.0389430   -0.2054400   -0.2374100  
C    -0.0347600    2.1105530   -0.4337600  
C     0.2674660    3.4680390   -0.4654470  
O    -0.7395410    4.3734270   -0.5993860  
C     1.6045040    3.9160980   -0.3611060  
O     1.7473770    5.2848860   -0.4077880  
C     2.6548710    3.0218220   -0.2245530  
H    -1.0608350    1.7805090   -0.5105820  
H    -0.3396490    5.2601990   -0.5916200  
H     2.6823250    5.5227010   -0.3191740  
H     3.6727970    3.3909160   -0.1450680  
H     2.6063410   -1.6644920   -0.0298480  
C    -0.0252320   -1.0812690   -0.2978250  
C     0.0022200   -2.4525830   -0.2041350  
C    -1.3641760   -2.8592490   -0.3343180  
C    -2.1220970   -1.5727430   -0.5094290  
N    -1.3268390   -0.5431780   -0.4857440  
C    -3.5631710   -1.5442870   -0.6757400  
C    -4.1931220   -2.7551730   -0.6913270  
O    -5.5090990   -2.9084850   -0.8635460  
C    -3.4536490   -4.0590640   -0.4984060  
O    -4.1433730   -5.0824430   -0.5278150  
C    -2.0084170   -4.0548570   -0.3200020  
H     0.8507370   -3.1026560   -0.0549850  
H    -5.6541650   -3.8834550   -0.8138740  
H    -1.5139620   -5.0117680   -0.1903880  
C    -3.8780410    0.7075440   -1.6756510  
C    -4.7202080    1.7695490   -1.5215980  
C    -5.6568470    1.4270980   -0.4862580  
C    -5.3354000    0.1190020   -0.0459130  
N    -4.2370510   -0.3160270   -0.7946170  
C    -6.0252020   -0.5125900    0.9942600  
C    -7.0711770    0.1814530    1.5854000  
O    -7.7784870   -0.3967830    2.6018390  
C    -7.4152480    1.4846960    1.1477560  
O    -8.4791180    2.0454400    1.8310240  
C    -6.7221160    2.1110350    0.1270360  
H    -4.6783400    2.6952270   -2.0791500  
H    -5.7861940   -1.5091780    1.3426940  
H    -8.4598720    0.2410940    2.8749140  
H    -8.6571910    2.9294620    1.4779450  
H    -6.9922860    3.1178320   -0.1860200  
H    -3.0432760    0.5665900   -2.3444800  
C     4.6173540    0.3081350    0.0753950  
C     5.6281270    1.2372530    0.1295870  
C     6.8461080    0.4891730    0.2756710  
C     6.3988120   -0.9445020    0.2955290  
N     5.1085310   -1.0474490    0.1794610  
C     7.3418440   -2.0244770    0.4300280  
C     8.6515830   -1.7001010    0.5386500  
O     9.6423610   -2.5905080    0.6695370  
C     9.1333410   -0.2625320    0.5219940  
O    10.3500880   -0.0879830    0.6282930  
C     8.1606450    0.8150520    0.3846170  
H     5.5503800    2.3127380    0.0763760  
H     6.9976430   -3.0525940    0.4420770  
H    10.4629120   -2.0472630    0.7230660  
H     8.5388530    1.8325380    0.3762430  
