60


C     1.7806180   -0.6819370    0.1827310  
C     0.7553390    0.2142570    0.2738790  
C     1.3268570    1.5419410    0.3362840  
C     2.7298850    1.3867070    0.2720530  
N     3.0011150   -0.0021720    0.1858930  
C     3.5958540    2.4825000    0.3248520  
C     3.0272470    3.7449550    0.4422110  
O     3.8348960    4.8383500    0.4885670  
C     1.6212930    3.9101090    0.5172530  
O     1.2145360    5.2180430    0.6422130  
C     0.7667070    2.8220540    0.4706630  
H     4.6683720    2.3657380    0.2736980  
H     3.2636490    5.6233140    0.5542140  
H     0.2475580    5.2700920    0.6036130  
H    -0.3091760    2.9579600    0.5335440  
H     1.7465350   -1.7557210    0.0949960  
C    -1.1387410   -1.0637090    1.2590080  
C    -2.4740230   -1.2126160    1.0897770  
C    -2.8775270   -0.3300470    0.0178880  
C    -1.6401470    0.3466790   -0.4420370  
N    -0.6062190   -0.1234350    0.3653610  
C    -1.5713860    1.2077970   -1.4896810  
C    -2.8065700    1.5376730   -2.1869180  
O    -2.8516470    2.2952080   -3.1442350  
C    -4.1456600    0.8958140   -1.6755750  
O    -5.1912120    1.2566020   -2.1853090  
C    -4.0896560   -0.0992990   -0.5732960  
H    -3.1258000   -1.8415070    1.6749010  
H    -0.6452940    1.6497170   -1.8391700  
H    -0.4746040   -1.5307880    1.9737210  
C    -6.1830000   -0.1909720    3.3134490  
C    -7.3174870   -0.8619740    3.0121780  
C    -7.1926020   -1.2023520    1.5986090  
C    -5.8621330   -0.6313670    1.2006280  
N    -5.2824850   -0.0447220    2.2071610  
C    -5.3507120   -0.7423670   -0.1572470  
C    -6.1434920   -1.4125450   -1.0430780  
O    -5.7975300   -1.6446640   -2.3140640  
C    -7.4795630   -1.9952940   -0.6659300  
O    -8.1092660   -2.5844030   -1.5420120  
C    -7.9748360   -1.8489930    0.7144150  
H    -8.1499090   -1.0998360    3.6596570  
H    -6.5613790   -2.1156390   -2.7154470  
H    -8.9468390   -2.2751870    0.9433240  
H    -5.8931850    0.2345810    4.2668930  
C     4.2144820   -0.6420300    0.1071340  
C     4.4503310   -2.0019940    0.0591140  
C     5.8680630   -2.1263370   -0.0214140  
C     6.3709280   -0.7040360   -0.0109540  
N     5.3884950    0.1520420    0.0649510  
C     7.7680510   -0.3917440   -0.0781940  
C     8.6284130   -1.4367850   -0.1515330  
O     9.9535250   -1.3181900   -0.2196440  
C     8.1562380   -2.8882870   -0.1633500  
O     9.0480910   -3.7396080   -0.2325360  
C     6.7382520   -3.1741160   -0.0949300  
H     3.7364690   -2.8112990    0.0785200  
H     8.1035640    0.6391170   -0.0700390  
H    10.2845970   -2.2483050   -0.2618030  
H     6.4318170   -4.2150080   -0.1059660  
