60


C    -1.2922280   -1.4712920   -0.0167850  
C     0.0349930   -1.8215590   -0.1608850  
C     0.8207360   -0.6301470   -0.0626980  
C    -0.1287980    0.4725950    0.1843350  
N    -1.3735080   -0.0967830    0.1892640  
C     0.1886930    1.8101880    0.3506840  
C     1.6163290    2.1160320    0.2957260  
O     2.0872200    3.2395840    0.4058270  
C     2.6616310    0.9450520    0.1179970  
O     3.8393210    1.2497270    0.1987300  
C     2.1948760   -0.4347650   -0.1574920  
H     0.4111730   -2.8264490   -0.2753300  
H    -2.2585020    0.3869870    0.2580740  
C    -2.4918310   -2.2526200   -0.0289320  
C    -2.6683150   -3.6047360   -0.1973520  
C    -4.0876530   -3.8180980   -0.1166690  
C    -4.6605160   -2.4478210    0.1082420  
N    -3.7252820   -1.5419560    0.1571130  
C    -6.0759440   -2.2348960    0.2437030  
C    -6.8813930   -3.3211630    0.1615920  
O    -8.2133900   -3.2799920    0.2682580  
C    -6.3354070   -4.7173770   -0.0643350  
O    -7.1592440   -5.6323830   -0.1231020  
C    -4.8933060   -4.9090080   -0.1993710  
H    -1.9100160   -4.3588920   -0.3547550  
H    -6.4665120   -1.2365450    0.4056480  
H    -8.5086070   -4.2142890    0.1676590  
H    -4.5357010   -5.9211900   -0.3601270  
C    -1.9940270    2.7003940    1.2937740  
C    -0.8143130    2.8347090    0.6066980  
C    -0.8495640    4.2462000    0.1338260  
C    -2.1456140    4.7677900    0.6428440  
N    -2.7948460    3.8622470    1.3269320  
C    -2.5787490    6.1166040    0.3921310  
C    -1.7745750    6.9142940   -0.3508190  
O    -2.0558990    8.1896770   -0.6720670  
C    -0.4695120    6.4159080   -0.8920570  
O     0.2071430    7.1915820   -1.5674910  
C    -0.0367730    5.0301700   -0.5998460  
H    -3.5284980    6.4597500    0.7874240  
H    -1.2908400    8.4931340   -1.2086570  
H     0.9353460    4.7285550   -0.9687320  
H    -2.3387760    1.8325910    1.8442140  
C     2.7898170   -2.4457870   -1.5180390  
C     3.1184220   -1.4710660   -0.5730230  
C     4.4950620   -1.7481250   -0.1844170  
C     4.9063690   -2.8949370   -0.9060540  
N     3.8458770   -3.2833540   -1.7130690  
C     6.1633010   -3.4895030   -0.7640950  
C     7.0413470   -2.9081900    0.1384640  
O     8.2838670   -3.4331830    0.3146840  
C     6.6500650   -1.7629190    0.8801200  
O     7.6263590   -1.2965390    1.7354920  
C     5.4027120   -1.1857520    0.7347380  
H     3.8790580   -4.0248770   -2.3966090  
H     6.4669670   -4.3681760   -1.3235950  
H     8.7438180   -2.8733570    0.9648230  
H     7.3425590   -0.4550640    2.1237190  
H     5.1438800   -0.2914230    1.2889300  
H     1.8909450   -2.5406540   -2.1090310  
