60


C     0.6843340   -0.7532210    0.4727400  
C     2.0382780   -0.7188440    0.3304720  
C     2.4087120    0.6357300    0.0223390  
C     1.2155380    1.3963910   -0.0165330  
N     0.1525310    0.5268070    0.2780920  
C     1.1880140    2.7506130   -0.3624950  
C     2.4043030    3.3709250   -0.6197480  
O     2.4265190    4.6989370   -0.9105420  
C     3.6124370    2.6410130   -0.5836240  
O     4.7234690    3.4025110   -0.8381440  
C     3.6505840    1.2642850   -0.2887920  
H     2.7195430   -1.5438560    0.4615140  
H     0.2748230    3.3268680   -0.4471980  
H     3.3577620    4.9546170   -1.0337970  
H     5.5142400    2.9274740   -0.5205200  
H     0.0253990   -1.5639520    0.7447060  
C    -1.1955900    0.8171240    0.3613230  
C    -2.2656910    0.0075690    0.0943710  
C    -3.4583730    0.7500830    0.4063680  
C    -3.0044370    2.0800750    0.8737590  
N    -1.6137320    2.0826650    0.7799890  
C    -3.8167700    3.0802020    1.2871440  
C    -5.2593350    2.8529420    1.2467610  
O    -6.0730060    3.6999490    1.5771810  
C    -5.7755680    1.4544740    0.7553110  
O    -6.9704870    1.2228640    0.8203710  
C    -4.7917150    0.4443010    0.3025700  
H    -2.2203940   -0.9788750   -0.3401650  
H    -3.4554780    4.0501490    1.6146780  
H    -1.0318830    2.6809920    1.3502310  
C    -4.2946330   -3.7928760    1.6162210  
C    -4.2167520   -2.4421280    1.5020080  
C    -5.0122080   -2.0574200    0.3521440  
C    -5.5729020   -3.3167050   -0.1956080  
N    -5.0781840   -4.3323870    0.6015080  
C    -6.4198150   -3.3991220   -1.2540960  
C    -6.8085800   -2.1639750   -1.9188310  
O    -7.5862860   -2.1236090   -2.8598880  
C    -6.1781450   -0.8189180   -1.4063310  
O    -6.3778590    0.1976740   -2.0449930  
C    -5.3045210   -0.8403470   -0.2009830  
H    -3.6734410   -1.7747630    2.1532600  
H    -6.8346820   -4.3345640   -1.6167450  
H    -3.8464430   -4.4462270    2.3532560  
H    -5.3539620   -5.2993050    0.5315170  
C     4.9089140    0.5410030   -0.2954980  
C     6.0758410    0.8256030   -0.9772360  
C     7.0140750   -0.2019970   -0.6036700  
C     6.2510680   -1.0624880    0.3581570  
N     5.0320660   -0.6360340    0.5223140  
C     6.8500560   -2.2107160    0.9843070  
C     8.1309400   -2.5030900    0.6556330  
O     8.8185210   -3.5375620    1.1493980  
C     8.9230310   -1.6631050   -0.3284270  
O    10.0790840   -2.0202970   -0.5559810  
C     8.2940690   -0.4935440   -0.9420590  
H     6.2279410    1.5559690   -1.7603400  
H     6.2813220   -2.8105670    1.6858750  
H     9.7054400   -3.4847330    0.7242130  
H     8.8904650    0.0866500   -1.6391980  
