62


C     0.4493510    1.3552590   -0.0989870  
C     1.6545550    0.6861060   -0.0531790  
C     1.3764560   -0.7142980    0.0285430  
C    -0.0388020   -0.8512250    0.0369330  
N    -0.5801950    0.4184560    0.0041020  
C    -0.7072270   -2.0941520    0.0287030  
C     0.1382830   -3.2166460   -0.0583290  
O    -0.3858600   -4.4743370   -0.1194100  
C     1.5457000   -3.1092110   -0.0601500  
O     2.1817790   -4.3308910   -0.0842240  
C     2.2045320   -1.8764180    0.0318450  
H     2.6243560    1.1593000   -0.0362100  
H    -1.5186110    0.5948210   -0.3294870  
H     0.3865400   -5.0738380   -0.1806980  
H     2.8988880   -4.2674440   -0.7534080  
C     0.1639980    2.7649050   -0.2035390  
C     0.9184870    3.7866730   -0.7452880  
C     0.1724490    4.9975110   -0.6062050  
C    -1.0501250    4.6621200    0.0347530  
N    -1.0544440    3.2919170    0.2333590  
C    -2.0221220    5.6153510    0.3548330  
C    -1.7612180    6.9332110    0.0100860  
O    -2.6723160    7.9025480    0.3000450  
C    -0.5507780    7.2860580   -0.6497480  
O    -0.4482350    8.6333190   -0.9314400  
C     0.4079750    6.3424510   -0.9619110  
H     1.8763510    3.6646370   -1.2322010  
H    -1.6388770    2.8331540    0.9174380  
H    -2.9557320    5.3657170    0.8482640  
H    -2.3122120    8.7466540   -0.0233230  
H     0.3938770    8.8106800   -1.3760420  
H     1.3277750    6.6350460   -1.4639640  
C     5.0292370    0.4274670    2.6235020  
C     3.8973560   -0.1355210    2.1402130  
C     4.3249140   -0.9432360    1.0000840  
C     5.8001180   -0.7344000    0.9515900  
N     6.2082650    0.0713370    1.8898410  
C     6.6274400   -1.3705890   -0.0412080  
C     6.0246640   -2.2104390   -0.9119870  
O     6.6801860   -2.8951570   -1.8674720  
C     4.5543820   -2.4877170   -0.8446290  
O     4.1282090   -3.3518910   -1.6255690  
C     3.6738010   -1.7501070    0.1113520  
H     2.8896160   -0.0348360    2.5140020  
H     7.6957040   -1.1866610   -0.0606970  
H     6.0065170   -3.4464380   -2.3173310  
H     5.1350540    1.0863690    3.4767480  
C    -2.1594450   -2.1962590    0.0801380  
C    -3.0850590   -1.2807470    0.5351580  
C    -4.3949330   -1.8552300    0.3868940  
C    -4.1851060   -3.2005600   -0.2037590  
N    -2.8253430   -3.3341800   -0.3798170  
C    -5.1831090   -4.0753960   -0.4889970  
C    -6.5584030   -3.6774440   -0.2033100  
O    -7.5200580   -4.3978950   -0.4257600  
C    -6.8049240   -2.2531610    0.4187070  
O    -7.9513920   -1.9045770    0.6608270  
C    -5.6457340   -1.4019980    0.6817460  
H    -2.8678190   -0.3387310    1.0148430  
H    -5.0109980   -5.0568570   -0.9198980  
H    -5.8288740   -0.4225680    1.1136790  
H    -2.3383080   -4.1848300   -0.6231960  
