62


C    -0.9265110   -1.5835920   -0.9856240  
C     0.4568380   -1.6599850   -1.0832170  
C     0.9751140   -0.3662810   -0.8016680  
C    -0.1357270    0.4940940   -0.5654810  
N    -1.2686700   -0.2653480   -0.7071000  
C    -0.0111180    1.8690560   -0.2545490  
C     1.3078790    2.3085640   -0.0553810  
O     1.5523190    3.5688460    0.3778650  
C     2.4345220    1.4720050   -0.2955470  
O     3.6402600    2.1180600   -0.1410530  
C     2.2876000    0.1501450   -0.6882070  
H     1.0247700   -2.5600070   -1.2695820  
H    -2.1618420    0.0572690   -0.3518250  
H     2.5215170    3.6611050    0.4372340  
H     4.3544120    1.4741360    0.0130380  
C    -1.9013000   -3.7867460   -1.7989350  
C    -1.9192250   -2.6217230   -1.0838120  
C    -3.2064800   -2.6759890   -0.3447290  
C    -3.8278840   -3.9468980   -0.7833900  
N    -3.0524700   -4.5894340   -1.6200830  
C    -5.1062550   -4.3679880   -0.2769120  
C    -5.7202020   -3.5832610    0.6452450  
O    -6.9206620   -3.8612890    1.1925330  
C    -5.0945900   -2.3199560    1.1360100  
O    -5.7087430   -1.6434830    1.9673150  
C    -3.7743950   -1.9143430    0.6087390  
H    -5.5483640   -5.2955450   -0.6240750  
H    -7.0976010   -3.1243120    1.8156770  
H    -3.3328700   -1.0143810    1.0254190  
H    -1.1286000   -4.1275180   -2.4770000  
C    -4.0778260    1.7078940    1.6363730  
C    -4.4801940    2.9893730    1.4988460  
C    -3.4242420    3.6464520    0.7405750  
C    -2.3864390    2.5771760    0.5313360  
N    -2.7975650    1.4479390    1.0419260  
C    -1.1362660    2.8312770   -0.1764350  
C    -1.0699020    4.0523670   -0.7984180  
O    -0.0729250    4.4210050   -1.6087610  
C    -2.1096100    5.1263750   -0.6316870  
O    -1.9259520    6.1915890   -1.2201900  
C    -3.2972680    4.8700990    0.1964730  
H    -5.3999310    3.4420690    1.8416820  
H    -0.2861190    5.3428040   -1.8794510  
H    -4.0271230    5.6679610    0.2919470  
H    -4.6025960    0.8834740    2.1059270  
C     3.6761660   -1.2944570   -2.1745720  
C     4.8935960   -1.9148390   -2.1308740  
C     5.4490290   -1.6700480   -0.8295570  
C     4.5028010   -0.8885790   -0.1160280  
N     3.4191440   -0.6608870   -0.9596360  
C     4.7037120   -0.4894000    1.2158650  
C     5.8937540   -0.8664700    1.8249730  
O     6.1357850   -0.5060740    3.1174030  
C     6.8570420   -1.6325060    1.1189120  
O     7.9872410   -1.9244750    1.8577240  
C     6.6444260   -2.0412550   -0.1857700  
H     5.3466900   -2.4785760   -2.9348380  
H     3.9547310    0.0438560    1.7923530  
H     6.9981470   -0.8821340    3.3652910  
H     8.5760340   -2.4930460    1.3398130  
H     7.3914200   -2.6416610   -0.7015340  
H     2.9534190   -1.2181870   -2.9738230  
